MODEL 2
REMARK VINA RESULT: -6.299776913      3.261      5.690
REMARK  9 active torsions:
REMARK  status: ('A' for Active; 'I' for Inactive)
REMARK    1  A    between atoms: C2_2  and  C3_3
REMARK    2  A    between atoms: C3_3  and  C4_4
REMARK    3  A    between atoms: C3_3  and  N3_20
REMARK    4  A    between atoms: C4_4  and  N1_5
REMARK    5  A    between atoms: C6_8  and  N2_9
REMARK    6  A    between atoms: C6_8  and  C7_13
REMARK    7  A    between atoms: C7_13  and  C8_14
REMARK    8  A    between atoms: C18_25  and  C19_26
REMARK    9  A    between atoms: C23_32  and  C24_33
ROOT
HETATM    1  C3  UNL     1       9.960  33.436  80.066  1.00  0.00     0.118 C
ENDROOT
BRANCH   1   2
HETATM    2  C2  UNL     1      10.942  32.889  81.143  1.00  0.00     0.026 C
HETATM    3  C1  UNL     1      12.198  32.356  80.425  1.00  0.00     0.007 C
ENDBRANCH   1   2
BRANCH   1   4
HETATM    4  C4  UNL     1       9.647  32.275  79.231  1.00  0.00     0.092 C
BRANCH   4   5
HETATM    5  N1  UNL     1       9.669  32.235  77.833  1.00  0.00    -0.323 N
HETATM    6  C5  UNL     1       8.813  31.481  76.925  1.00  0.00     0.260 C
HETATM    7  O1  UNL     1       8.424  30.331  77.205  1.00  0.00    -0.270 OA
HETATM    8  C6  UNL     1       8.530  32.297  75.709  1.00  0.00     0.205 C
HETATM    9  C11 UNL     1       9.310  33.552  76.014  1.00  0.00     0.074 C
HETATM   10  C12 UNL     1      10.464  32.995  76.887  1.00  0.00     0.090 C
HETATM   11  C13 UNL     1      11.261  32.066  76.019  1.00  0.00     0.033 C
BRANCH   8  12
HETATM   12  N2  UNL     1       8.890  31.650  74.489  1.00  0.00    -0.061 N
ATOM     13  H23 UNL     1       9.675  31.016  74.635  1.00  0.00     0.275 HD
ATOM     14  H22 UNL     1       8.175  30.978  74.213  1.00  0.00     0.275 HD
ATOM     15  H21 UNL     1       9.088  32.298  73.726  1.00  0.00     0.275 HD
ENDBRANCH   8  12
BRANCH   8  16
HETATM   16  C7  UNL     1       7.048  32.626  75.754  1.00  0.00     0.052 C
BRANCH  16  17
HETATM   17  C8  UNL     1       6.646  33.719  76.654  1.00  0.00    -0.020 C
HETATM   18  C9  UNL     1       6.018  33.359  77.963  1.00  0.00     0.009 C
HETATM   19  C10 UNL     1       5.572  34.532  75.906  1.00  0.00     0.009 C
ENDBRANCH  16  17
ENDBRANCH   8  16
ENDBRANCH   4   5
ENDBRANCH   1   4
BRANCH   1  20
HETATM   20  N3  UNL     1       8.942  34.141  80.729  1.00  0.00    -0.395 N
HETATM   21  C14 UNL     1       7.888  33.356  81.268  1.00  0.00     0.118 C
HETATM   22  C15 UNL     1       7.231  33.989  82.473  1.00  0.00     0.020 C
HETATM   23  C16 UNL     1       8.074  35.103  83.052  1.00  0.00     0.004 C
HETATM   24  C17 UNL     1       8.400  36.149  82.027  1.00  0.00     0.030 C
HETATM   25  C18 UNL     1       8.843  35.517  80.696  1.00  0.00     0.113 C
BRANCH  25  26
HETATM   26  C19 UNL     1       8.009  36.186  79.666  1.00  0.00    -0.032 A
HETATM   27  C20 UNL     1       6.717  36.632  79.859  1.00  0.00     0.054 A
HETATM   28  C21 UNL     1       5.987  37.303  78.874  1.00  0.00     0.156 A
HETATM   29  F1  UNL     1       4.705  37.715  79.131  1.00  0.00    -0.203 F
HETATM   30  C22 UNL     1       6.528  37.549  77.656  1.00  0.00     0.169 A
HETATM   31  F2  UNL     1       5.831  38.201  76.665  1.00  0.00    -0.202 F
HETATM   32  C23 UNL     1       7.816  37.121  77.419  1.00  0.00     0.090 A
HETATM   33  C25 UNL     1       8.526  36.465  78.388  1.00  0.00     0.028 A
BRANCH  32  34
HETATM   34  C24 UNL     1       8.394  37.434  76.068  1.00  0.00     0.420 C
HETATM   35  F3  UNL     1       7.756  36.577  75.200  1.00  0.00    -0.166 F
HETATM   36  F4  UNL     1       8.332  38.750  75.742  1.00  0.00    -0.166 F
HETATM   37  F5  UNL     1       9.725  36.980  76.115  1.00  0.00    -0.166 F
ENDBRANCH  32  34
ENDBRANCH  25  26
ENDBRANCH   1  20
TORSDOF 9
ENDMDL