MODEL 4
REMARK VINA RESULT: -9.488825152      1.649      1.973
REMARK  9 active torsions:
REMARK  status: ('A' for Active; 'I' for Inactive)
REMARK    1  A    between atoms: C3_3  and  N1_4
REMARK    2  A    between atoms: N1_4  and  C4_5
REMARK    3  A    between atoms: N1_4  and  C16_22
REMARK    4  A    between atoms: C5_8  and  C6_9
REMARK    5  A    between atoms: C19_25  and  N5_26
REMARK       I    between atoms: N5_26  and  C20_27
REMARK    6  A    between atoms: C20_27  and  C21_29
REMARK    7  A    between atoms: C21_29  and  N6_30
REMARK    8  A    between atoms: C21_29  and  C22_34
REMARK    9  A    between atoms: C22_34  and  C23_35
ROOT
HETATM    1  C1  UNL     1      39.131  43.930  38.629  1.00  0.00     0.014 C
HETATM    2  C2  UNL     1      39.743  43.452  37.709  1.00  0.00    -0.098 C
HETATM    3  C3  UNL     1      40.475  42.844  36.627  1.00  0.00     0.218 C
ENDROOT
BRANCH   3   4
HETATM    4  N1  UNL     1      39.670  41.941  35.765  1.00  0.00    -0.351 N
BRANCH   4   5
HETATM    5  C4  UNL     1      39.019  42.600  34.704  1.00  0.00     0.118 A
HETATM    6  N2  UNL     1      39.448  43.844  34.308  1.00  0.00    -0.331 N
HETATM    7  C5  UNL     1      38.951  44.433  33.215  1.00  0.00     0.087 A
ATOM      8  H2  UNL     1      40.159  44.326  34.857  1.00  0.00     0.168 HD
HETATM    9  N3  UNL     1      38.017  43.844  32.468  1.00  0.00    -0.345 N
HETATM   10  C9  UNL     1      37.538  42.639  32.783  1.00  0.00     0.049 A
ATOM     11  H3  UNL     1      37.661  44.323  31.640  1.00  0.00     0.167 HD
HETATM   12  C10 UNL     1      36.573  42.039  32.018  1.00  0.00     0.053 A
HETATM   13  C15 UNL     1      38.058  42.015  33.930  1.00  0.00     0.035 A
HETATM   14  C11 UNL     1      36.063  40.799  32.324  1.00  0.00     0.046 A
HETATM   15  C12 UNL     1      35.048  40.172  31.487  1.00  0.00     0.099 C
HETATM   16  C13 UNL     1      36.561  40.169  33.448  1.00  0.00     0.024 A
HETATM   17  N4  UNL     1      34.249  39.658  30.833  1.00  0.00    -0.191 NA
HETATM   18  C14 UNL     1      37.524  40.778  34.206  1.00  0.00     0.019 A
BRANCH   7  19
HETATM   19  C6  UNL     1      39.435  45.794  32.763  1.00  0.00     0.053 A
HETATM   20  C7  UNL     1      38.669  46.999  33.103  1.00  0.00     0.013 A
HETATM   21  C8  UNL     1      38.612  46.446  31.685  1.00  0.00     0.013 A
ENDBRANCH   7  19
ENDBRANCH   4   5
BRANCH   4  22
HETATM   22  C16 UNL     1      39.634  40.564  36.126  1.00  0.00     0.087 C
HETATM   23  C17 UNL     1      40.935  39.911  35.676  1.00  0.00     0.032 C
HETATM   24  C18 UNL     1      40.908  38.444  35.857  1.00  0.00     0.070 C
HETATM   25  C19 UNL     1      40.485  37.968  37.249  1.00  0.00     0.066 C
HETATM   26  C24 UNL     1      39.608  38.865  38.012  1.00  0.00     0.070 C
HETATM   27  C25 UNL     1      39.260  40.210  37.506  1.00  0.00     0.032 C
BRANCH  25  28
HETATM   28  N5  UNL     1      40.217  36.599  37.192  1.00  0.00    -0.378 NA
HETATM   29  C20 UNL     1      39.949  35.279  37.164  1.00  0.00     0.322 C
HETATM   30  O1  UNL     1      39.424  34.555  38.091  1.00  0.00    -0.255 OA
BRANCH  29  31
HETATM   31  C21 UNL     1      40.260  34.438  35.948  1.00  0.00     0.290 C
BRANCH  31  32
HETATM   32  N6  UNL     1      40.162  33.018  36.331  1.00  0.00    -0.065 N
ATOM     33  H63 UNL     1      40.873  32.441  35.881  1.00  0.00     0.275 HD
ATOM     34  H62 UNL     1      40.440  32.852  37.298  1.00  0.00     0.275 HD
ATOM     35  H61 UNL     1      39.213  32.698  36.135  1.00  0.00     0.275 HD
ENDBRANCH  31  32
BRANCH  31  36
HETATM   36  C22 UNL     1      41.601  34.697  35.393  1.00  0.00     0.059 C
BRANCH  36  37
HETATM   37  C23 UNL     1      42.815  34.347  36.152  1.00  0.00     0.117 C
HETATM   38 CL1  UNL     1      43.638  35.661  36.972  1.00  0.00    -0.130 Cl
ENDBRANCH  36  37
ENDBRANCH  31  36
ENDBRANCH  29  31
ENDBRANCH  25  28
ENDBRANCH   4  22
ENDBRANCH   3   4
TORSDOF 9
ENDMDL