MODEL 2
REMARK VINA RESULT: -8.782286767      0.038      2.242
REMARK  8 active torsions:
REMARK  status: ('A' for Active; 'I' for Inactive)
REMARK    1  A    between atoms: O1_2  and  C2_3
REMARK    2  A    between atoms: C4_5  and  C5_6
REMARK    3  A    between atoms: C5_6  and  N1_7
REMARK    4  A    between atoms: C5_6  and  C12_18
REMARK       I    between atoms: N1_7  and  C6_9
REMARK    5  A    between atoms: C6_9  and  C7_11
REMARK       I    between atoms: C12_18  and  N3_20
REMARK    6  A    between atoms: N3_20  and  C13_22
REMARK    7  A    between atoms: C20_29  and  O4_30
REMARK    8  A    between atoms: C22_32  and  O5_33
ROOT
HETATM    1  C5  UNL     1      37.775  40.937  33.941  1.00  0.00     0.210 C
ENDROOT
BRANCH   1   2
HETATM    2  C4  UNL     1      38.210  42.347  33.676  1.00  0.00    -0.021 A
HETATM    3  C3  UNL     1      37.622  43.121  32.700  1.00  0.00     0.049 A
HETATM    4  C2  UNL     1      38.027  44.425  32.452  1.00  0.00     0.104 A
HETATM    5  C22 UNL     1      39.050  44.999  33.191  1.00  0.00     0.135 A
HETATM    6  C20 UNL     1      39.640  44.227  34.168  1.00  0.00     0.104 A
HETATM    7  C19 UNL     1      39.227  42.933  34.402  1.00  0.00     0.049 A
BRANCH   4   8
HETATM    8  O1  UNL     1      37.438  45.191  31.478  1.00  0.00    -0.353 OA
HETATM    9  C1  UNL     1      36.553  44.618  30.563  1.00  0.00     0.210 C
ENDBRANCH   4   8
BRANCH   5  10
HETATM   10  O5  UNL     1      39.469  46.306  32.954  1.00  0.00    -0.351 OA
HETATM   11  C23 UNL     1      38.773  47.372  33.573  1.00  0.00     0.210 C
ENDBRANCH   5  10
BRANCH   6  12
HETATM   12  O4  UNL     1      40.673  44.805  34.913  1.00  0.00    -0.353 OA
HETATM   13  C21 UNL     1      41.975  44.290  34.727  1.00  0.00     0.210 C
ENDBRANCH   6  12
ENDBRANCH   1   2
BRANCH   1  14
HETATM   14  N1  UNL     1      36.349  40.824  34.062  1.00  0.00    -0.339 N
HETATM   15  C6  UNL     1      35.593  40.086  33.106  1.00  0.00     0.255 C
HETATM   16  O2  UNL     1      36.209  39.524  32.138  1.00  0.00    -0.268 OA
ATOM     17  H1  UNL     1      35.872  41.278  34.840  1.00  0.00     0.164 HD
BRANCH  15  18
HETATM   18  C7  UNL     1      34.156  39.930  33.161  1.00  0.00     0.070 A
HETATM   19  C8  UNL     1      33.282  40.138  34.204  1.00  0.00     0.108 A
HETATM   20  N2  UNL     1      32.023  39.871  33.823  1.00  0.00    -0.368 N
HETATM   21  C9  UNL     1      30.860  39.987  34.678  1.00  0.00     0.154 C
HETATM   22  C10 UNL     1      32.046  39.485  32.531  1.00  0.00     0.114 A
HETATM   23  C11 UNL     1      33.371  39.517  32.107  1.00  0.00     0.066 A
HETATM   24 CL1  UNL     1      33.960  39.107  30.509  1.00  0.00    -0.082 Cl
ENDBRANCH  15  18
ENDBRANCH   1  14
BRANCH   1  25
HETATM   25  C12 UNL     1      38.486  40.428  35.142  1.00  0.00     0.245 C
HETATM   26  O3  UNL     1      38.038  40.586  36.308  1.00  0.00    -0.271 OA
HETATM   27  N3  UNL     1      39.713  39.737  35.004  1.00  0.00    -0.354 N
ATOM     28  H3  UNL     1      40.092  39.600  34.066  1.00  0.00     0.162 HD
BRANCH  27  29
HETATM   29  C13 UNL     1      40.458  39.214  36.132  1.00  0.00     0.084 C
HETATM   30  C14 UNL     1      39.901  37.874  36.477  1.00  0.00     0.025 C
HETATM   31  C15 UNL     1      40.948  36.850  36.828  1.00  0.00     0.002 C
HETATM   32  C16 UNL     1      42.085  37.496  37.591  1.00  0.00     0.000 C
HETATM   33  C17 UNL     1      42.789  38.391  36.615  1.00  0.00     0.002 C
HETATM   34  C18 UNL     1      41.907  39.230  35.772  1.00  0.00     0.025 C
ENDBRANCH  27  29
ENDBRANCH   1  25
TORSDOF 8
ENDMDL