MODEL 3
REMARK VINA RESULT: -7.433883241      0.729      1.058
REMARK  9 active torsions:
REMARK  status: ('A' for Active; 'I' for Inactive)
REMARK    1  A    between atoms: C3_3  and  C4_4
REMARK    2  A    between atoms: C9_10  and  S1_11
REMARK    3  A    between atoms: S1_11  and  N1_13
REMARK    4  A    between atoms: S1_11  and  C14_20
REMARK       I    between atoms: N1_13  and  C10_15
REMARK    5  A    between atoms: C10_15  and  C11_17
REMARK    6  A    between atoms: C14_20  and  C16_22
REMARK    7  A    between atoms: C16_22  and  O3_24
REMARK    8  A    between atoms: C16_22  and  C18_26
REMARK    9  A    between atoms: C18_26  and  N2_27
ROOT
HETATM    1  C1  UNL     1      40.901  45.055  34.502  1.00  0.00     0.112 C
HETATM    2  C2  UNL     1      39.892  44.057  34.199  1.00  0.00    -0.105 C
HETATM    3  C3  UNL     1      39.045  43.247  33.935  1.00  0.00    -0.066 C
ENDROOT
BRANCH   3   4
HETATM    4  C4  UNL     1      38.015  42.292  33.649  1.00  0.00     0.037 A
HETATM    5  C5  UNL     1      37.027  42.704  32.800  1.00  0.00     0.024 A
HETATM    6  C6  UNL     1      36.016  41.855  32.436  1.00  0.00     0.025 A
HETATM    7  C7  UNL     1      36.025  40.587  32.945  1.00  0.00     0.035 A
HETATM    8 CL1  UNL     1      34.752  39.439  32.523  1.00  0.00    -0.084 Cl
HETATM    9  C8  UNL     1      37.026  40.196  33.794  1.00  0.00     0.047 A
HETATM   10  C9  UNL     1      38.021  40.990  34.173  1.00  0.00     0.059 A
BRANCH  10  11
HETATM   11  S1  UNL     1      39.513  40.615  35.332  1.00  0.00     0.067 S
HETATM   12  O1  UNL     1      40.321  40.021  34.077  1.00  0.00    -0.244 OA
BRANCH  11  13
HETATM   13  N1  UNL     1      39.590  39.046  36.282  1.00  0.00    -0.282 N
HETATM   14  C10 UNL     1      40.295  37.864  36.337  1.00  0.00     0.232 C
HETATM   15  O2  UNL     1      41.220  37.573  35.580  1.00  0.00    -0.272 OA
ATOM     16  H1  UNL     1      38.876  39.052  37.010  1.00  0.00     0.178 HD
BRANCH  14  17
HETATM   17  C11 UNL     1      39.998  36.781  37.348  1.00  0.00     0.070 C
HETATM   18  C12 UNL     1      41.276  36.059  37.641  1.00  0.00     0.019 C
HETATM   19  C13 UNL     1      39.325  37.283  38.562  1.00  0.00     0.019 C
ENDBRANCH  14  17
ENDBRANCH  11  13
BRANCH  11  20
HETATM   20  C14 UNL     1      38.772  41.568  36.732  1.00  0.00     0.124 C
HETATM   21  C15 UNL     1      38.015  40.668  37.733  1.00  0.00     0.028 C
BRANCH  20  22
HETATM   22  C16 UNL     1      39.737  42.341  37.681  1.00  0.00     0.096 C
HETATM   23  C17 UNL     1      39.251  42.054  39.123  1.00  0.00     0.049 C
BRANCH  22  24
HETATM   24  O3  UNL     1      39.653  43.671  37.509  1.00  0.00    -0.387 OA
ATOM     25  H3  UNL     1      40.510  44.079  37.473  1.00  0.00     0.210 HD
ENDBRANCH  22  24
BRANCH  22  26
HETATM   26  C18 UNL     1      41.091  41.802  37.591  1.00  0.00     0.310 C
BRANCH  26  27
HETATM   27  N2  UNL     1      41.657  41.399  38.852  1.00  0.00     0.092 N
HETATM   28  C19 UNL     1      42.064  39.972  38.733  1.00  0.00     0.282 C
HETATM   29  C20 UNL     1      42.970  39.557  39.877  1.00  0.00     0.104 C
HETATM   30  S2  UNL     1      44.624  40.231  39.372  1.00  0.00    -0.166 SA
HETATM   31  C21 UNL     1      44.081  41.753  38.464  1.00  0.00     0.104 C
HETATM   32  C22 UNL     1      42.817  42.164  39.243  1.00  0.00     0.282 C
ENDBRANCH  26  27
ENDBRANCH  22  26
ENDBRANCH  20  22
ENDBRANCH  11  20
ENDBRANCH  10  11
ENDBRANCH   3   4
TORSDOF 9
ENDMDL