MODEL 2
REMARK VINA RESULT: -8.224748192      1.548      1.747
REMARK  11 active torsions:
REMARK  status: ('A' for Active; 'I' for Inactive)
REMARK    1  A    between atoms: S1_2  and  C2_3
REMARK    2  A    between atoms: N1_6  and  C5_7
REMARK    3  A    between atoms: C5_7  and  O1_8
REMARK    4  A    between atoms: C5_7  and  C6_10
REMARK    5  A    between atoms: C6_10  and  C7_11
REMARK    6  A    between atoms: C6_10  and  N3_23
REMARK    7  A    between atoms: C7_11  and  C8_12
REMARK    8  A    between atoms: C8_12  and  C9_13
REMARK       I    between atoms: C9_13  and  N2_15
REMARK    9  A    between atoms: N2_15  and  C10_17
REMARK   10  A    between atoms: N3_23  and  N4_24
REMARK   11  A    between atoms: N4_24  and  C15_26
ROOT
HETATM    1  C6  UNL     1      40.019  42.294  35.225  1.00  0.00     0.159 C
ENDROOT
BRANCH   1   2
HETATM    2  C5  UNL     1      41.215  41.820  35.912  1.00  0.00     0.177 C
BRANCH   2   3
HETATM    3  N1  UNL     1      41.502  40.690  36.631  1.00  0.00    -0.359 N
HETATM    4  C4  UNL     1      41.533  40.508  38.037  1.00  0.00     0.126 C
HETATM    5  C3  UNL     1      41.641  39.032  38.454  1.00  0.00     0.035 C
HETATM    6  C2  UNL     1      40.764  38.127  37.644  1.00  0.00     0.050 C
HETATM    7  C22 UNL     1      40.846  38.389  36.161  1.00  0.00     0.035 C
HETATM    8  C21 UNL     1      41.858  39.455  35.857  1.00  0.00     0.126 C
BRANCH   6   9
HETATM    9  S1  UNL     1      41.196  36.398  38.032  1.00  0.00    -0.169 SA
HETATM   10  C1  UNL     1      39.662  35.453  38.299  1.00  0.00     0.090 C
ENDBRANCH   6   9
ENDBRANCH   2   3
BRANCH   2  11
HETATM   11  O1  UNL     1      42.211  42.688  35.780  1.00  0.00    -0.344 OA
ATOM     12  H1  UNL     1      41.957  43.603  35.727  1.00  0.00     0.219 HD
ENDBRANCH   2  11
ENDBRANCH   1   2
BRANCH   1  13
HETATM   13  C7  UNL     1      38.791  41.464  35.110  1.00  0.00     0.089 C
BRANCH  13  14
HETATM   14  C8  UNL     1      38.377  40.981  33.790  1.00  0.00     0.110 C
BRANCH  14  15
HETATM   15  C9  UNL     1      37.039  40.359  33.756  1.00  0.00     0.218 C
HETATM   16  O2  UNL     1      36.379  40.171  34.779  1.00  0.00    -0.274 OA
HETATM   17  N2  UNL     1      36.482  39.958  32.462  1.00  0.00    -0.356 N
ATOM     18  H2  UNL     1      37.003  40.104  31.597  1.00  0.00     0.162 HD
BRANCH  17  19
HETATM   19  C10 UNL     1      35.188  39.359  32.451  1.00  0.00     0.088 C
HETATM   20  C11 UNL     1      34.155  40.463  32.820  1.00  0.00     0.051 C
HETATM   21  C12 UNL     1      32.811  39.764  32.842  1.00  0.00     0.169 C
HETATM   22  O3  UNL     1      32.428  39.345  31.584  1.00  0.00    -0.391 OA
HETATM   23  C13 UNL     1      33.450  39.443  30.650  1.00  0.00     0.169 C
HETATM   24  C14 UNL     1      34.738  38.804  31.131  1.00  0.00     0.051 C
ENDBRANCH  17  19
ENDBRANCH  14  15
ENDBRANCH  13  14
ENDBRANCH   1  13
BRANCH   1  25
HETATM   25  N3  UNL     1      40.028  43.424  34.802  1.00  0.00    -0.326 NA
BRANCH  25  26
HETATM   26  N4  UNL     1      40.044  44.603  34.341  1.00  0.00    -0.236 N
ATOM     27  H4  UNL     1      40.730  45.262  34.709  1.00  0.00     0.202 HD
BRANCH  26  28
HETATM   28  C15 UNL     1      39.126  45.058  33.306  1.00  0.00     0.062 A
HETATM   29  C16 UNL     1      39.184  46.365  32.935  1.00  0.00     0.032 A
HETATM   30  C17 UNL     1      38.319  46.806  31.968  1.00  0.00     0.004 A
HETATM   31  C18 UNL     1      37.412  45.910  31.394  1.00  0.00     0.024 A
HETATM   32  C19 UNL     1      37.366  44.595  31.779  1.00  0.00     0.036 A
HETATM   33 CL1  UNL     1      36.253  43.444  31.103  1.00  0.00    -0.084 Cl
HETATM   34  C20 UNL     1      38.235  44.171  32.745  1.00  0.00     0.055 A
ENDBRANCH  26  28
ENDBRANCH  25  26
ENDBRANCH   1  25
TORSDOF 11
ENDMDL