MODEL 3
REMARK VINA RESULT: -7.589685038      3.966      8.138
REMARK  9 active torsions:
REMARK  status: ('A' for Active; 'I' for Inactive)
REMARK    1  A    between atoms: O1_1  and  C1_3
REMARK    2  A    between atoms: C1_3  and  N2_23
REMARK    3  A    between atoms: C2_4  and  S1_5
REMARK    4  A    between atoms: S1_5  and  C3_6
REMARK    5  A    between atoms: C6_11  and  C7_12
REMARK       I    between atoms: C7_12  and  N1_14
REMARK    6  A    between atoms: N1_14  and  C8_16
REMARK    7  A    between atoms: C8_16  and  C9_17
REMARK    8  A    between atoms: C9_17  and  C10_18
REMARK    9  A    between atoms: N2_23  and  C14_25
ROOT
HETATM    1  C3  UNL     1      39.385  43.180  34.295  1.00  0.00     0.049 A
HETATM    2  C4  UNL     1      40.303  44.044  34.764  1.00  0.00     0.059 A
HETATM    3 CL1  UNL     1      41.461  43.716  36.104  1.00  0.00    -0.082 Cl
HETATM    4  C5  UNL     1      40.311  45.318  34.247  1.00  0.00     0.075 A
HETATM    5  S2  UNL     1      39.052  45.287  33.134  1.00  0.00    -0.093 SA
HETATM    6  C6  UNL     1      38.514  43.631  33.333  1.00  0.00     0.091 A
ENDROOT
BRANCH   1   7
HETATM    7  S1  UNL     1      39.294  41.447  34.838  1.00  0.00    -0.095 SA
BRANCH   7   8
HETATM    8  C2  UNL     1      38.664  41.259  36.457  1.00  0.00     0.105 C
HETATM    9  C1  UNL     1      39.061  40.229  37.369  1.00  0.00     0.142 C
BRANCH   9  10
HETATM   10  O1  UNL     1      38.247  40.058  38.388  1.00  0.00    -0.346 OA
ATOM     11  H1  UNL     1      38.490  39.350  38.972  1.00  0.00     0.219 HD
ENDBRANCH   9  10
BRANCH   9  12
HETATM   12  N2  UNL     1      40.154  39.362  37.408  1.00  0.00    -0.364 N
ATOM     13  H2  UNL     1      41.017  39.727  37.810  1.00  0.00     0.162 HD
BRANCH  12  14
HETATM   14  C14 UNL     1      40.181  37.992  36.932  1.00  0.00     0.116 C
HETATM   15  C15 UNL     1      41.216  37.811  35.827  1.00  0.00     0.297 C
HETATM   16  N3  UNL     1      41.700  36.450  35.904  1.00  0.00     0.090 N
HETATM   17  C16 UNL     1      40.659  35.480  36.189  1.00  0.00     0.273 C
HETATM   18  C20 UNL     1      42.686  36.318  36.973  1.00  0.00     0.273 C
HETATM   19  C17 UNL     1      40.134  35.660  37.616  1.00  0.00     0.037 C
HETATM   20  C18 UNL     1      40.562  37.041  38.042  1.00  0.00     0.013 C
HETATM   21  C19 UNL     1      42.092  36.984  38.187  1.00  0.00     0.037 C
ENDBRANCH  12  14
ENDBRANCH   9  12
ENDBRANCH   7   8
ENDBRANCH   1   7
BRANCH   6  22
HETATM   22  C7  UNL     1      37.389  43.068  32.610  1.00  0.00     0.259 C
HETATM   23  O2  UNL     1      36.570  43.891  32.081  1.00  0.00    -0.267 OA
HETATM   24  N1  UNL     1      37.111  41.729  32.435  1.00  0.00    -0.356 N
ATOM     25  H1  UNL     1      37.743  41.037  32.836  1.00  0.00     0.162 HD
BRANCH  24  26
HETATM   26  C8  UNL     1      35.924  41.265  31.685  1.00  0.00     0.128 C
BRANCH  26  27
HETATM   27  C9  UNL     1      35.583  39.851  32.059  1.00  0.00     0.066 C
BRANCH  27  28
HETATM   28  C10 UNL     1      34.154  39.783  32.522  1.00  0.00    -0.016 A
HETATM   29  C11 UNL     1      33.050  39.450  31.777  1.00  0.00     0.015 A
HETATM   30  C12 UNL     1      31.866  39.447  32.398  1.00  0.00     0.008 A
HETATM   31  C13 UNL     1      31.852  39.775  33.729  1.00  0.00     0.050 A
HETATM   32  S3  UNL     1      33.496  40.077  34.064  1.00  0.00    -0.106 SA
ENDBRANCH  27  28
ENDBRANCH  26  27
ENDBRANCH  24  26
ENDBRANCH   6  22
TORSDOF 9
ENDMDL