MODEL 3
REMARK VINA RESULT: -7.759907127      2.424      3.871
REMARK  9 active torsions:
REMARK  status: ('A' for Active; 'I' for Inactive)
REMARK    1  A    between atoms: C2_2  and  C4_4
REMARK    2  A    between atoms: C4_4  and  N1_5
REMARK    3  A    between atoms: N1_5  and  C22_33
REMARK    4  A    between atoms: C5_6  and  C6_7
REMARK    5  A    between atoms: C6_7  and  C7_8
REMARK    6  A    between atoms: C6_7  and  N3_14
REMARK    7  A    between atoms: C7_8  and  O1_9
REMARK    8  A    between atoms: C7_8  and  N2_11
REMARK    9  A    between atoms: C9_17  and  C10_18
ROOT
HETATM    1  N3  UNL     1      40.614  40.206  36.494  1.00  0.00    -0.276 N
HETATM    2  C8  UNL     1      39.703  40.025  35.388  1.00  0.00     0.252 A
HETATM    3  O4  UNL     1      39.162  38.884  35.237  1.00  0.00    -0.270 OA
HETATM    4  C9  UNL     1      39.326  41.037  34.402  1.00  0.00     0.179 A
HETATM    5  N4  UNL     1      39.902  42.327  34.675  1.00  0.00    -0.374 N
ATOM      6  H4  UNL     1      39.667  43.112  34.067  1.00  0.00     0.160 HD
HETATM    7  C16 UNL     1      40.773  42.539  35.748  1.00  0.00     0.059 A
HETATM    8  C17 UNL     1      41.269  43.842  35.900  1.00  0.00     0.073 A
HETATM    9  C18 UNL     1      42.115  44.130  36.934  1.00  0.00     0.118 A
HETATM   10  F1  UNL     1      42.566  45.418  37.036  1.00  0.00    -0.206 F
HETATM   11  C19 UNL     1      42.483  43.151  37.825  1.00  0.00     0.044 A
HETATM   12  C20 UNL     1      41.960  41.861  37.630  1.00  0.00     0.035 A
HETATM   13  C21 UNL     1      41.113  41.529  36.611  1.00  0.00     0.069 A
ENDROOT
BRANCH   1  14
HETATM   14  C6  UNL     1      41.004  39.136  37.366  1.00  0.00     0.089 C
BRANCH  14  15
HETATM   15  C5  UNL     1      41.961  38.161  36.704  1.00  0.00     0.116 C
HETATM   16  N1  UNL     1      43.106  37.760  37.289  1.00  0.00    -0.383 N
BRANCH  16  17
HETATM   17  C4  UNL     1      43.768  36.628  36.736  1.00  0.00     0.126 C
BRANCH  17  18
HETATM   18  C2  UNL     1      43.363  35.262  37.095  1.00  0.00    -0.005 C
HETATM   19  C1  UNL     1      44.558  34.293  37.049  1.00  0.00     0.011 C
HETATM   20  C3  UNL     1      42.309  34.598  36.257  1.00  0.00     0.011 C
ENDBRANCH  17  18
ENDBRANCH  16  17
BRANCH  16  21
HETATM   21  C22 UNL     1      43.970  38.433  38.142  1.00  0.00     0.084 A
HETATM   22  C23 UNL     1      43.695  38.071  39.645  1.00  0.00     0.027 A
HETATM   23  C24 UNL     1      45.023  37.949  39.022  1.00  0.00     0.027 A
ENDBRANCH  16  21
ENDBRANCH  14  15
BRANCH  14  24
HETATM   24  C7  UNL     1      40.018  38.583  38.309  1.00  0.00     0.341 C
BRANCH  24  25
HETATM   25  O1  UNL     1      38.752  39.247  38.184  1.00  0.00    -0.366 OA
ATOM     26  H1  UNL     1      38.409  39.169  37.302  1.00  0.00     0.212 HD
ENDBRANCH  24  25
BRANCH  24  27
HETATM   27  N2  UNL     1      39.619  37.182  38.066  1.00  0.00    -0.118 N
HETATM   28  O2  UNL     1      38.716  36.873  37.319  1.00  0.00    -0.534 OA
HETATM   29  O3  UNL     1      40.361  36.220  38.767  1.00  0.00    -0.534 OA
ENDBRANCH  24  27
ENDBRANCH  14  24
ENDBRANCH   1  14
BRANCH   4  30
HETATM   30  C10 UNL     1      37.813  41.268  34.384  1.00  0.00     0.017 C
HETATM   31  C11 UNL     1      37.040  40.168  33.726  1.00  0.00     0.007 C
HETATM   32  C12 UNL     1      35.665  40.760  33.351  1.00  0.00     0.000 C
HETATM   33  C13 UNL     1      35.828  41.591  32.105  1.00  0.00     0.000 C
HETATM   34  C14 UNL     1      37.246  42.081  32.088  1.00  0.00     0.000 C
HETATM   35  C15 UNL     1      37.613  42.506  33.497  1.00  0.00     0.007 C
ENDBRANCH   4  30
TORSDOF 9
ENDMDL