MODEL 4
REMARK VINA RESULT: -8.672962897      1.123      1.317
REMARK  11 active torsions:
REMARK  status: ('A' for Active; 'I' for Inactive)
REMARK    1  A    between atoms: C2_2  and  C3_3
REMARK    2  A    between atoms: C8_8  and  O1_9
REMARK    3  A    between atoms: O1_9  and  C9_10
REMARK    4  A    between atoms: C9_10  and  C10_12
REMARK    5  A    between atoms: C10_12  and  C11_13
REMARK    6  A    between atoms: C11_13  and  C12_14
REMARK    7  A    between atoms: C13_15  and  C14_16
REMARK    8  A    between atoms: C15_19  and  O5_20
REMARK    9  A    between atoms: O5_20  and  C16_21
REMARK   10  A    between atoms: C16_21  and  C17_23
REMARK   11  A    between atoms: C24_31  and  O7_32
ROOT
HETATM    1  C1  UNL     1      43.091  41.112  37.862  1.00  0.00     0.022 C
HETATM    2  C2  UNL     1      42.184  40.643  38.980  1.00  0.00     0.003 C
HETATM    3  C6  UNL     1      42.109  39.159  38.886  1.00  0.00    -0.016 C
HETATM    4  C7  UNL     1      41.141  38.324  38.523  1.00  0.00     0.005 C
HETATM    5  C8  UNL     1      39.765  38.713  38.078  1.00  0.00     0.184 C
HETATM    6  C15 UNL     1      39.942  39.761  37.001  1.00  0.00     0.168 C
HETATM    7  C23 UNL     1      40.194  41.131  37.528  1.00  0.00     0.068 C
HETATM    8  C24 UNL     1      40.797  41.206  38.884  1.00  0.00     0.133 C
ENDROOT
BRANCH   5   9
HETATM    9  O1  UNL     1      39.064  37.596  37.559  1.00  0.00    -0.309 OA
BRANCH   9  10
HETATM   10  C9  UNL     1      38.759  36.485  38.330  1.00  0.00     0.259 C
HETATM   11  O2  UNL     1      37.974  36.682  39.311  1.00  0.00    -0.265 OA
BRANCH  10  12
HETATM   12  C10 UNL     1      39.320  35.141  38.029  1.00  0.00     0.115 C
BRANCH  12  13
HETATM   13  C11 UNL     1      39.816  35.120  36.607  1.00  0.00     0.037 C
BRANCH  13  14
HETATM   14  C12 UNL     1      41.185  34.535  36.563  1.00  0.00    -0.019 C
HETATM   15  C13 UNL     1      42.273  35.263  36.567  1.00  0.00     0.080 C
BRANCH  15  16
HETATM   16  C14 UNL     1      43.571  34.627  36.520  1.00  0.00     0.198 C
HETATM   17  O3  UNL     1      43.872  33.872  35.549  1.00  0.00    -0.645 OA
HETATM   18  O4  UNL     1      44.532  34.798  37.498  1.00  0.00    -0.645 OA
ENDBRANCH  15  16
ENDBRANCH  13  14
ENDBRANCH  12  13
ENDBRANCH  10  12
ENDBRANCH   9  10
ENDBRANCH   5   9
BRANCH   6  19
HETATM   19  O5  UNL     1      38.832  39.802  36.127  1.00  0.00    -0.309 OA
BRANCH  19  20
HETATM   20  C16 UNL     1      38.955  40.158  34.795  1.00  0.00     0.293 C
HETATM   21  O6  UNL     1      40.031  39.901  34.204  1.00  0.00    -0.259 OA
BRANCH  20  22
HETATM   22  C17 UNL     1      37.881  40.821  34.055  1.00  0.00     0.041 A
HETATM   23  C18 UNL     1      36.637  40.243  33.948  1.00  0.00     0.018 A
HETATM   24  C19 UNL     1      35.667  40.903  33.246  1.00  0.00     0.003 A
HETATM   25  C20 UNL     1      35.887  42.128  32.642  1.00  0.00     0.024 A
HETATM   26  C21 UNL     1      37.132  42.663  32.775  1.00  0.00     0.035 A
HETATM   27 CL1  UNL     1      37.465  44.215  32.027  1.00  0.00    -0.084 Cl
HETATM   28  C22 UNL     1      38.146  42.040  33.471  1.00  0.00     0.041 A
ENDBRANCH  20  22
ENDBRANCH  19  20
ENDBRANCH   6  19
BRANCH   2  29
HETATM   29  C3  UNL     1      42.774  40.969  40.329  1.00  0.00    -0.000 A
HETATM   30  C4  UNL     1      44.203  41.146  40.553  1.00  0.00     0.006 A
HETATM   31  C5  UNL     1      43.546  39.855  41.038  1.00  0.00     0.006 A
ENDBRANCH   2  29
BRANCH   8  32
HETATM   32  O7  UNL     1      40.793  42.569  39.258  1.00  0.00    -0.394 OA
ATOM     33  H7  UNL     1      40.751  42.651  40.204  1.00  0.00     0.210 HD
ENDBRANCH   8  32
TORSDOF 11
ENDMDL