MODEL 5
REMARK VINA RESULT: -7.999529779      1.249      1.851
REMARK  12 active torsions:
REMARK  status: ('A' for Active; 'I' for Inactive)
REMARK    1  A    between atoms: O1_2  and  C2_3
REMARK    2  A    between atoms: C7_8  and  C8_9
REMARK    3  A    between atoms: C8_9  and  O3_11
REMARK    4  A    between atoms: O3_11  and  C9_12
REMARK    5  A    between atoms: C9_12  and  C10_13
REMARK    6  A    between atoms: C10_13  and  N2_20
REMARK    7  A    between atoms: N1_14  and  C11_16
REMARK    8  A    between atoms: N2_20  and  C14_22
REMARK    9  A    between atoms: C14_22  and  C15_23
REMARK   10  A    between atoms: C15_23  and  O4_24
REMARK   11  A    between atoms: C15_23  and  C16_26
REMARK   12  A    between atoms: C16_26  and  N3_27
ROOT
HETATM    1  C10 UNL     1      39.928  40.910  37.857  1.00  0.00     0.099 C
HETATM    2  N1  UNL     1      40.470  41.719  38.640  1.00  0.00    -0.356 N
ATOM      3  H1  UNL     1      41.396  41.401  38.925  1.00  0.00     0.162 HD
ENDROOT
BRANCH   1   4
HETATM    4  C9  UNL     1      38.582  41.086  37.261  1.00  0.00     0.255 C
BRANCH   4   5
HETATM    5  O3  UNL     1      38.345  40.230  36.188  1.00  0.00    -0.310 OA
BRANCH   5   6
HETATM    6  C8  UNL     1      38.695  40.370  34.879  1.00  0.00     0.294 C
HETATM    7  O2  UNL     1      39.734  39.742  34.505  1.00  0.00    -0.259 OA
BRANCH   6   8
HETATM    8  C7  UNL     1      37.969  41.171  33.908  1.00  0.00     0.048 A
HETATM    9  C5  UNL     1      38.312  42.463  33.663  1.00  0.00    -0.046 A
HETATM   10  C4  UNL     1      37.580  43.188  32.714  1.00  0.00     0.010 A
HETATM   11  C6  UNL     1      39.429  43.132  34.369  1.00  0.00     0.049 C
HETATM   12  C3  UNL     1      36.525  42.644  32.019  1.00  0.00     0.037 A
HETATM   13  C2  UNL     1      36.189  41.334  32.278  1.00  0.00     0.069 A
HETATM   14  C23 UNL     1      36.916  40.609  33.222  1.00  0.00     0.054 A
BRANCH  13  15
HETATM   15  O1  UNL     1      35.130  40.748  31.597  1.00  0.00    -0.356 OA
HETATM   16  C1  UNL     1      34.887  39.362  31.742  1.00  0.00     0.210 C
ENDBRANCH  13  15
ENDBRANCH   6   8
ENDBRANCH   5   6
ENDBRANCH   4   5
ENDBRANCH   1   4
BRANCH   1  17
HETATM   17  N2  UNL     1      40.668  39.704  37.542  1.00  0.00    -0.376 N
ATOM     18  H2  UNL     1      41.350  39.744  36.784  1.00  0.00     0.160 HD
BRANCH  17  19
HETATM   19  C14 UNL     1      40.503  38.466  38.227  1.00  0.00     0.154 C
BRANCH  19  20
HETATM   20  C15 UNL     1      40.204  37.285  37.311  1.00  0.00     0.153 C
BRANCH  20  21
HETATM   21  O4  UNL     1      39.065  37.521  36.586  1.00  0.00    -0.392 OA
ATOM     22  H4  UNL     1      38.338  37.021  36.940  1.00  0.00     0.210 HD
ENDBRANCH  20  21
BRANCH  20  23
HETATM   23  C16 UNL     1      40.200  36.049  38.143  1.00  0.00     0.150 C
BRANCH  23  24
HETATM   24  N3  UNL     1      40.336  34.828  37.426  1.00  0.00    -0.410 N
HETATM   25  C17 UNL     1      39.144  34.285  36.877  1.00  0.00     0.117 C
HETATM   26  C18 UNL     1      39.420  32.806  36.571  1.00  0.00     0.019 C
HETATM   27  C19 UNL     1      39.663  32.627  35.089  1.00  0.00     0.002 C
HETATM   28  C20 UNL     1      40.924  33.269  34.615  1.00  0.00     0.002 C
HETATM   29  C21 UNL     1      41.114  34.679  35.086  1.00  0.00     0.019 C
HETATM   30  C22 UNL     1      41.473  34.775  36.547  1.00  0.00     0.117 C
ENDBRANCH  23  24
ENDBRANCH  20  23
ENDBRANCH  19  20
ENDBRANCH  17  19
ENDBRANCH   1  17
BRANCH   2  31
HETATM   31  C11 UNL     1      40.143  42.948  39.233  1.00  0.00     0.101 C
HETATM   32  C12 UNL     1      39.045  42.908  40.268  1.00  0.00     0.056 C
HETATM   33  C13 UNL     1      39.753  43.957  38.169  1.00  0.00     0.056 C
HETATM   34 CL1  UNL     1      41.600  43.675  40.032  1.00  0.00    -0.096 Cl
ENDBRANCH   2  31
TORSDOF 12
ENDMDL