MODEL 3
REMARK VINA RESULT: -8.693023153      4.881      7.399
REMARK  8 active torsions:
REMARK  status: ('A' for Active; 'I' for Inactive)
REMARK    1  A    between atoms: C1_2  and  C2_3
REMARK       I    between atoms: C1_2  and  N6_27
REMARK    2  A    between atoms: C2_3  and  C3_4
REMARK    3  A    between atoms: C3_4  and  C4_5
REMARK    4  A    between atoms: C4_5  and  C5_6
REMARK    5  A    between atoms: C5_6  and  N1_7
REMARK       I    between atoms: N1_7  and  C6_9
REMARK    6  A    between atoms: C6_9  and  C7_11
REMARK    7  A    between atoms: C11_23  and  C12_24
REMARK    8  A    between atoms: N6_27  and  C15_29
ROOT
HETATM    1  N1  UNL     1      39.317  45.464  33.905  1.00  0.00    -0.357 N
ATOM      2  H1  UNL     1      38.408  45.574  34.355  1.00  0.00     0.162 HD
HETATM    3  C6  UNL     1      40.332  44.812  34.617  1.00  0.00     0.255 C
HETATM    4  O2  UNL     1      41.495  44.612  34.181  1.00  0.00    -0.268 OA
ENDROOT
BRANCH   3   5
HETATM    5  C7  UNL     1      40.062  44.314  35.956  1.00  0.00     0.072 A
HETATM    6  C8  UNL     1      40.126  45.143  37.038  1.00  0.00     0.109 A
HETATM    7  N2  UNL     1      39.874  44.671  38.252  1.00  0.00    -0.347 N
HETATM    8  C9  UNL     1      39.563  43.377  38.383  1.00  0.00     0.164 A
ATOM      9  H2  UNL     1      39.918  45.281  39.068  1.00  0.00     0.167 HD
HETATM   10  C10 UNL     1      39.261  42.641  39.506  1.00  0.00     0.142 A
HETATM   11  N5  UNL     1      39.495  42.539  37.319  1.00  0.00    -0.226 N
HETATM   12 BR1  UNL     1      39.202  43.296  41.285  1.00  0.00    -0.026 Br
HETATM   13  N3  UNL     1      39.018  41.387  39.118  1.00  0.00    -0.275 N
HETATM   14  N4  UNL     1      39.168  41.371  37.823  1.00  0.00    -0.233 N
ATOM     15  H3  UNL     1      38.766  40.598  39.714  1.00  0.00     0.189 HD
ATOM     16  H4  UNL     1      39.043  40.532  37.255  1.00  0.00     0.209 HD
HETATM   17  C11 UNL     1      39.737  42.951  36.060  1.00  0.00     0.059 A
BRANCH  17  18
HETATM   18  C12 UNL     1      39.692  42.100  34.872  1.00  0.00     0.039 A
HETATM   19  C13 UNL     1      40.306  40.785  34.722  1.00  0.00     0.011 A
HETATM   20  C14 UNL     1      38.785  40.928  34.785  1.00  0.00     0.011 A
ENDBRANCH  17  18
ENDBRANCH   3   5
BRANCH   1  21
HETATM   21  C5  UNL     1      39.481  45.992  32.565  1.00  0.00     0.123 C
BRANCH  21  22
HETATM   22  C4  UNL     1      38.202  45.852  31.742  1.00  0.00     0.020 C
BRANCH  22  23
HETATM   23  C3  UNL     1      38.083  44.445  31.282  1.00  0.00     0.011 C
BRANCH  23  24
HETATM   24  C2  UNL     1      37.664  43.466  32.322  1.00  0.00     0.103 C
BRANCH  24  25
HETATM   25  C1  UNL     1      36.453  42.743  31.920  1.00  0.00     0.217 C
HETATM   26  O1  UNL     1      35.775  43.079  30.919  1.00  0.00    -0.274 OA
HETATM   27  N6  UNL     1      35.982  41.601  32.667  1.00  0.00    -0.356 N
ATOM     28  H6  UNL     1      36.492  41.279  33.490  1.00  0.00     0.162 HD
BRANCH  27  29
HETATM   29  C15 UNL     1      34.803  40.929  32.246  1.00  0.00     0.084 C
HETATM   30  C16 UNL     1      33.906  40.674  33.437  1.00  0.00     0.025 C
HETATM   31  C17 UNL     1      32.986  39.538  33.108  1.00  0.00     0.002 C
HETATM   32  C18 UNL     1      32.626  39.432  31.650  1.00  0.00     0.000 C
HETATM   33  C19 UNL     1      33.851  39.224  30.790  1.00  0.00     0.002 C
HETATM   34  C20 UNL     1      35.082  39.593  31.588  1.00  0.00     0.025 C
ENDBRANCH  27  29
ENDBRANCH  24  25
ENDBRANCH  23  24
ENDBRANCH  22  23
ENDBRANCH  21  22
ENDBRANCH   1  21
TORSDOF 8
ENDMDL