MODEL 2
REMARK VINA RESULT: -10.896690500      0.672      1.408
REMARK  3 active torsions:
REMARK  status: ('A' for Active; 'I' for Inactive)
REMARK       I    between atoms: C2_2  and  N1_4
REMARK    1  A    between atoms: N1_4  and  C3_6
REMARK    2  A    between atoms: C4_9  and  C5_10
REMARK    3  A    between atoms: C5_10  and  C6_11
ROOT
HETATM    1  C3  UNL     1      -0.557   9.320   4.446  1.00  0.00     0.138 A
HETATM    2  N2  UNL     1      -1.693   9.962   4.115  1.00  0.00    -0.330 N
ATOM      3  H2  UNL     1      -2.281  10.328   4.865  1.00  0.00     0.168 HD
HETATM    4  C4  UNL     1      -2.089  10.143   2.843  1.00  0.00     0.087 A
HETATM    5  N3  UNL     1      -1.296   9.651   1.873  1.00  0.00    -0.343 N
ATOM      6  H3  UNL     1      -1.569   9.773   0.898  1.00  0.00     0.167 HD
HETATM    7  C16 UNL     1      -0.148   9.001   2.158  1.00  0.00     0.075 A
HETATM    8  C17 UNL     1       0.266   8.810   3.458  1.00  0.00     0.104 A
HETATM    9  N4  UNL     1       1.405   8.165   3.735  1.00  0.00    -0.360 N
ATOM     10  H4  UNL     1       1.670   8.049   4.713  1.00  0.00     0.165 HD
HETATM   11  C18 UNL     1       2.230   7.654   2.775  1.00  0.00     0.101 A
HETATM   12  C19 UNL     1       1.859   7.818   1.462  1.00  0.00     0.003 A
HETATM   13  C20 UNL     1       2.664   7.319   0.460  1.00  0.00    -0.013 A
HETATM   14  C21 UNL     1       3.845   6.647   0.692  1.00  0.00     0.013 A
HETATM   15  C22 UNL     1       4.617   6.164  -0.342  1.00  0.00     0.001 A
HETATM   16  C23 UNL     1       4.201   6.356  -1.645  1.00  0.00     0.001 A
HETATM   17  C24 UNL     1       3.012   7.031  -1.890  1.00  0.00     0.012 A
HETATM   18  C25 UNL     1       2.235   7.517  -0.848  1.00  0.00    -0.025 A
HETATM   19  C26 UNL     1       1.065   8.180  -1.145  1.00  0.00     0.013 A
HETATM   20  C27 UNL     1       0.271   8.675  -0.130  1.00  0.00     0.015 A
HETATM   21  C28 UNL     1       0.671   8.492   1.166  1.00  0.00     0.005 A
ENDROOT
BRANCH   4  22
HETATM   22  C5  UNL     1      -3.356  10.861   2.527  1.00  0.00     0.115 C
BRANCH  22  23
HETATM   23  C6  UNL     1      -3.282  12.302   2.824  1.00  0.00    -0.050 A
HETATM   24  C7  UNL     1      -4.443  12.993   3.086  1.00  0.00     0.008 A
HETATM   25  C8  UNL     1      -4.431  14.347   3.371  1.00  0.00     0.013 A
HETATM   26  C9  UNL     1      -3.244  15.036   3.396  1.00  0.00    -0.026 A
HETATM   27  C10 UNL     1      -3.191  16.400   3.678  1.00  0.00     0.012 A
HETATM   28  C14 UNL     1      -2.069  14.370   3.138  1.00  0.00    -0.025 A
HETATM   29  C11 UNL     1      -2.003  17.103   3.707  1.00  0.00     0.001 A
HETATM   30  C12 UNL     1      -0.836  16.424   3.446  1.00  0.00     0.001 A
HETATM   31  C13 UNL     1      -0.880  15.088   3.169  1.00  0.00     0.012 A
HETATM   32  C15 UNL     1      -2.104  13.017   2.856  1.00  0.00     0.019 A
ENDBRANCH  22  23
ENDBRANCH   4  22
BRANCH   1  33
HETATM   33  N1  UNL     1      -0.191   9.155   5.674  1.00  0.00    -0.311 N
HETATM   34  C2  UNL     1      -0.008  10.233   6.574  1.00  0.00     0.219 C
HETATM   35  C1  UNL     1       1.266  10.990   6.517  1.00  0.00     0.117 C
HETATM   36  O1  UNL     1      -0.941  10.492   7.377  1.00  0.00    -0.274 OA
ATOM     37  H1  UNL     1      -0.027   8.207   6.010  1.00  0.00     0.170 HD
ENDBRANCH   1  33
TORSDOF 3
ENDMDL