MODEL 5
REMARK VINA RESULT: -9.945947748      0.815      2.032
REMARK  3 active torsions:
REMARK  status: ('A' for Active; 'I' for Inactive)
REMARK       I    between atoms: C1_2  and  N1_3
REMARK    1  A    between atoms: C1_2  and  C19_27
REMARK    2  A    between atoms: N1_3  and  C2_5
REMARK    3  A    between atoms: C9_17  and  C10_18
ROOT
HETATM    1  C2  UNL     1      -1.075  10.028   4.163  1.00  0.00     0.145 A
HETATM    2  N2  UNL     1      -1.207   8.830   4.778  1.00  0.00    -0.336 N
ATOM      3  H2  UNL     1      -0.971   8.764   5.768  1.00  0.00     0.168 HD
HETATM    4  C3  UNL     1      -1.636   7.720   4.149  1.00  0.00     0.182 A
HETATM    5  N3  UNL     1      -1.950   7.832   2.827  1.00  0.00    -0.349 N
ATOM      6  H3  UNL     1      -2.279   7.008   2.324  1.00  0.00     0.166 HD
HETATM    7  C4  UNL     1      -1.837   8.994   2.170  1.00  0.00     0.081 A
HETATM    8  C5  UNL     1      -1.393  10.132   2.827  1.00  0.00     0.141 A
HETATM    9  O2  UNL     1      -1.276  11.327   2.155  1.00  0.00    -0.341 OA
HETATM   10  C6  UNL     1      -1.573  11.549   0.808  1.00  0.00     0.215 A
HETATM   11  C7  UNL     1      -2.048  10.357   0.073  1.00  0.00    -0.021 A
HETATM   12  C8  UNL     1      -2.377  10.437  -1.283  1.00  0.00     0.022 A
HETATM   13  C9  UNL     1      -2.821   9.338  -1.980  1.00  0.00    -0.025 A
HETATM   14  C16 UNL     1      -2.932   8.146  -1.296  1.00  0.00     0.013 A
HETATM   15  C17 UNL     1      -2.611   8.055   0.042  1.00  0.00     0.015 A
HETATM   16  C18 UNL     1      -2.160   9.167   0.754  1.00  0.00     0.002 A
ENDROOT
BRANCH   1  17
HETATM   17  N1  UNL     1      -0.663  11.092   4.769  1.00  0.00    -0.306 N
HETATM   18  C1  UNL     1      -1.682  11.826   5.524  1.00  0.00     0.258 C
HETATM   19  O1  UNL     1      -1.951  11.308   6.616  1.00  0.00    -0.267 OA
ATOM     20  H1  UNL     1       0.308  11.400   4.724  1.00  0.00     0.170 HD
BRANCH  18  21
HETATM   21  C19 UNL     1      -2.244  13.022   4.951  1.00  0.00     0.043 A
HETATM   22  C20 UNL     1      -3.628  13.075   4.733  1.00  0.00     0.018 A
HETATM   23  C21 UNL     1      -4.224  14.172   4.164  1.00  0.00     0.002 A
HETATM   24  C22 UNL     1      -3.495  15.254   3.788  1.00  0.00     0.012 A
HETATM   25  C23 UNL     1      -2.131  15.237   3.986  1.00  0.00    -0.025 A
HETATM   26  C24 UNL     1      -1.399  16.351   3.605  1.00  0.00     0.012 A
HETATM   27  C28 UNL     1      -1.526  14.114   4.569  1.00  0.00    -0.010 A
HETATM   28  C25 UNL     1      -0.050  16.404   3.782  1.00  0.00     0.001 A
HETATM   29  C26 UNL     1       0.553  15.305   4.355  1.00  0.00     0.001 A
HETATM   30  C27 UNL     1      -0.171  14.176   4.744  1.00  0.00     0.013 A
ENDBRANCH  18  21
ENDBRANCH   1  17
BRANCH  13  31
HETATM   31  C10 UNL     1      -3.168   9.429  -3.413  1.00  0.00    -0.026 A
HETATM   32  C11 UNL     1      -4.051   8.550  -4.003  1.00  0.00     0.012 A
HETATM   33  C12 UNL     1      -4.354   8.663  -5.346  1.00  0.00     0.001 A
HETATM   34  C13 UNL     1      -3.797   9.640  -6.146  1.00  0.00     0.000 A
HETATM   35  C14 UNL     1      -2.912  10.521  -5.559  1.00  0.00     0.001 A
HETATM   36  C15 UNL     1      -2.613  10.405  -4.219  1.00  0.00     0.012 A
ENDBRANCH  13  31
TORSDOF 3
ENDMDL