MODEL 3
REMARK VINA RESULT: -9.835553843      2.062      4.216
REMARK  2 active torsions:
REMARK  status: ('A' for Active; 'I' for Inactive)
REMARK    1  A    between atoms: C7_9  and  C8_10
REMARK       I    between atoms: C8_10  and  N2_12
REMARK    2  A    between atoms: N2_12  and  C9_14
ROOT
HETATM    1  C1  UNL     1      -5.214   8.061  -4.763  1.00  0.00     0.050 C
HETATM    2  C2  UNL     1      -4.016   8.857  -4.523  1.00  0.00    -0.033 A
HETATM    3  C3  UNL     1      -3.205   9.175  -5.619  1.00  0.00     0.052 A
HETATM    4  C4  UNL     1      -2.078   9.928  -5.376  1.00  0.00     0.059 A
HETATM    5  N1  UNL     1      -1.755  10.351  -4.138  1.00  0.00    -0.354 N
ATOM      6  H1  UNL     1      -0.910  10.908  -4.002  1.00  0.00     0.166 HD
HETATM    7  C5  UNL     1      -2.527  10.051  -3.078  1.00  0.00     0.044 A
HETATM    8  C6  UNL     1      -2.173  10.498  -1.803  1.00  0.00     0.047 A
HETATM    9  C7  UNL     1      -2.919  10.222  -0.694  1.00  0.00     0.034 A
HETATM   10  C19 UNL     1      -4.055   9.473  -0.884  1.00  0.00     0.018 A
HETATM   11  C20 UNL     1      -4.444   9.007  -2.136  1.00  0.00     0.015 A
HETATM   12  C21 UNL     1      -3.674   9.299  -3.242  1.00  0.00    -0.002 A
HETATM   13  C22 UNL     1      -1.218  10.269  -6.523  1.00  0.00     0.006 A
HETATM   14  C23 UNL     1      -0.077  11.028  -6.297  1.00  0.00     0.014 A
HETATM   15  C24 UNL     1       0.776  11.384  -7.331  1.00  0.00     0.001 A
HETATM   16  C25 UNL     1       0.502  10.980  -8.637  1.00  0.00     0.001 A
HETATM   17  C26 UNL     1      -0.623  10.231  -8.861  1.00  0.00     0.016 A
HETATM   18  C27 UNL     1      -1.473   9.880  -7.818  1.00  0.00     0.031 A
HETATM   19  C28 UNL     1      -2.656   9.082  -8.107  1.00  0.00     0.233 A
HETATM   20  O2  UNL     1      -2.870   8.738  -9.291  1.00  0.00    -0.283 OA
HETATM   21  C29 UNL     1      -3.512   8.741  -6.978  1.00  0.00     0.235 A
HETATM   22  O3  UNL     1      -4.522   8.061  -7.223  1.00  0.00    -0.283 OA
ENDROOT
BRANCH   9  23
HETATM   23  C8  UNL     1      -2.551  10.695   0.664  1.00  0.00     0.256 C
HETATM   24  O1  UNL     1      -2.209  11.906   0.775  1.00  0.00    -0.267 OA
HETATM   25  N2  UNL     1      -2.577   9.861   1.775  1.00  0.00    -0.323 N
ATOM     26  H2  UNL     1      -2.870   8.899   1.607  1.00  0.00     0.169 HD
BRANCH  25  27
HETATM   27  C9  UNL     1      -2.249  10.186   3.100  1.00  0.00     0.035 A
HETATM   28  C10 UNL     1      -3.130  10.649   4.047  1.00  0.00     0.030 A
HETATM   29  C11 UNL     1      -2.723  10.932   5.357  1.00  0.00     0.014 A
HETATM   30  C12 UNL     1      -1.420  10.756   5.746  1.00  0.00    -0.026 A
HETATM   31  C13 UNL     1      -1.021  11.037   7.045  1.00  0.00     0.012 A
HETATM   32  C17 UNL     1      -0.514  10.295   4.824  1.00  0.00    -0.024 A
HETATM   33  C14 UNL     1       0.289  10.857   7.422  1.00  0.00     0.001 A
HETATM   34  C15 UNL     1       1.190  10.393   6.482  1.00  0.00     0.001 A
HETATM   35  C16 UNL     1       0.826  10.108   5.200  1.00  0.00     0.012 A
HETATM   36  C18 UNL     1      -0.935  10.029   3.560  1.00  0.00     0.042 A
ENDBRANCH  25  27
ENDBRANCH   9  23
TORSDOF 2
ENDMDL