MODEL 3
REMARK VINA RESULT: -9.463766922      3.109      4.052
REMARK  7 active torsions:
REMARK  status: ('A' for Active; 'I' for Inactive)
REMARK    1  A    between atoms: C6_6  and  C7_7
REMARK    2  A    between atoms: C7_7  and  O1_8
REMARK    3  A    between atoms: N1_10  and  C8_12
REMARK    4  A    between atoms: C10_14  and  C11_15
REMARK    5  A    between atoms: N3_21  and  C15_22
REMARK    6  A    between atoms: C15_22  and  O2_23
REMARK    7  A    between atoms: C15_22  and  C16_25
ROOT
HETATM    1  C8  UNL     1      -3.660   9.570   0.485  1.00  0.00     0.133 A
HETATM    2  C9  UNL     1      -4.172   9.885  -0.778  1.00  0.00     0.077 A
HETATM    3  C10 UNL     1      -3.709   8.958  -1.641  1.00  0.00     0.037 A
HETATM    4  N2  UNL     1      -2.951   8.110  -0.944  1.00  0.00    -0.294 N
ATOM      5  H2  UNL     1      -2.470   7.304  -1.342  1.00  0.00     0.187 HD
HETATM    6  N3  UNL     1      -2.908   8.451   0.323  1.00  0.00    -0.216 N
ENDROOT
BRANCH   1   7
HETATM    7  N1  UNL     1      -3.853  10.218   1.560  1.00  0.00    -0.321 N
HETATM    8  C7  UNL     1      -3.525  11.436   2.054  1.00  0.00     0.153 C
ATOM      9  H1  UNL     1      -4.402   9.678   2.229  1.00  0.00     0.169 HD
BRANCH   8  10
HETATM   10  C6  UNL     1      -2.542  11.823   3.026  1.00  0.00     0.027 A
HETATM   11  C4  UNL     1      -1.303  12.253   2.500  1.00  0.00    -0.046 A
HETATM   12  C3  UNL     1      -0.283  12.519   3.372  1.00  0.00     0.014 A
HETATM   13  C5  UNL     1      -1.170  12.463   1.017  1.00  0.00     0.049 C
HETATM   14  C2  UNL     1      -0.465  12.375   4.733  1.00  0.00    -0.061 A
HETATM   15  C1  UNL     1       0.658  12.667   5.645  1.00  0.00     0.048 C
HETATM   16  C27 UNL     1      -1.668  11.960   5.241  1.00  0.00     0.014 A
HETATM   17  C25 UNL     1      -2.729  11.679   4.364  1.00  0.00    -0.046 A
HETATM   18  C26 UNL     1      -4.013  11.212   5.004  1.00  0.00     0.049 C
ENDBRANCH   8  10
BRANCH   8  19
HETATM   19  O1  UNL     1      -4.216  12.442   1.593  1.00  0.00    -0.345 OA
ATOM     20  H1  UNL     1      -4.471  12.336   0.684  1.00  0.00     0.219 HD
ENDBRANCH   8  19
ENDBRANCH   1   7
BRANCH   6  21
HETATM   21  C15 UNL     1      -2.197   7.720   1.284  1.00  0.00     0.174 C
BRANCH  21  22
HETATM   22  O2  UNL     1      -2.288   6.385   1.058  1.00  0.00    -0.344 OA
ATOM     23  H2  UNL     1      -2.379   5.901   1.870  1.00  0.00     0.219 HD
ENDBRANCH  21  22
BRANCH  21  24
HETATM   24  C16 UNL     1      -1.418   8.030   2.420  1.00  0.00     0.029 A
HETATM   25  C17 UNL     1      -0.106   8.464   2.263  1.00  0.00    -0.046 A
HETATM   26  C18 UNL     1       0.567   8.593   0.939  1.00  0.00     0.049 C
HETATM   27  C19 UNL     1       0.598   8.829   3.407  1.00  0.00     0.014 A
HETATM   28  C20 UNL     1       0.071   8.781   4.649  1.00  0.00    -0.061 A
HETATM   29  C21 UNL     1       0.815   9.215   5.844  1.00  0.00     0.048 C
HETATM   30  C22 UNL     1      -1.248   8.337   4.761  1.00  0.00     0.014 A
HETATM   31  C23 UNL     1      -1.996   7.963   3.676  1.00  0.00    -0.046 A
HETATM   32  C24 UNL     1      -3.411   7.494   3.806  1.00  0.00     0.049 C
ENDBRANCH  21  24
ENDBRANCH   6  21
BRANCH   3  33
HETATM   33  C11 UNL     1      -4.015   8.935  -3.100  1.00  0.00    -0.007 C
HETATM   34  C12 UNL     1      -3.350   7.711  -3.736  1.00  0.00     0.021 C
HETATM   35  C13 UNL     1      -5.511   8.772  -3.359  1.00  0.00     0.021 C
HETATM   36  C14 UNL     1      -3.497  10.154  -3.812  1.00  0.00     0.021 C
ENDBRANCH   3  33
TORSDOF 7
ENDMDL