MODEL 1
REMARK VINA RESULT: -9.246234696      0.000      0.000
REMARK  2 active torsions:
REMARK  status: ('A' for Active; 'I' for Inactive)
REMARK    1  A    between atoms: C11_12  and  N2_13
REMARK       I    between atoms: N3_19  and  C17_20
REMARK       I    between atoms: C17_20  and  N4_22
REMARK    2  A    between atoms: N4_22  and  C18_24
ROOT
HETATM    1  N2  UNL     1      -1.851  10.367   2.149  1.00  0.00     0.112 N
HETATM    2  C12 UNL     1      -1.015   9.430   1.471  1.00  0.00     0.276 C
HETATM    3  C13 UNL     1      -1.313   9.515   0.001  1.00  0.00     0.041 C
HETATM    4  C14 UNL     1      -2.433  10.494  -0.121  1.00  0.00    -0.009 C
HETATM    5  C15 UNL     1      -3.805   9.830  -0.183  1.00  0.00     0.031 C
HETATM    6  C16 UNL     1      -3.959   9.043  -1.435  1.00  0.00     0.128 C
HETATM    7  N3  UNL     1      -3.435   9.663  -2.610  1.00  0.00    -0.334 N
HETATM    8  C17 UNL     1      -3.868   9.155  -3.873  1.00  0.00     0.318 C
HETATM    9  O1  UNL     1      -4.694   8.188  -3.950  1.00  0.00    -0.247 OA
HETATM   10  N4  UNL     1      -3.399   9.702  -5.094  1.00  0.00    -0.338 N
ATOM     11  H4  UNL     1      -2.735  10.476  -5.064  1.00  0.00     0.164 HD
HETATM   12  C24 UNL     1      -2.506  10.762  -2.597  1.00  0.00     0.128 C
HETATM   13  C25 UNL     1      -2.334  11.427  -1.275  1.00  0.00     0.031 C
HETATM   14  C26 UNL     1      -2.356  11.292   1.185  1.00  0.00     0.284 C
ENDROOT
BRANCH   1  15
HETATM   15  C11 UNL     1      -1.402  10.860   3.388  1.00  0.00     0.323 C
HETATM   16  N1  UNL     1      -1.654  12.186   3.713  1.00  0.00    -0.368 N
HETATM   17  C1  UNL     1      -0.776  13.203   3.301  1.00  0.00     0.150 C
HETATM   18  C2  UNL     1      -2.898  12.574   4.231  1.00  0.00     0.060 C
HETATM   19  C3  UNL     1      -3.693  11.601   4.982  1.00  0.00     0.044 C
HETATM   20  C4  UNL     1      -3.224  11.144   6.292  1.00  0.00     0.005 C
HETATM   21  C5  UNL     1      -2.040  11.812   6.876  1.00  0.00     0.000 C
HETATM   22  C6  UNL     1      -0.906  10.815   7.163  1.00  0.00     0.000 C
HETATM   23  C7  UNL     1       0.403  11.268   6.618  1.00  0.00     0.000 C
HETATM   24  C8  UNL     1       1.144  10.278   5.797  1.00  0.00     0.000 C
HETATM   25  C9  UNL     1       0.403   9.653   4.672  1.00  0.00     0.004 C
HETATM   26  C10 UNL     1       0.085  10.568   3.535  1.00  0.00     0.057 C
ENDBRANCH   1  15
BRANCH  10  27
HETATM   27  C18 UNL     1      -3.825   9.204  -6.371  1.00  0.00     0.086 C
HETATM   28  C19 UNL     1      -2.668   9.210  -7.346  1.00  0.00     0.025 C
HETATM   29  C20 UNL     1      -3.138   9.524  -8.753  1.00  0.00     0.002 C
HETATM   30  C21 UNL     1      -3.675  10.939  -8.825  1.00  0.00     0.000 C
HETATM   31  C22 UNL     1      -4.294  11.329  -7.499  1.00  0.00     0.002 C
HETATM   32  C23 UNL     1      -4.911  10.098  -6.910  1.00  0.00     0.025 C
ENDBRANCH  10  27
TORSDOF 2
ENDMDL