MODEL 4
REMARK VINA RESULT: -8.294882733      1.464      1.601
REMARK  2 active torsions:
REMARK  status: ('A' for Active; 'I' for Inactive)
REMARK    1  A    between atoms: C2_3  and  C3_4
REMARK    2  A    between atoms: C17_19  and  N3_20
ROOT
HETATM    1  C1  UNL     1      -2.836  11.099   2.176  1.00  0.00     0.156 C
HETATM    2  N1  UNL     1      -1.836  10.261   1.546  1.00  0.00    -0.349 N
HETATM    3  C2  UNL     1      -0.855   9.769   2.289  1.00  0.00     0.056 A
HETATM    4  C9  UNL     1       0.098   8.965   1.670  1.00  0.00     0.003 A
HETATM    5  C10 UNL     1       1.106   8.459   2.438  1.00  0.00     0.014 A
HETATM    6  C11 UNL     1       2.057   7.660   1.838  1.00  0.00     0.001 A
HETATM    7  C12 UNL     1       1.978   7.387   0.494  1.00  0.00     0.001 A
HETATM    8  C13 UNL     1       0.958   7.894  -0.295  1.00  0.00     0.013 A
HETATM    9  C14 UNL     1       0.010   8.691   0.303  1.00  0.00    -0.011 A
HETATM   10  C15 UNL     1      -1.034   9.229  -0.436  1.00  0.00     0.004 A
HETATM   11  C16 UNL     1      -1.135   8.972  -1.783  1.00  0.00     0.044 A
HETATM   12  C17 UNL     1      -2.218   9.552  -2.459  1.00  0.00     0.046 A
HETATM   13  C26 UNL     1      -3.149  10.343  -1.834  1.00  0.00     0.032 A
HETATM   14  C27 UNL     1      -3.021  10.580  -0.491  1.00  0.00     0.033 A
HETATM   15  C28 UNL     1      -1.954  10.021   0.229  1.00  0.00     0.045 A
ENDROOT
BRANCH  12  16
HETATM   16  N3  UNL     1      -2.334   9.297  -3.852  1.00  0.00    -0.244 N
HETATM   17  C18 UNL     1      -3.213   8.346  -4.444  1.00  0.00     0.266 A
HETATM   18  O1  UNL     1      -4.032   7.569  -3.877  1.00  0.00    -0.267 OA
HETATM   19  C19 UNL     1      -3.024   8.393  -5.901  1.00  0.00     0.048 A
HETATM   20  C20 UNL     1      -3.624   7.682  -6.929  1.00  0.00     0.018 A
HETATM   21  C24 UNL     1      -2.062   9.346  -6.161  1.00  0.00     0.048 A
HETATM   22  C21 UNL     1      -3.222   7.964  -8.225  1.00  0.00     0.001 A
HETATM   23  C22 UNL     1      -2.261   8.913  -8.502  1.00  0.00     0.001 A
HETATM   24  C23 UNL     1      -1.661   9.624  -7.473  1.00  0.00     0.018 A
HETATM   25  C25 UNL     1      -1.625   9.913  -4.908  1.00  0.00     0.266 A
HETATM   26  O2  UNL     1      -0.759  10.811  -4.735  1.00  0.00    -0.267 OA
ENDBRANCH  12  16
BRANCH   3  27
HETATM   27  C3  UNL     1      -0.716  10.032   3.724  1.00  0.00    -0.008 A
HETATM   28  C4  UNL     1      -1.305   9.260   4.705  1.00  0.00     0.015 A
HETATM   29  C5  UNL     1      -1.147   9.528   6.048  1.00  0.00     0.027 A
HETATM   30  C6  UNL     1      -0.379  10.600   6.446  1.00  0.00     0.046 A
HETATM   31  N2  UNL     1      -0.222  10.863   7.860  1.00  0.00    -0.102 NA
HETATM   32  C7  UNL     1       0.228  11.400   5.507  1.00  0.00     0.027 A
HETATM   33  C8  UNL     1       0.053  11.109   4.175  1.00  0.00     0.015 A
ENDBRANCH   3  27
TORSDOF 2
ENDMDL