MODEL 5
REMARK VINA RESULT: -9.426678682      5.563      7.303
REMARK  2 active torsions:
REMARK  status: ('A' for Active; 'I' for Inactive)
REMARK       I    between atoms: C1_2  and  N1_3
REMARK    1  A    between atoms: C1_2  and  C12_15
REMARK    2  A    between atoms: N1_3  and  C2_5
ROOT
HETATM    1  C12 UNL     1      -2.582   8.393   3.454  1.00  0.00     0.034 A
HETATM    2  C13 UNL     1      -1.239   8.282   3.772  1.00  0.00     0.018 A
HETATM    3  C14 UNL     1      -0.506   9.434   3.942  1.00  0.00     0.015 A
HETATM    4  C15 UNL     1      -1.097  10.678   3.797  1.00  0.00    -0.007 A
HETATM    5  C16 UNL     1      -0.609  11.957   3.908  1.00  0.00     0.044 A
HETATM    6  C17 UNL     1      -1.652  12.860   3.657  1.00  0.00     0.048 A
HETATM    7  N2  UNL     1      -2.721  12.135   3.407  1.00  0.00    -0.331 N
HETATM    8  C18 UNL     1      -2.418  10.802   3.484  1.00  0.00     0.047 A
HETATM    9  C19 UNL     1      -3.154   9.634   3.314  1.00  0.00     0.047 A
HETATM   10  C20 UNL     1      -4.056  12.620   3.089  1.00  0.00     0.275 A
HETATM   11  S1  UNL     1      -4.173  14.351   3.056  1.00  0.00     0.193 S
HETATM   12  O2  UNL     1      -4.579  14.803   1.669  1.00  0.00    -0.221 OA
HETATM   13  O3  UNL     1      -5.227  14.890   3.997  1.00  0.00    -0.221 OA
HETATM   14  C21 UNL     1      -2.641  15.063   3.415  1.00  0.00     0.073 A
HETATM   15  C22 UNL     1      -2.560  16.426   3.429  1.00  0.00     0.024 A
HETATM   16  C23 UNL     1      -1.390  17.099   3.704  1.00  0.00     0.002 A
HETATM   17  C24 UNL     1      -0.286  16.319   3.967  1.00  0.00     0.001 A
HETATM   18  C25 UNL     1      -0.336  14.949   3.961  1.00  0.00     0.015 A
HETATM   19  C26 UNL     1      -1.539  14.310   3.679  1.00  0.00     0.012 A
ENDROOT
BRANCH   1  20
HETATM   20  C1  UNL     1      -3.324   7.130   3.291  1.00  0.00     0.256 C
HETATM   21  O1  UNL     1      -3.172   6.519   2.224  1.00  0.00    -0.267 OA
HETATM   22  N1  UNL     1      -4.154   6.686   4.334  1.00  0.00    -0.322 N
ATOM     23  H1  UNL     1      -4.190   7.286   5.158  1.00  0.00     0.169 HD
BRANCH  22  24
HETATM   24  C2  UNL     1      -4.943   5.518   4.390  1.00  0.00     0.046 A
HETATM   25  C3  UNL     1      -5.936   5.226   3.501  1.00  0.00     0.030 A
HETATM   26  C4  UNL     1      -6.723   4.064   3.558  1.00  0.00     0.003 A
HETATM   27  C5  UNL     1      -6.473   3.183   4.567  1.00  0.00     0.012 A
HETATM   28  C6  UNL     1      -5.484   3.421   5.497  1.00  0.00    -0.024 A
HETATM   29  C7  UNL     1      -5.302   2.481   6.477  1.00  0.00     0.012 A
HETATM   30  C11 UNL     1      -4.719   4.588   5.410  1.00  0.00     0.001 A
HETATM   31  C8  UNL     1      -4.337   2.681   7.411  1.00  0.00     0.001 A
HETATM   32  C9  UNL     1      -3.564   3.817   7.357  1.00  0.00     0.001 A
HETATM   33  C10 UNL     1      -3.748   4.787   6.350  1.00  0.00     0.014 A
ENDBRANCH  22  24
ENDBRANCH   1  20
TORSDOF 2
ENDMDL