MODEL 4
REMARK VINA RESULT: -8.602518052      1.470      5.591
REMARK  2 active torsions:
REMARK  status: ('A' for Active; 'I' for Inactive)
REMARK    1  A    between atoms: C3_6  and  C4_7
REMARK    2  A    between atoms: C3_6  and  C10_13
ROOT
HETATM    1  C1  UNL     1      -3.195   6.969   2.794  1.00  0.00     0.124 C
HETATM    2  N1  UNL     1      -2.652   8.148   2.726  1.00  0.00    -0.340 N
HETATM    3  C2  UNL     1      -2.852   9.620   2.464  1.00  0.00     0.220 C
HETATM    4  N2  UNL     1      -2.424   9.927   3.703  1.00  0.00    -0.380 N
ATOM      5  H2  UNL     1      -2.232   9.135   4.316  1.00  0.00     0.157 HD
HETATM    6  C3  UNL     1      -2.220  11.133   4.229  1.00  0.00     0.098 C
HETATM    7  C18 UNL     1      -0.864  11.036   3.260  1.00  0.00     0.109 C
HETATM    8  C19 UNL     1      -0.468   9.539   3.173  1.00  0.00    -0.018 A
HETATM    9  C20 UNL     1       0.971   9.494   3.296  1.00  0.00     0.010 A
HETATM   10  C21 UNL     1       1.587   8.295   3.254  1.00  0.00     0.001 A
HETATM   11  C22 UNL     1       0.937   7.080   3.099  1.00  0.00     0.002 A
HETATM   12  C23 UNL     1      -0.465   7.069   2.973  1.00  0.00     0.030 A
HETATM   13  C24 UNL     1      -1.060   8.270   3.017  1.00  0.00     0.042 A
HETATM   14  C25 UNL     1      -1.547  11.440   1.943  1.00  0.00     0.031 A
HETATM   15  N4  UNL     1      -1.203  12.441   1.190  1.00  0.00    -0.368 N
ATOM     16  H4  UNL     1      -0.565  13.135   1.579  1.00  0.00     0.165 HD
HETATM   17  C26 UNL     1      -1.637  12.620  -0.074  1.00  0.00     0.088 A
HETATM   18  C27 UNL     1      -2.497  11.722  -0.662  1.00  0.00     0.018 A
HETATM   19  C28 UNL     1      -2.907  10.641   0.075  1.00  0.00     0.014 A
HETATM   20  C29 UNL     1      -2.474  10.433   1.398  1.00  0.00     0.007 A
ENDROOT
BRANCH   6  21
HETATM   21  C4  UNL     1      -1.909  11.154   5.636  1.00  0.00    -0.025 A
HETATM   22  C5  UNL     1      -0.659  11.107   6.165  1.00  0.00     0.010 A
HETATM   23  C6  UNL     1      -0.456  11.118   7.551  1.00  0.00     0.001 A
HETATM   24  C7  UNL     1      -1.515  11.176   8.426  1.00  0.00     0.000 A
HETATM   25  C8  UNL     1      -2.789  11.223   7.907  1.00  0.00     0.001 A
HETATM   26  C9  UNL     1      -2.978  11.211   6.559  1.00  0.00     0.010 A
ENDBRANCH   6  21
BRANCH   6  27
HETATM   27  C10 UNL     1      -2.988  12.266   3.760  1.00  0.00     0.003 A
HETATM   28  C11 UNL     1      -4.261  12.279   3.166  1.00  0.00     0.099 A
HETATM   29  N3  UNL     1      -4.681  13.514   2.916  1.00  0.00    -0.365 N
HETATM   30  C12 UNL     1      -3.705  14.357   3.334  1.00  0.00     0.043 A
ATOM     31  H3  UNL     1      -5.569  13.778   2.490  1.00  0.00     0.165 HD
HETATM   32  C13 UNL     1      -3.644  15.749   3.319  1.00  0.00     0.030 A
HETATM   33  C17 UNL     1      -2.664  13.638   3.852  1.00  0.00     0.001 A
HETATM   34  C14 UNL     1      -2.541  16.375   3.826  1.00  0.00     0.002 A
HETATM   35  C15 UNL     1      -1.489  15.634   4.350  1.00  0.00     0.001 A
HETATM   36  C16 UNL     1      -1.548  14.278   4.364  1.00  0.00     0.014 A
ENDBRANCH   6  27
TORSDOF 2
ENDMDL