MODEL 4
REMARK VINA RESULT: -8.583047575      3.371      4.579
REMARK  4 active torsions:
REMARK  status: ('A' for Active; 'I' for Inactive)
REMARK    1  A    between atoms: O1_2  and  C2_3
REMARK    2  A    between atoms: C8_11  and  C9_12
REMARK    3  A    between atoms: C9_12  and  C10_13
REMARK    4  A    between atoms: N4_29  and  C21_30
ROOT
HETATM    1  C2  UNL     1      -3.237   9.413  -1.348  1.00  0.00     0.069 A
HETATM    2  C3  UNL     1      -2.594  10.595  -1.681  1.00  0.00     0.039 A
HETATM    3  C4  UNL     1      -2.302  11.460  -0.665  1.00  0.00     0.033 A
HETATM    4  C5  UNL     1      -2.634  11.166   0.626  1.00  0.00     0.045 A
HETATM    5  N1  UNL     1      -2.333  12.037   1.592  1.00  0.00    -0.339 N
ATOM      6  H1  UNL     1      -1.860  12.903   1.335  1.00  0.00     0.167 HD
HETATM    7  C6  UNL     1      -2.619  11.829   2.865  1.00  0.00     0.143 A
HETATM    8  C7  UNL     1      -3.252  10.684   3.260  1.00  0.00     0.090 A
HETATM    9  C8  UNL     1      -3.594   9.742   2.322  1.00  0.00     0.008 A
HETATM   10  C18 UNL     1      -3.279   9.989   0.986  1.00  0.00     0.006 A
HETATM   11  C19 UNL     1      -3.573   9.122  -0.022  1.00  0.00     0.051 A
HETATM   12  N3  UNL     1      -3.409  10.727   4.544  1.00  0.00    -0.329 N
ATOM     13  H3  UNL     1      -3.857   9.990   5.088  1.00  0.00     0.168 HD
HETATM   14  C20 UNL     1      -2.886  11.919   5.104  1.00  0.00     0.185 A
HETATM   15  S1  UNL     1      -2.893  12.366   6.682  1.00  0.00    -0.040 SA
HETATM   16  N4  UNL     1      -2.363  12.653   4.016  1.00  0.00    -0.272 N
ENDROOT
BRANCH   9  17
HETATM   17  C9  UNL     1      -4.195   8.645   2.665  1.00  0.00     0.028 C
BRANCH  17  18
HETATM   18  C10 UNL     1      -3.611   7.645   3.568  1.00  0.00    -0.007 A
HETATM   19  C11 UNL     1      -2.358   7.699   4.133  1.00  0.00     0.100 A
HETATM   20  N2  UNL     1      -2.206   6.602   4.926  1.00  0.00    -0.364 N
HETATM   21  C12 UNL     1      -3.315   5.842   4.897  1.00  0.00     0.043 A
ATOM     22  H2  UNL     1      -1.368   6.388   5.466  1.00  0.00     0.165 HD
HETATM   23  C13 UNL     1      -3.659   4.657   5.512  1.00  0.00     0.030 A
HETATM   24  C17 UNL     1      -4.201   6.499   4.040  1.00  0.00     0.002 A
HETATM   25  C14 UNL     1      -4.897   4.096   5.289  1.00  0.00     0.002 A
HETATM   26  C15 UNL     1      -5.785   4.730   4.447  1.00  0.00     0.001 A
HETATM   27  C16 UNL     1      -5.437   5.909   3.836  1.00  0.00     0.014 A
ENDBRANCH  17  18
ENDBRANCH   9  17
BRANCH  16  28
HETATM   28  C21 UNL     1      -1.740  13.930   4.000  1.00  0.00     0.043 A
HETATM   29  C22 UNL     1      -0.388  14.099   4.201  1.00  0.00     0.030 A
HETATM   30  C23 UNL     1       0.209  15.347   4.206  1.00  0.00     0.002 A
HETATM   31  C24 UNL     1      -0.546  16.479   4.006  1.00  0.00     0.000 A
HETATM   32  C25 UNL     1      -1.899  16.356   3.803  1.00  0.00     0.002 A
HETATM   33  C26 UNL     1      -2.479  15.087   3.802  1.00  0.00     0.030 A
ENDBRANCH  16  28
BRANCH   1  34
HETATM   34  O1  UNL     1      -3.572   8.479  -2.302  1.00  0.00    -0.356 OA
HETATM   35  C1  UNL     1      -4.818   8.395  -2.929  1.00  0.00     0.210 C
ENDBRANCH   1  34
TORSDOF 4
ENDMDL