MODEL 4
REMARK VINA RESULT: -9.203182435      3.712      7.288
REMARK  2 active torsions:
REMARK  status: ('A' for Active; 'I' for Inactive)
REMARK    1  A    between atoms: C10_14  and  C11_15
REMARK    2  A    between atoms: N2_22  and  C18_24
ROOT
HETATM    1  C11 UNL     1      -1.828  11.372   1.693  1.00  0.00    -0.034 A
HETATM    2  C12 UNL     1      -1.719  11.011   0.374  1.00  0.00     0.012 A
HETATM    3  C13 UNL     1      -0.836  10.022  -0.005  1.00  0.00     0.014 A
HETATM    4  C14 UNL     1      -0.054   9.383   0.923  1.00  0.00    -0.012 A
HETATM    5  C15 UNL     1      -0.137   9.725   2.277  1.00  0.00     0.003 A
HETATM    6  C16 UNL     1      -1.024  10.715   2.639  1.00  0.00     0.026 A
HETATM    7  C17 UNL     1       0.787   8.900   3.025  1.00  0.00     0.055 A
HETATM    8  N2  UNL     1       1.032   8.868   4.240  1.00  0.00    -0.355 N
ATOM      9  H2  UNL     1       1.740   8.174   4.478  1.00  0.00     0.166 HD
HETATM   10  C24 UNL     1       1.447   8.025   2.035  1.00  0.00     0.003 A
HETATM   11  C25 UNL     1       2.407   7.046   2.166  1.00  0.00     0.014 A
HETATM   12  C26 UNL     1       2.869   6.356   1.057  1.00  0.00     0.001 A
HETATM   13  C27 UNL     1       2.360   6.655  -0.179  1.00  0.00     0.001 A
HETATM   14  C28 UNL     1       1.393   7.633  -0.350  1.00  0.00     0.013 A
HETATM   15  C29 UNL     1       0.952   8.307   0.784  1.00  0.00    -0.013 A
ENDROOT
BRANCH   1  16
HETATM   16  C10 UNL     1      -2.754  12.406   2.098  1.00  0.00     0.029 C
HETATM   17  C9  UNL     1      -2.470  13.602   2.541  1.00  0.00     0.044 A
HETATM   18  C1  UNL     1      -1.113  14.117   2.718  1.00  0.00     0.259 A
HETATM   19  C8  UNL     1      -3.587  14.541   2.852  1.00  0.00    -0.005 A
HETATM   20  O1  UNL     1      -0.116  13.389   2.484  1.00  0.00    -0.267 OA
HETATM   21  N1  UNL     1      -0.865  15.457   3.164  1.00  0.00    -0.289 N
HETATM   22  C2  UNL     1      -1.968  16.289   3.438  1.00  0.00     0.259 A
ATOM     23  H1  UNL     1       0.088  15.799   3.280  1.00  0.00     0.172 HD
HETATM   24  O2  UNL     1      -1.701  17.474   3.832  1.00  0.00    -0.267 OA
HETATM   25  C3  UNL     1      -3.339  15.835   3.284  1.00  0.00     0.043 A
HETATM   26  C4  UNL     1      -4.342  16.726   3.581  1.00  0.00     0.018 A
HETATM   27  C5  UNL     1      -5.657  16.354   3.458  1.00  0.00     0.001 A
HETATM   28  C6  UNL     1      -5.947  15.089   3.035  1.00  0.00     0.001 A
HETATM   29  C7  UNL     1      -4.914  14.191   2.736  1.00  0.00     0.013 A
ENDBRANCH   1  16
BRANCH   8  30
HETATM   30  C18 UNL     1       0.568   9.554   5.347  1.00  0.00     0.032 A
HETATM   31  C19 UNL     1       1.371  10.352   6.156  1.00  0.00     0.029 A
HETATM   32  C20 UNL     1       0.881  11.023   7.242  1.00  0.00     0.002 A
HETATM   33  C21 UNL     1      -0.453  10.931   7.583  1.00  0.00     0.000 A
HETATM   34  C22 UNL     1      -1.274  10.148   6.798  1.00  0.00     0.002 A
HETATM   35  C23 UNL     1      -0.762   9.475   5.703  1.00  0.00     0.029 A
ENDBRANCH   8  30
TORSDOF 2
ENDMDL