MODEL 1
REMARK VINA RESULT: -7.174849392      0.000      0.000
REMARK  7 active torsions:
REMARK  status: ('A' for Active; 'I' for Inactive)
REMARK    1  A    between atoms: C4_10  and  C5_11
REMARK    2  A    between atoms: C5_11  and  N6_14
REMARK    3  A    between atoms: N6_14  and  O1_15
REMARK    4  A    between atoms: O1_15  and  C7_16
REMARK    5  A    between atoms: C7_16  and  C8_18
REMARK    6  A    between atoms: C10_20  and  N7_21
REMARK    7  A    between atoms: C11_26  and  N9_27
ROOT
HETATM    1  C1  UNL     1      16.236  47.392 -48.230  1.00  0.00     0.160 C
HETATM    2  N1  UNL     1      15.042  46.668 -47.865  1.00  0.00    -0.314 N
HETATM    3  C2  UNL     1      14.744  46.200 -46.620  1.00  0.00     0.206 A
HETATM    4  C3  UNL     1      15.563  46.339 -45.432  1.00  0.00     0.138 C
HETATM    5  N2  UNL     1      16.221  46.464 -44.487  1.00  0.00    -0.188 NA
HETATM    6  N3  UNL     1      13.549  45.590 -46.723  1.00  0.00    -0.275 N
ATOM      7  H3  UNL     1      13.043  45.132 -45.964  1.00  0.00     0.189 HD
HETATM    8  N4  UNL     1      13.137  45.689 -47.997  1.00  0.00    -0.284 N
ATOM      9  H4  UNL     1      12.262  45.315 -48.363  1.00  0.00     0.188 HD
HETATM   10  C4  UNL     1      14.046  46.348 -48.709  1.00  0.00     0.136 A
ENDROOT
BRANCH  10  11
HETATM   11  C5  UNL     1      14.008  46.687 -50.154  1.00  0.00     0.282 C
HETATM   12  C6  UNL     1      13.797  45.477 -50.974  1.00  0.00     0.091 C
HETATM   13  N5  UNL     1      13.633  44.520 -51.610  1.00  0.00    -0.195 NA
BRANCH  11  14
HETATM   14  N6  UNL     1      12.839  47.528 -50.380  1.00  0.00    -0.063 NA
BRANCH  14  15
HETATM   15  O1  UNL     1      13.207  48.817 -50.691  1.00  0.00    -0.200 OA
BRANCH  15  16
HETATM   16  C7  UNL     1      12.866  49.840 -49.832  1.00  0.00     0.329 C
HETATM   17  O2  UNL     1      12.066  50.718 -50.246  1.00  0.00    -0.256 OA
BRANCH  16  18
HETATM   18  C8  UNL     1      13.384  49.950 -48.477  1.00  0.00     0.129 A
HETATM   19  C9  UNL     1      14.517  50.684 -48.181  1.00  0.00     0.085 A
HETATM   20  C10 UNL     1      14.998  50.784 -46.902  1.00  0.00     0.117 A
HETATM   21  N8  UNL     1      14.342  50.146 -45.916  1.00  0.00    -0.177 N
HETATM   22  C11 UNL     1      13.245  49.433 -46.190  1.00  0.00     0.678 A
ATOM     23  H8  UNL     1      14.683  50.207 -44.956  1.00  0.00     0.185 HD
HETATM   24  N10 UNL     1      12.779  49.340 -47.450  1.00  0.00    -0.186 N
ATOM     25  H10 UNL     1      11.940  48.788 -47.627  1.00  0.00     0.184 HD
BRANCH  20  26
HETATM   26  N7  UNL     1      16.055  51.473 -46.656  1.00  0.00    -0.385 N
ATOM     27  H72 UNL     1      16.631  51.839 -47.414  1.00  0.00     0.157 HD
ATOM     28  H71 UNL     1      16.335  51.664 -45.694  1.00  0.00     0.157 HD
ENDBRANCH  20  26
BRANCH  22  29
HETATM   29  N9  UNL     1      12.624  48.828 -45.250  1.00  0.00    -0.234 N
ATOM     30  H92 UNL     1      12.934  48.954 -44.286  1.00  0.00     0.174 HD
ATOM     31  H91 UNL     1      11.829  48.228 -45.467  1.00  0.00     0.174 HD
ENDBRANCH  22  29
ENDBRANCH  16  18
ENDBRANCH  15  16
ENDBRANCH  14  15
ENDBRANCH  11  14
ENDBRANCH  10  11
TORSDOF 7
ENDMDL