MODEL 1
REMARK VINA RESULT: -7.327293900      0.000      0.000
REMARK  8 active torsions:
REMARK  status: ('A' for Active; 'I' for Inactive)
REMARK    1  A    between atoms: C4_9  and  C5_10
REMARK    2  A    between atoms: C5_10  and  C6_15
REMARK    3  A    between atoms: N4_11  and  O1_13
REMARK    4  A    between atoms: C6_15  and  N5_16
REMARK    5  A    between atoms: C6_15  and  C7_20
REMARK    6  A    between atoms: C7_20  and  N6_21
REMARK    7  A    between atoms: N6_21  and  N7_23
REMARK    8  A    between atoms: N7_23  and  C8_25
ROOT
HETATM    1  C5  UNL     1      14.329  46.378 -48.306  1.00  0.00     0.079 C
HETATM    2  N4  UNL     1      13.243  45.942 -47.864  1.00  0.00    -0.270 N
ATOM      3  H4  UNL     1      13.146  46.177 -46.877  1.00  0.00     0.194 HD
ENDROOT
BRANCH   1   4
HETATM    4  C4  UNL     1      14.764  46.211 -49.663  1.00  0.00     0.009 A
HETATM    5  C3  UNL     1      13.891  46.106 -50.699  1.00  0.00     0.050 A
HETATM    6  C2  UNL     1      14.348  45.961 -52.016  1.00  0.00     0.096 A
HETATM    7  N3  UNL     1      13.769  45.836 -53.204  1.00  0.00    -0.282 N
HETATM    8  C11 UNL     1      15.706  45.927 -52.236  1.00  0.00     0.151 A
HETATM    9  N2  UNL     1      14.711  45.732 -54.112  1.00  0.00    -0.239 N
ATOM     10  H3  UNL     1      12.764  45.824 -53.381  1.00  0.00     0.188 HD
HETATM   11  N1  UNL     1      15.916  45.781 -53.576  1.00  0.00    -0.265 N
ATOM     12  H2  UNL     1      14.534  45.626 -55.111  1.00  0.00     0.208 HD
HETATM   13  C1  UNL     1      17.204  45.699 -54.257  1.00  0.00     0.181 C
HETATM   14  N11 UNL     1      16.581  46.029 -51.236  1.00  0.00    -0.348 N
HETATM   15  C10 UNL     1      16.106  46.170 -49.962  1.00  0.00     0.103 A
ATOM     16  H11 UNL     1      17.584  46.001 -51.418  1.00  0.00     0.167 HD
ENDBRANCH   1   4
BRANCH   1  17
HETATM   17  C6  UNL     1      15.274  47.111 -47.368  1.00  0.00     0.275 C
BRANCH  17  18
HETATM   18  N5  UNL     1      15.172  46.422 -46.077  1.00  0.00    -0.065 N
ATOM     19  H53 UNL     1      15.374  47.023 -45.278  1.00  0.00     0.275 HD
ATOM     20  H52 UNL     1      14.215  46.187 -45.815  1.00  0.00     0.275 HD
ATOM     21  H51 UNL     1      15.788  45.611 -46.142  1.00  0.00     0.275 HD
ENDBRANCH  17  18
BRANCH  17  22
HETATM   22  C7  UNL     1      14.823  48.494 -47.168  1.00  0.00     0.119 C
BRANCH  22  23
HETATM   23  N6  UNL     1      14.193  48.851 -46.104  1.00  0.00    -0.299 N
ATOM     24  H6  UNL     1      14.628  48.695 -45.195  1.00  0.00     0.186 HD
BRANCH  23  25
HETATM   25  N7  UNL     1      12.936  49.444 -46.159  1.00  0.00    -0.131 N
ATOM     26  H7  UNL     1      12.810  50.348 -46.613  1.00  0.00     0.205 HD
BRANCH  25  27
HETATM   27  C8  UNL     1      11.933  48.836 -45.629  1.00  0.00     0.712 A
HETATM   28  N8  UNL     1      11.861  47.537 -45.308  1.00  0.00    -0.184 N
HETATM   29  C9  UNL     1      10.662  47.276 -44.780  1.00  0.00     0.215 A
ATOM     30  H8  UNL     1      12.606  46.854 -45.444  1.00  0.00     0.185 HD
HETATM   31  N9  UNL     1       9.972  48.436 -44.773  1.00  0.00    -0.281 N
HETATM   32  N10 UNL     1      10.740  49.377 -45.286  1.00  0.00    -0.130 N
ATOM     33  H9  UNL     1       9.020  48.561 -44.430  1.00  0.00     0.188 HD
ATOM     34  H10 UNL     1      10.477  50.356 -45.404  1.00  0.00     0.205 HD
ENDBRANCH  25  27
ENDBRANCH  23  25
ENDBRANCH  22  23
ENDBRANCH  17  22
ENDBRANCH   1  17
BRANCH   2  35
HETATM   35  O1  UNL     1      12.191  45.276 -48.278  1.00  0.00    -0.290 OA
ATOM     36  H1  UNL     1      11.690  44.501 -48.051  1.00  0.00     0.244 HD
ENDBRANCH   2  35
TORSDOF 8
ENDMDL