MODEL 4
REMARK VINA RESULT: -7.557127605      5.564     12.290
REMARK  6 active torsions:
REMARK  status: ('A' for Active; 'I' for Inactive)
REMARK    1  A    between atoms: C2_7  and  O1_8
REMARK    2  A    between atoms: C3_10  and  C4_11
REMARK    3  A    between atoms: N4_12  and  N5_14
REMARK       I    between atoms: N5_14  and  C5_16
REMARK       I    between atoms: C5_16  and  N6_18
REMARK    4  A    between atoms: N6_18  and  N7_19
REMARK    5  A    between atoms: C6_21  and  C7_22
REMARK    6  A    between atoms: C9_26  and  N9_27
ROOT
HETATM    1  N5  UNL     1      14.573  46.103 -52.332  1.00  0.00    -0.238 N
ATOM      2  H5  UNL     1      15.065  46.973 -52.127  1.00  0.00     0.193 HD
HETATM    3  C5  UNL     1      13.964  45.334 -51.248  1.00  0.00     0.430 C
HETATM    4  O2  UNL     1      13.391  44.281 -51.664  1.00  0.00    -0.227 OA
HETATM    5  N6  UNL     1      14.066  45.800 -49.992  1.00  0.00    -0.264 NA
ENDROOT
BRANCH   1   6
HETATM    6  N4  UNL     1      14.485  45.671 -53.575  1.00  0.00    -0.305 N
HETATM    7  C4  UNL     1      15.005  45.803 -54.661  1.00  0.00     0.142 C
ATOM      8  H4  UNL     1      13.722  44.997 -53.646  1.00  0.00     0.186 HD
BRANCH   7   9
HETATM    9  C3  UNL     1      16.106  46.614 -55.105  1.00  0.00     0.120 A
HETATM   10  N1  UNL     1      17.415  46.506 -54.692  1.00  0.00    -0.277 N
HETATM   11  C1  UNL     1      17.864  45.529 -53.704  1.00  0.00     0.179 C
HETATM   12  N2  UNL     1      18.138  47.394 -55.318  1.00  0.00    -0.238 N
HETATM   13  N3  UNL     1      17.439  48.111 -56.133  1.00  0.00    -0.263 N
ATOM     14  H2  UNL     1      19.142  47.508 -55.179  1.00  0.00     0.208 HD
HETATM   15  C2  UNL     1      16.156  47.637 -56.016  1.00  0.00     0.186 A
ATOM     16  H3  UNL     1      17.769  48.867 -56.734  1.00  0.00     0.190 HD
BRANCH  15  17
HETATM   17  O1  UNL     1      15.094  48.169 -56.747  1.00  0.00    -0.343 OA
ATOM     18  H1  UNL     1      14.849  49.085 -56.695  1.00  0.00     0.219 HD
ENDBRANCH  15  17
ENDBRANCH   7   9
ENDBRANCH   1   6
BRANCH   5  19
HETATM   19  N7  UNL     1      14.164  46.253 -48.759  1.00  0.00    -0.238 N
HETATM   20  C6  UNL     1      13.223  46.115 -47.883  1.00  0.00     0.171 C
ATOM     21  H7  UNL     1      15.020  46.733 -48.484  1.00  0.00     0.201 HD
BRANCH  20  22
HETATM   22  C7  UNL     1      13.435  46.654 -46.541  1.00  0.00     0.138 A
HETATM   23  N8  UNL     1      14.684  46.723 -46.025  1.00  0.00    -0.346 N
HETATM   24  C8  UNL     1      14.805  47.213 -44.785  1.00  0.00     0.139 A
ATOM     25  H8  UNL     1      15.497  46.413 -46.558  1.00  0.00     0.167 HD
HETATM   26  C9  UNL     1      13.718  47.636 -44.051  1.00  0.00     0.129 A
HETATM   27  N10 UNL     1      12.481  47.558 -44.588  1.00  0.00    -0.283 N
HETATM   28  N11 UNL     1      12.380  47.069 -45.817  1.00  0.00    -0.283 N
ATOM     29  H10 UNL     1      11.658  47.862 -44.070  1.00  0.00     0.188 HD
ATOM     30  H11 UNL     1      11.452  47.004 -46.236  1.00  0.00     0.188 HD
BRANCH  26  31
HETATM   31  N9  UNL     1      13.893  48.097 -42.867  1.00  0.00    -0.383 N
ATOM     32  H92 UNL     1      14.831  48.225 -42.489  1.00  0.00     0.157 HD
ATOM     33  H91 UNL     1      13.083  48.340 -42.296  1.00  0.00     0.157 HD
ENDBRANCH  26  31
ENDBRANCH  20  22
ENDBRANCH   5  19
TORSDOF 6
ENDMDL