MODEL 1
REMARK VINA RESULT: -8.625711116      0.000      0.000
REMARK  6 active torsions:
REMARK  status: ('A' for Active; 'I' for Inactive)
REMARK    1  A    between atoms: N1_1  and  C1_4
REMARK    2  A    between atoms: C2_9  and  C3_10
REMARK    3  A    between atoms: N6_15  and  C4_16
REMARK    4  A    between atoms: C4_16  and  C5_17
REMARK       I    between atoms: C5_17  and  N7_19
REMARK    5  A    between atoms: N7_19  and  N8_20
REMARK    6  A    between atoms: N11_31  and  N12_32
ROOT
HETATM    1  C3  UNL     1      17.472  47.849 -55.073  1.00  0.00     0.186 A
HETATM    2  N4  UNL     1      17.525  49.187 -55.177  1.00  0.00    -0.265 N
ATOM      3  H4  UNL     1      18.066  49.793 -54.560  1.00  0.00     0.190 HD
HETATM    4  N5  UNL     1      16.790  49.610 -56.175  1.00  0.00    -0.224 N
ATOM      5  H5  UNL     1      16.659  50.578 -56.467  1.00  0.00     0.210 HD
HETATM    6  N6  UNL     1      16.244  48.523 -56.742  1.00  0.00    -0.208 N
HETATM    7  N10 UNL     1      16.660  47.466 -56.071  1.00  0.00    -0.263 N
ATOM      8  H10 UNL     1      16.403  46.501 -56.280  1.00  0.00     0.190 HD
ENDROOT
BRANCH   1   9
HETATM    9  C2  UNL     1      18.162  47.053 -54.083  1.00  0.00     0.207 A
HETATM   10  N3  UNL     1      19.408  46.512 -54.239  1.00  0.00    -0.266 N
HETATM   11  N2  UNL     1      19.756  45.865 -53.160  1.00  0.00    -0.129 N
ATOM     12  H3  UNL     1      19.983  46.601 -55.077  1.00  0.00     0.189 HD
HETATM   13  C1  UNL     1      18.771  45.945 -52.251  1.00  0.00     0.713 A
ATOM     14  H2  UNL     1      20.640  45.375 -53.027  1.00  0.00     0.205 HD
HETATM   15  N11 UNL     1      17.810  46.676 -52.845  1.00  0.00    -0.070 N
BRANCH  13  16
HETATM   16  N1  UNL     1      18.764  45.435 -51.061  1.00  0.00    -0.232 N
ATOM     17  H12 UNL     1      19.313  45.724 -50.251  1.00  0.00     0.174 HD
ATOM     18  H11 UNL     1      18.211  44.644 -50.734  1.00  0.00     0.174 HD
ENDBRANCH  13  16
BRANCH  15  19
HETATM   19  N12 UNL     1      16.600  47.017 -52.244  1.00  0.00    -0.322 N
ATOM     20 2H12 UNL     1      16.379  46.829 -51.266  1.00  0.00     0.178 HD
ATOM     21 1H12 UNL     1      15.827  47.473 -52.729  1.00  0.00     0.178 HD
ENDBRANCH  15  19
ENDBRANCH   1   9
BRANCH   6  22
HETATM   22  C4  UNL     1      15.360  48.508 -57.869  1.00  0.00     0.292 C
BRANCH  22  23
HETATM   23  C5  UNL     1      15.682  49.667 -58.794  1.00  0.00     0.333 C
HETATM   24  O1  UNL     1      15.451  50.795 -58.335  1.00  0.00    -0.253 OA
HETATM   25  N7  UNL     1      16.205  49.312 -60.046  1.00  0.00    -0.284 NA
BRANCH  25  26
HETATM   26  N8  UNL     1      16.675  48.992 -61.177  1.00  0.00    -0.220 N
HETATM   27  C6  UNL     1      16.886  49.537 -62.314  1.00  0.00     0.103 C
HETATM   28  C7  UNL     1      16.550  50.951 -62.620  1.00  0.00     0.078 C
HETATM   29  N9  UNL     1      17.459  48.782 -63.381  1.00  0.00    -0.378 N
HETATM   30  C8  UNL     1      17.671  51.534 -63.427  1.00  0.00     0.009 C
HETATM   31  C9  UNL     1      17.970  50.787 -64.684  1.00  0.00     0.020 C
HETATM   32  C10 UNL     1      18.206  49.314 -64.464  1.00  0.00     0.121 C
ATOM     33  H9  UNL     1      17.322  47.772 -63.362  1.00  0.00     0.160 HD
ATOM     34  H8  UNL     1      16.973  48.017 -61.182  1.00  0.00     0.203 HD
ENDBRANCH  25  26
ENDBRANCH  22  23
ENDBRANCH   6  22
TORSDOF 6
ENDMDL