MODEL 2
REMARK VINA RESULT: -7.088486773      2.598      3.471
REMARK  6 active torsions:
REMARK  status: ('A' for Active; 'I' for Inactive)
REMARK    1  A    between atoms: C3_6  and  N3_7
REMARK    2  A    between atoms: C5_14  and  C6_15
REMARK    3  A    between atoms: C6_15  and  O2_16
REMARK    4  A    between atoms: C6_15  and  C7_18
REMARK    5  A    between atoms: C8_23  and  C9_24
REMARK       I    between atoms: C9_24  and  N7_26
REMARK    6  A    between atoms: N7_26  and  N8_28
ROOT
HETATM    1  N1  UNL     1      18.158  49.561 -51.611  1.00  0.00    -0.190 NA
HETATM    2  C1  UNL     1      17.264  48.821 -51.678  1.00  0.00     0.119 C
HETATM    3  C2  UNL     1      16.140  47.928 -51.762  1.00  0.00     0.144 A
HETATM    4  N2  UNL     1      15.130  48.068 -50.863  1.00  0.00    -0.181 N
ATOM      5  H2  UNL     1      15.183  48.785 -50.139  1.00  0.00     0.185 HD
HETATM    6  C3  UNL     1      14.064  47.256 -50.933  1.00  0.00     0.679 A
HETATM    7  N4  UNL     1      14.029  46.326 -51.895  1.00  0.00    -0.156 N
ATOM      8  H4  UNL     1      13.215  45.713 -51.939  1.00  0.00     0.187 HD
HETATM    9  C4  UNL     1      15.001  46.151 -52.803  1.00  0.00     0.271 A
HETATM   10  O1  UNL     1      14.917  45.251 -53.694  1.00  0.00    -0.267 OA
HETATM   11  C5  UNL     1      16.119  46.988 -52.743  1.00  0.00     0.083 A
ENDROOT
BRANCH  11  12
HETATM   12  C6  UNL     1      17.165  46.756 -53.735  1.00  0.00     0.218 C
BRANCH  12  13
HETATM   13  O2  UNL     1      17.418  45.425 -54.022  1.00  0.00    -0.384 OA
ATOM     14  H2  UNL     1      17.698  44.898 -53.282  1.00  0.00     0.211 HD
ENDBRANCH  12  13
BRANCH  12  15
HETATM   15  C7  UNL     1      16.718  47.379 -55.037  1.00  0.00     0.102 A
HETATM   16  N5  UNL     1      15.915  46.843 -55.959  1.00  0.00    -0.294 N
HETATM   17  N6  UNL     1      15.632  47.491 -56.999  1.00  0.00    -0.288 N
ATOM     18  H5  UNL     1      15.532  45.908 -55.820  1.00  0.00     0.187 HD
HETATM   19  C8  UNL     1      16.133  48.712 -57.178  1.00  0.00     0.161 A
ATOM     20  H6  UNL     1      15.019  47.083 -57.706  1.00  0.00     0.188 HD
HETATM   21  S1  UNL     1      17.057  48.895 -55.747  1.00  0.00    -0.048 SA
BRANCH  19  22
HETATM   22  C9  UNL     1      15.936  49.639 -58.305  1.00  0.00     0.294 C
HETATM   23  O3  UNL     1      15.576  50.802 -58.023  1.00  0.00    -0.264 OA
HETATM   24  N7  UNL     1      16.141  49.240 -59.625  1.00  0.00    -0.271 N
ATOM     25  H7  UNL     1      16.436  48.282 -59.814  1.00  0.00     0.189 HD
BRANCH  24  26
HETATM   26  N8  UNL     1      15.958  50.106 -60.684  1.00  0.00    -0.342 N
ATOM     27  H82 UNL     1      16.449  49.909 -61.556  1.00  0.00     0.176 HD
ATOM     28  H81 UNL     1      15.351  50.923 -60.612  1.00  0.00     0.176 HD
ENDBRANCH  24  26
ENDBRANCH  19  22
ENDBRANCH  12  15
ENDBRANCH  11  12
BRANCH   6  29
HETATM   29  N3  UNL     1      13.108  47.394 -50.077  1.00  0.00    -0.234 N
ATOM     30  H32 UNL     1      12.473  46.630 -49.845  1.00  0.00     0.174 HD
ATOM     31  H31 UNL     1      12.979  48.294 -49.614  1.00  0.00     0.174 HD
ENDBRANCH   6  29
TORSDOF 6
ENDMDL