MODEL 5
REMARK VINA RESULT: -6.711523024      3.006      5.827
REMARK  7 active torsions:
REMARK  status: ('A' for Active; 'I' for Inactive)
REMARK    1  A    between atoms: N1_2  and  N2_3
REMARK       I    between atoms: N2_3  and  C2_5
REMARK    2  A    between atoms: C2_5  and  C3_7
REMARK    3  A    between atoms: C3_7  and  C4_8
REMARK    4  A    between atoms: N3_10  and  N4_12
REMARK    5  A    between atoms: N4_12  and  C6_14
REMARK    6  A    between atoms: C8_21  and  N7_22
REMARK    7  A    between atoms: N9_27  and  O2_28
ROOT
HETATM    1  C6  UNL     1      15.677  46.550 -51.144  1.00  0.00     0.140 A
HETATM    2  S1  UNL     1      16.740  47.715 -50.510  1.00  0.00     0.024 SA
HETATM    3  N5  UNL     1      16.300  48.231 -48.951  1.00  0.00    -0.267 N
ATOM      4  H5  UNL     1      16.834  48.927 -48.429  1.00  0.00     0.195 HD
HETATM    5  N6  UNL     1      15.229  47.667 -48.478  1.00  0.00    -0.289 N
ATOM      6  H6  UNL     1      14.944  47.960 -47.543  1.00  0.00     0.188 HD
HETATM    7  C7  UNL     1      14.456  46.749 -49.068  1.00  0.00     0.127 A
HETATM    8  C8  UNL     1      13.309  46.175 -48.508  1.00  0.00     0.146 A
HETATM    9  N8  UNL     1      12.835  45.314 -49.414  1.00  0.00    -0.257 N
ATOM     10  H8  UNL     1      12.002  44.736 -49.299  1.00  0.00     0.191 HD
HETATM   11  N9  UNL     1      13.621  45.326 -50.492  1.00  0.00    -0.157 N
HETATM   12  C9  UNL     1      14.640  46.209 -50.311  1.00  0.00     0.149 A
ENDROOT
BRANCH   1  13
HETATM   13  N4  UNL     1      15.785  45.998 -52.305  1.00  0.00    -0.291 N
ATOM     14  H4  UNL     1      15.526  45.023 -52.456  1.00  0.00     0.187 HD
BRANCH  13  15
HETATM   15  N3  UNL     1      16.261  46.778 -53.327  1.00  0.00    -0.308 N
HETATM   16  C4  UNL     1      17.365  46.730 -53.946  1.00  0.00     0.008 C
HETATM   17  C5  UNL     1      18.374  45.710 -53.579  1.00  0.00     0.065 C
ATOM     18  H3  UNL     1      15.625  47.513 -53.638  1.00  0.00     0.186 HD
BRANCH  16  19
HETATM   19  C3  UNL     1      17.616  47.716 -55.027  1.00  0.00     0.157 C
BRANCH  19  20
HETATM   20  C2  UNL     1      16.601  47.582 -56.119  1.00  0.00     0.238 C
HETATM   21  N2  UNL     1      15.953  48.714 -56.666  1.00  0.00    -0.274 N
ATOM     22  H2  UNL     1      16.197  49.631 -56.292  1.00  0.00     0.185 HD
HETATM   23  O1  UNL     1      16.323  46.431 -56.556  1.00  0.00    -0.272 OA
BRANCH  21  24
HETATM   24  N1  UNL     1      15.008  48.656 -57.677  1.00  0.00    -0.143 NA
HETATM   25  C1  UNL     1      15.452  49.361 -58.870  1.00  0.00     0.159 C
ENDBRANCH  21  24
ENDBRANCH  19  20
ENDBRANCH  16  19
ENDBRANCH  13  15
ENDBRANCH   1  13
BRANCH  11  26
HETATM   26  O2  UNL     1      13.384  44.542 -51.589  1.00  0.00    -0.267 OA
ATOM     27  H2  UNL     1      13.631  44.802 -52.469  1.00  0.00     0.247 HD
ENDBRANCH  11  26
BRANCH   8  28
HETATM   28  N7  UNL     1      12.782  46.391 -47.372  1.00  0.00    -0.382 N
ATOM     29  H72 UNL     1      13.102  45.976 -46.496  1.00  0.00     0.157 HD
ATOM     30  H71 UNL     1      11.988  46.986 -47.137  1.00  0.00     0.157 HD
ENDBRANCH   8  28
TORSDOF 7
ENDMDL