MODEL 4
REMARK VINA RESULT: -6.638190208      1.969      2.770
REMARK  6 active torsions:
REMARK  status: ('A' for Active; 'I' for Inactive)
REMARK    1  A    between atoms: C2_2  and  S1_3
REMARK    2  A    between atoms: C2_2  and  C8_23
REMARK    3  A    between atoms: S1_3  and  C3_4
REMARK    4  A    between atoms: C4_7  and  N2_8
REMARK    5  A    between atoms: C6_15  and  C7_16
REMARK       I    between atoms: C7_16  and  N4_18
REMARK    6  A    between atoms: N4_18  and  N5_20
ROOT
HETATM    1  C3  UNL     1      16.116  47.144 -52.110  1.00  0.00     0.108 A
HETATM    2  N1  UNL     1      15.083  47.001 -51.254  1.00  0.00    -0.185 N
ATOM      3  H1  UNL     1      15.144  47.445 -50.337  1.00  0.00     0.185 HD
HETATM    4  C4  UNL     1      13.982  46.302 -51.554  1.00  0.00     0.679 A
HETATM    5  N3  UNL     1      13.941  45.737 -52.769  1.00  0.00    -0.155 N
ATOM      6  H3  UNL     1      13.109  45.201 -53.016  1.00  0.00     0.187 HD
HETATM    7  C5  UNL     1      14.915  45.826 -53.678  1.00  0.00     0.278 A
HETATM    8  O1  UNL     1      14.822  45.270 -54.812  1.00  0.00    -0.266 OA
HETATM    9  C6  UNL     1      16.071  46.560 -53.358  1.00  0.00     0.136 A
ENDROOT
BRANCH   1  10
HETATM   10  S1  UNL     1      17.475  48.110 -51.584  1.00  0.00    -0.098 SA
BRANCH  10  11
HETATM   11  C2  UNL     1      18.612  47.317 -50.453  1.00  0.00     0.120 C
HETATM   12  C1  UNL     1      19.393  48.304 -49.616  1.00  0.00     0.030 C
BRANCH  11  13
HETATM   13  C8  UNL     1      19.502  46.306 -51.073  1.00  0.00     0.127 A
HETATM   14  N6  UNL     1      20.119  45.403 -50.294  1.00  0.00    -0.271 N
HETATM   15  N7  UNL     1      20.922  44.491 -50.822  1.00  0.00    -0.226 N
ATOM     16  H6  UNL     1      19.967  45.419 -49.285  1.00  0.00     0.190 HD
HETATM   17  N8  UNL     1      21.149  44.431 -52.132  1.00  0.00    -0.213 N
ATOM     18  H7  UNL     1      21.379  43.817 -50.208  1.00  0.00     0.210 HD
HETATM   19  N9  UNL     1      20.555  45.304 -52.900  1.00  0.00    -0.226 N
ATOM     20  H8  UNL     1      21.769  43.722 -52.525  1.00  0.00     0.211 HD
HETATM   21  N10 UNL     1      19.740  46.232 -52.392  1.00  0.00    -0.271 N
ATOM     22  H9  UNL     1      20.715  45.276 -53.907  1.00  0.00     0.210 HD
ATOM     23  H10 UNL     1      19.289  46.899 -53.019  1.00  0.00     0.190 HD
ENDBRANCH  11  13
ENDBRANCH  10  11
ENDBRANCH   1  10
BRANCH   9  24
HETATM   24  C7  UNL     1      17.113  46.570 -54.341  1.00  0.00     0.278 C
HETATM   25  O2  UNL     1      17.846  45.506 -54.407  1.00  0.00    -0.266 OA
HETATM   26  N4  UNL     1      17.484  47.558 -55.261  1.00  0.00    -0.272 N
ATOM     27  H4  UNL     1      16.967  48.438 -55.278  1.00  0.00     0.189 HD
BRANCH  26  28
HETATM   28  N5  UNL     1      18.553  47.375 -56.166  1.00  0.00    -0.342 N
ATOM     29  H52 UNL     1      19.500  47.543 -55.828  1.00  0.00     0.176 HD
ATOM     30  H51 UNL     1      18.400  47.083 -57.131  1.00  0.00     0.176 HD
ENDBRANCH  26  28
ENDBRANCH   9  24
BRANCH   4  31
HETATM   31  N2  UNL     1      13.011  46.181 -50.715  1.00  0.00    -0.234 N
ATOM     32  H22 UNL     1      12.036  46.248 -51.007  1.00  0.00     0.174 HD
ATOM     33  H21 UNL     1      13.181  46.013 -49.724  1.00  0.00     0.174 HD
ENDBRANCH   4  31
TORSDOF 6
ENDMDL