MODEL 2
REMARK VINA RESULT: -7.305178997      1.562      2.068
REMARK  7 active torsions:
REMARK  status: ('A' for Active; 'I' for Inactive)
REMARK    1  A    between atoms: N1_1  and  C1_4
REMARK    2  A    between atoms: C2_13  and  C3_14
REMARK    3  A    between atoms: C3_14  and  C4_16
REMARK    4  A    between atoms: C4_16  and  S1_17
REMARK    5  A    between atoms: S1_17  and  C5_18
REMARK    6  A    between atoms: C8_27  and  N9_28
REMARK    7  A    between atoms: N9_28  and  N10_30
ROOT
HETATM    1  C5  UNL     1      15.668  46.231 -53.846  1.00  0.00     0.102 A
HETATM    2  N6  UNL     1      15.299  46.610 -55.069  1.00  0.00    -0.345 N
ATOM      3  H6  UNL     1      14.302  46.672 -55.277  1.00  0.00     0.167 HD
HETATM    4  C6  UNL     1      16.186  46.919 -56.055  1.00  0.00     0.183 A
HETATM    5  N7  UNL     1      17.512  46.856 -55.837  1.00  0.00    -0.336 N
ATOM      6  H7  UNL     1      18.178  47.087 -56.574  1.00  0.00     0.168 HD
HETATM    7  C7  UNL     1      17.932  46.477 -54.612  1.00  0.00     0.152 A
HETATM    8  N8  UNL     1      19.190  46.338 -54.147  1.00  0.00    -0.173 N
ATOM      9  H8  UNL     1      20.052  46.504 -54.667  1.00  0.00     0.186 HD
HETATM   10  C8  UNL     1      19.092  45.946 -52.884  1.00  0.00     0.698 A
HETATM   11  N11 UNL     1      17.782  45.836 -52.551  1.00  0.00    -0.184 N
ATOM     12  H11 UNL     1      17.421  45.550 -51.640  1.00  0.00     0.184 HD
HETATM   13  C9  UNL     1      17.045  46.161 -53.608  1.00  0.00     0.127 A
ENDROOT
BRANCH   1  14
HETATM   14  S1  UNL     1      14.584  45.811 -52.505  1.00  0.00    -0.102 SA
BRANCH  14  15
HETATM   15  C4  UNL     1      14.582  47.100 -51.277  1.00  0.00     0.166 C
BRANCH  15  16
HETATM   16  C3  UNL     1      13.397  47.059 -50.367  1.00  0.00     0.190 C
HETATM   17  O1  UNL     1      12.373  46.484 -50.783  1.00  0.00    -0.290 OA
BRANCH  16  18
HETATM   18  C2  UNL     1      13.417  47.656 -49.055  1.00  0.00     0.141 A
HETATM   19  C1  UNL     1      13.208  46.900 -47.940  1.00  0.00     0.147 A
HETATM   20  N2  UNL     1      13.217  47.442 -46.691  1.00  0.00    -0.268 N
HETATM   21  N3  UNL     1      13.443  48.742 -46.649  1.00  0.00    -0.227 N
ATOM     22  H2  UNL     1      13.061  46.886 -45.851  1.00  0.00     0.190 HD
HETATM   23  N4  UNL     1      13.647  49.483 -47.717  1.00  0.00    -0.228 N
ATOM     24  H3  UNL     1      13.460  49.199 -45.737  1.00  0.00     0.210 HD
HETATM   25  N5  UNL     1      13.640  48.964 -48.940  1.00  0.00    -0.278 N
ATOM     26  H4  UNL     1      13.815  50.482 -47.603  1.00  0.00     0.210 HD
ATOM     27  H5  UNL     1      13.800  49.547 -49.762  1.00  0.00     0.189 HD
BRANCH  19  28
HETATM   28  N1  UNL     1      12.992  45.643 -48.036  1.00  0.00    -0.382 N
ATOM     29  H12 UNL     1      12.064  45.259 -47.854  1.00  0.00     0.157 HD
ATOM     30  H11 UNL     1      13.779  45.048 -48.296  1.00  0.00     0.157 HD
ENDBRANCH  19  28
ENDBRANCH  16  18
ENDBRANCH  15  16
ENDBRANCH  14  15
ENDBRANCH   1  14
BRANCH  10  31
HETATM   31  N9  UNL     1      20.066  45.695 -52.051  1.00  0.00    -0.138 N
ATOM     32  H9  UNL     1      20.127  46.217 -51.176  1.00  0.00     0.205 HD
BRANCH  31  33
HETATM   33  N10 UNL     1      21.015  44.733 -52.338  1.00  0.00    -0.331 N
ATOM     34 2H10 UNL     1      21.009  44.305 -53.264  1.00  0.00     0.177 HD
ATOM     35 1H10 UNL     1      21.707  44.456 -51.642  1.00  0.00     0.177 HD
ENDBRANCH  31  33
ENDBRANCH  10  31
TORSDOF 7
ENDMDL