MODEL 5
REMARK VINA RESULT: -7.060095851      2.494      6.558
REMARK  6 active torsions:
REMARK  status: ('A' for Active; 'I' for Inactive)
REMARK    1  A    between atoms: N1_2  and  C2_4
REMARK    2  A    between atoms: C4_6  and  N2_7
REMARK    3  A    between atoms: N2_7  and  N3_9
REMARK    4  A    between atoms: C5_11  and  C6_12
REMARK    5  A    between atoms: C8_22  and  N8_23
REMARK    6  A    between atoms: C9_30  and  N12_31
ROOT
HETATM    1  C2  UNL     1      15.421  49.176 -48.093  1.00  0.00     0.120 A
HETATM    2  C3  UNL     1      14.878  50.215 -48.822  1.00  0.00     0.099 A
HETATM    3  C4  UNL     1      13.544  50.492 -48.634  1.00  0.00     0.139 A
HETATM    4  N7  UNL     1      12.800  49.771 -47.767  1.00  0.00    -0.173 N
ATOM      5  H7  UNL     1      11.814  49.999 -47.648  1.00  0.00     0.186 HD
HETATM    6  C8  UNL     1      13.333  48.758 -47.058  1.00  0.00     0.723 A
HETATM    7  N13 UNL     1      14.635  48.483 -47.237  1.00  0.00    -0.174 N
ATOM      8  H13 UNL     1      15.049  47.717 -46.705  1.00  0.00     0.186 HD
ENDROOT
BRANCH   3   9
HETATM    9  N2  UNL     1      12.964  51.569 -49.384  1.00  0.00    -0.285 N
ATOM     10  H2  UNL     1      12.841  52.468 -48.918  1.00  0.00     0.188 HD
BRANCH   9  11
HETATM   11  N3  UNL     1      12.568  51.459 -50.687  1.00  0.00    -0.308 N
HETATM   12  C5  UNL     1      12.296  52.376 -51.472  1.00  0.00     0.139 C
ATOM     13  H3  UNL     1      12.486  50.511 -51.055  1.00  0.00     0.186 HD
BRANCH  12  14
HETATM   14  C6  UNL     1      12.334  53.794 -51.194  1.00  0.00     0.083 A
HETATM   15  C7  UNL     1      11.336  54.721 -51.064  1.00  0.00     0.141 A
HETATM   16  N4  UNL     1      11.918  55.930 -50.800  1.00  0.00    -0.295 N
HETATM   17  N5  UNL     1      13.213  55.750 -50.772  1.00  0.00    -0.243 N
ATOM     18  H4  UNL     1      11.430  56.812 -50.652  1.00  0.00     0.187 HD
HETATM   19  N6  UNL     1      13.492  54.512 -50.998  1.00  0.00    -0.284 N
ATOM     20  H5  UNL     1      13.901  56.482 -50.596  1.00  0.00     0.208 HD
ATOM     21  H6  UNL     1      14.435  54.122 -51.028  1.00  0.00     0.188 HD
ENDBRANCH  12  14
ENDBRANCH   9  11
ENDBRANCH   3   9
BRANCH   1  22
HETATM   22  N1  UNL     1      16.676  48.905 -48.262  1.00  0.00    -0.380 N
HETATM   23  C1  UNL     1      17.469  48.240 -47.256  1.00  0.00     0.147 C
ATOM     24  H1  UNL     1      17.121  49.172 -49.140  1.00  0.00     0.160 HD
ENDBRANCH   1  22
BRANCH   6  25
HETATM   25  N8  UNL     1      12.539  48.003 -46.144  1.00  0.00     0.107 N
HETATM   26  N9  UNL     1      11.954  48.499 -45.070  1.00  0.00    -0.191 N
HETATM   27  N10 UNL     1      11.293  47.559 -44.429  1.00  0.00    -0.212 N
ATOM     28  H9  UNL     1      12.008  49.475 -44.777  1.00  0.00     0.211 HD
HETATM   29  N11 UNL     1      11.460  46.443 -45.109  1.00  0.00    -0.114 N
ATOM     30  H10 UNL     1      10.754  47.673 -43.569  1.00  0.00     0.210 HD
HETATM   31  C9  UNL     1      12.222  46.712 -46.160  1.00  0.00     0.729 A
ATOM     32  H11 UNL     1      11.071  45.532 -44.869  1.00  0.00     0.207 HD
BRANCH  31  33
HETATM   33  N12 UNL     1      12.608  45.883 -47.063  1.00  0.00    -0.231 N
ATOM     34 2H12 UNL     1      13.527  45.845 -47.503  1.00  0.00     0.174 HD
ATOM     35 1H12 UNL     1      12.022  45.146 -47.453  1.00  0.00     0.174 HD
ENDBRANCH  31  33
ENDBRANCH   6  25
TORSDOF 6
ENDMDL