MODEL 4
REMARK VINA RESULT: -7.394669197      1.515      8.297
REMARK  8 active torsions:
REMARK  status: ('A' for Active; 'I' for Inactive)
REMARK    1  A    between atoms: N1_1  and  C1_4
REMARK    2  A    between atoms: N3_8  and  C3_9
REMARK    3  A    between atoms: C3_9  and  C4_10
REMARK    4  A    between atoms: C4_10  and  C5_11
REMARK    5  A    between atoms: C5_11  and  N4_12
REMARK    6  A    between atoms: C7_14  and  N5_15
REMARK    7  A    between atoms: C9_19  and  N7_20
REMARK    8  A    between atoms: C10_28  and  N11_29
ROOT
HETATM    1  C5  UNL     1      13.683  46.793 -51.298  1.00  0.00     0.147 C
ENDROOT
BRANCH   1   2
HETATM    2  C4  UNL     1      14.432  45.638 -51.922  1.00  0.00     0.042 C
BRANCH   2   3
HETATM    3  C3  UNL     1      15.210  46.060 -53.139  1.00  0.00     0.150 C
BRANCH   3   4
HETATM    4  N3  UNL     1      16.631  45.910 -52.891  1.00  0.00    -0.179 N
HETATM    5  C2  UNL     1      17.126  45.828 -51.637  1.00  0.00     0.218 A
HETATM    6  N2  UNL     1      18.443  45.691 -51.448  1.00  0.00    -0.187 N
HETATM    7  C1  UNL     1      19.294  45.630 -52.484  1.00  0.00     0.691 A
ATOM      8  H2  UNL     1      18.808  45.631 -50.497  1.00  0.00     0.185 HD
HETATM    9  N12 UNL     1      18.834  45.707 -53.740  1.00  0.00    -0.023 N
HETATM   10  C10 UNL     1      17.509  45.846 -53.923  1.00  0.00     0.693 A
ATOM     11  H12 UNL     1      19.471  45.662 -54.536  1.00  0.00     0.203 HD
BRANCH   7  12
HETATM   12  N1  UNL     1      20.581  45.495 -52.292  1.00  0.00    -0.234 N
ATOM     13  H12 UNL     1      20.934  45.461 -51.336  1.00  0.00     0.174 HD
ATOM     14  H11 UNL     1      21.226  45.424 -53.080  1.00  0.00     0.174 HD
ENDBRANCH   7  12
BRANCH  10  15
HETATM   15  N11 UNL     1      17.028  45.924 -55.118  1.00  0.00    -0.234 N
ATOM     16 2H11 UNL     1      16.640  45.094 -55.566  1.00  0.00     0.174 HD
ATOM     17 1H11 UNL     1      17.054  46.834 -55.576  1.00  0.00     0.174 HD
ENDBRANCH  10  15
ENDBRANCH   3   4
ENDBRANCH   2   3
ENDBRANCH   1   2
BRANCH   1  18
HETATM   18  N4  UNL     1      13.260  46.440 -49.940  1.00  0.00    -0.283 N
HETATM   19  C6  UNL     1      13.439  47.152 -48.812  1.00  0.00     0.159 A
HETATM   20  C7  UNL     1      12.898  46.484 -47.732  1.00  0.00     0.158 A
HETATM   21  N9  UNL     1      12.391  45.350 -48.254  1.00  0.00    -0.267 N
HETATM   22  N10 UNL     1      12.618  45.344 -49.574  1.00  0.00    -0.019 NA
ATOM     23  H9  UNL     1      11.913  44.617 -47.730  1.00  0.00     0.186 HD
BRANCH  20  24
HETATM   24  N5  UNL     1      12.858  46.861 -46.359  1.00  0.00    -0.218 N
HETATM   25  C8  UNL     1      11.804  46.748 -45.516  1.00  0.00     0.226 A
HETATM   26  N6  UNL     1      12.154  47.212 -44.297  1.00  0.00    -0.185 N
HETATM   27  C9  UNL     1      13.421  47.615 -44.371  1.00  0.00     0.691 A
ATOM     28  H6  UNL     1      11.557  47.247 -43.470  1.00  0.00     0.185 HD
HETATM   29  N8  UNL     1      13.825  47.392 -45.631  1.00  0.00    -0.123 N
ATOM     30  H8  UNL     1      14.758  47.606 -45.982  1.00  0.00     0.206 HD
BRANCH  27  31
HETATM   31  N7  UNL     1      14.172  48.135 -43.429  1.00  0.00    -0.233 N
ATOM     32  H72 UNL     1      14.003  49.039 -42.987  1.00  0.00     0.174 HD
ATOM     33  H71 UNL     1      15.010  47.749 -42.996  1.00  0.00     0.174 HD
ENDBRANCH  27  31
ENDBRANCH  20  24
ENDBRANCH   1  18
TORSDOF 8
ENDMDL