MODEL 3
REMARK VINA RESULT: -7.009235496      1.924      2.197
REMARK  7 active torsions:
REMARK  status: ('A' for Active; 'I' for Inactive)
REMARK    1  A    between atoms: C2_2  and  N1_3
REMARK    2  A    between atoms: N4_8  and  C3_9
REMARK    3  A    between atoms: C3_9  and  S1_10
REMARK    4  A    between atoms: S1_10  and  C4_11
REMARK    5  A    between atoms: C7_20  and  N8_21
REMARK    6  A    between atoms: C9_27  and  N10_28
REMARK    7  A    between atoms: N10_28  and  N11_30
ROOT
HETATM    1  C4  UNL     1      14.799  47.358 -48.498  1.00  0.00     0.103 A
HETATM    2  N5  UNL     1      13.496  47.349 -48.926  1.00  0.00    -0.345 N
ATOM      3  H5  UNL     1      12.791  47.772 -48.322  1.00  0.00     0.167 HD
HETATM    4  C5  UNL     1      13.094  46.824 -50.078  1.00  0.00     0.183 A
HETATM    5  N6  UNL     1      13.949  46.247 -50.934  1.00  0.00    -0.336 N
ATOM      6  H6  UNL     1      13.638  45.844 -51.818  1.00  0.00     0.168 HD
HETATM    7  C6  UNL     1      15.251  46.229 -50.557  1.00  0.00     0.152 A
HETATM    8  N7  UNL     1      16.316  45.727 -51.197  1.00  0.00    -0.174 N
ATOM      9  H7  UNL     1      16.307  45.262 -52.104  1.00  0.00     0.186 HD
HETATM   10  C7  UNL     1      17.391  45.945 -50.435  1.00  0.00     0.678 A
HETATM   11  N9  UNL     1      17.025  46.583 -49.307  1.00  0.00    -0.185 N
ATOM     12  H9  UNL     1      17.644  46.871 -48.550  1.00  0.00     0.184 HD
HETATM   13  C8  UNL     1      15.697  46.772 -49.358  1.00  0.00     0.127 A
ENDROOT
BRANCH   1  14
HETATM   14  S1  UNL     1      15.218  48.086 -46.948  1.00  0.00    -0.087 SA
BRANCH  14  15
HETATM   15  C3  UNL     1      14.229  47.686 -45.553  1.00  0.00     0.250 C
BRANCH  15  16
HETATM   16  N4  UNL     1      12.977  48.470 -45.651  1.00  0.00    -0.096 N
HETATM   17  N3  UNL     1      12.804  49.677 -46.131  1.00  0.00    -0.210 N
HETATM   18  N2  UNL     1      11.537  50.016 -46.036  1.00  0.00    -0.211 N
ATOM     19  H3  UNL     1      13.542  50.264 -46.520  1.00  0.00     0.210 HD
HETATM   20  N1  UNL     1      10.853  49.000 -45.477  1.00  0.00    -0.106 N
ATOM     21  H2  UNL     1      11.138  50.905 -46.338  1.00  0.00     0.210 HD
HETATM   22  C9  UNL     1      11.733  48.053 -45.239  1.00  0.00     0.733 A
BRANCH  20  23
HETATM   23  C2  UNL     1       9.427  48.983 -45.215  1.00  0.00     0.165 C
HETATM   24  C1  UNL     1       8.658  49.933 -46.074  1.00  0.00     0.029 C
ENDBRANCH  20  23
BRANCH  22  25
HETATM   25  N10 UNL     1      11.563  46.904 -44.706  1.00  0.00    -0.136 N
ATOM     26  H10 UNL     1      11.371  46.141 -45.353  1.00  0.00     0.205 HD
BRANCH  25  27
HETATM   27  N11 UNL     1      11.605  46.559 -43.373  1.00  0.00    -0.331 N
ATOM     28 2H11 UNL     1      10.748  46.132 -43.021  1.00  0.00     0.177 HD
ATOM     29 1H11 UNL     1      12.369  46.674 -42.708  1.00  0.00     0.177 HD
ENDBRANCH  25  27
ENDBRANCH  22  25
ENDBRANCH  15  16
ENDBRANCH  14  15
ENDBRANCH   1  14
BRANCH  10  30
HETATM   30  N8  UNL     1      18.606  45.589 -50.744  1.00  0.00    -0.234 N
ATOM     31  H82 UNL     1      19.288  46.170 -51.234  1.00  0.00     0.174 HD
ATOM     32  H81 UNL     1      19.019  44.682 -50.529  1.00  0.00     0.174 HD
ENDBRANCH  10  30
TORSDOF 7
ENDMDL