MODEL 4
REMARK VINA RESULT: -7.040703969      3.110      7.411
REMARK  7 active torsions:
REMARK  status: ('A' for Active; 'I' for Inactive)
REMARK    1  A    between atoms: C2_6  and  C3_7
REMARK    2  A    between atoms: N4_8  and  N5_10
REMARK    3  A    between atoms: N5_10  and  C4_12
REMARK    4  A    between atoms: C5_15  and  C6_16
REMARK    5  A    between atoms: C6_16  and  S1_17
REMARK    6  A    between atoms: S1_17  and  C7_18
REMARK    7  A    between atoms: C8_25  and  N10_26
ROOT
HETATM    1  C4  UNL     1      15.754  47.343 -45.400  1.00  0.00     0.712 A
HETATM    2  N6  UNL     1      15.771  47.660 -46.703  1.00  0.00    -0.177 N
ATOM      3  H6  UNL     1      15.207  48.441 -47.038  1.00  0.00     0.185 HD
HETATM    4  C5  UNL     1      16.522  46.964 -47.571  1.00  0.00     0.123 A
HETATM    5  N9  UNL     1      17.274  45.920 -47.098  1.00  0.00    -0.179 N
ATOM      6  H9  UNL     1      17.849  45.383 -47.747  1.00  0.00     0.185 HD
HETATM    7  C8  UNL     1      17.266  45.591 -45.796  1.00  0.00     0.691 A
HETATM    8  N11 UNL     1      16.500  46.310 -44.946  1.00  0.00    -0.021 N
ATOM      9  H11 UNL     1      16.483  46.073 -43.954  1.00  0.00     0.203 HD
ENDROOT
BRANCH   1  10
HETATM   10  N5  UNL     1      15.036  48.006 -44.559  1.00  0.00    -0.132 N
ATOM     11  H5  UNL     1      15.444  48.274 -43.664  1.00  0.00     0.205 HD
BRANCH  10  12
HETATM   12  N4  UNL     1      13.716  48.367 -44.837  1.00  0.00    -0.294 N
HETATM   13  C3  UNL     1      12.805  47.482 -45.015  1.00  0.00     0.158 C
ATOM     14  H4  UNL     1      13.471  49.355 -44.900  1.00  0.00     0.186 HD
BRANCH  13  15
HETATM   15  C2  UNL     1      11.426  47.833 -45.305  1.00  0.00     0.151 A
HETATM   16  N3  UNL     1      10.372  47.013 -45.473  1.00  0.00    -0.266 N
HETATM   17  N2  UNL     1       9.291  47.733 -45.722  1.00  0.00    -0.003 NA
ATOM     18  H3  UNL     1      10.401  45.995 -45.416  1.00  0.00     0.186 HD
HETATM   19  N1  UNL     1       9.635  49.016 -45.717  1.00  0.00    -0.221 N
HETATM   20  C1  UNL     1       8.740  50.109 -45.947  1.00  0.00     0.197 C
HETATM   21  N12 UNL     1      10.944  49.076 -45.461  1.00  0.00    -0.269 N
ATOM     22  H12 UNL     1      11.493  49.934 -45.395  1.00  0.00     0.190 HD
ENDBRANCH  13  15
ENDBRANCH  10  12
ENDBRANCH   1  10
BRANCH   4  23
HETATM   23  C6  UNL     1      16.580  47.246 -49.023  1.00  0.00     0.159 C
BRANCH  23  24
HETATM   24  S1  UNL     1      16.110  45.837 -49.993  1.00  0.00    -0.090 SA
BRANCH  24  25
HETATM   25  C7  UNL     1      14.394  45.648 -50.332  1.00  0.00     0.148 C
HETATM   26  N7  UNL     1      13.464  46.200 -49.652  1.00  0.00    -0.382 N
ATOM     27  H72 UNL     1      13.729  46.783 -48.858  1.00  0.00     0.157 HD
ATOM     28  H71 UNL     1      12.470  46.090 -49.849  1.00  0.00     0.157 HD
HETATM   29  N8  UNL     1      14.021  44.827 -51.449  1.00  0.00    -0.075 NA
ENDBRANCH  24  25
ENDBRANCH  23  24
ENDBRANCH   4  23
BRANCH   7  30
HETATM   30  N10 UNL     1      17.950  44.622 -45.289  1.00  0.00    -0.234 N
ATOM     31 2H10 UNL     1      18.959  44.756 -45.217  1.00  0.00     0.174 HD
ATOM     32 1H10 UNL     1      17.546  43.745 -44.961  1.00  0.00     0.174 HD
ENDBRANCH   7  30
TORSDOF 7
ENDMDL