MODEL 5
REMARK VINA RESULT: -7.929154926      1.498      8.174
REMARK  5 active torsions:
REMARK  status: ('A' for Active; 'I' for Inactive)
REMARK    1  A    between atoms: N5_15  and  C6_16
REMARK    2  A    between atoms: C6_16  and  C7_17
REMARK    3  A    between atoms: N7_20  and  C8_21
REMARK    4  A    between atoms: C8_21  and  C9_22
REMARK    5  A    between atoms: C10_30  and  N12_31
ROOT
HETATM    1  C7  UNL     1      14.938  48.004 -50.224  1.00  0.00     0.131 A
HETATM    2  N6  UNL     1      16.128  47.641 -50.737  1.00  0.00    -0.270 N
ATOM      3  H6  UNL     1      17.033  48.009 -50.445  1.00  0.00     0.189 HD
HETATM    4  N7  UNL     1      15.937  46.720 -51.689  1.00  0.00    -0.116 N
HETATM    5  C10 UNL     1      14.618  46.484 -51.798  1.00  0.00     0.694 A
HETATM    6  N13 UNL     1      14.026  47.280 -50.892  1.00  0.00    -0.176 N
ATOM      7  H13 UNL     1      13.019  47.328 -50.733  1.00  0.00     0.185 HD
ENDROOT
BRANCH   1   8
HETATM    8  C6  UNL     1      14.720  48.999 -49.149  1.00  0.00     0.210 C
BRANCH   8   9
HETATM    9  N5  UNL     1      14.074  48.383 -47.993  1.00  0.00    -0.320 N
HETATM   10  C3  UNL     1      13.076  48.865 -47.232  1.00  0.00     0.140 A
HETATM   11  N3  UNL     1      12.406  50.024 -47.320  1.00  0.00    -0.336 N
HETATM   12  C4  UNL     1      12.755  47.976 -46.241  1.00  0.00     0.122 A
HETATM   13  C2  UNL     1      11.435  50.270 -46.421  1.00  0.00     0.183 A
ATOM     14  H3  UNL     1      12.627  50.701 -48.049  1.00  0.00     0.168 HD
HETATM   15  N2  UNL     1      11.108  49.396 -45.435  1.00  0.00    -0.337 N
HETATM   16  C1  UNL     1      11.754  48.223 -45.309  1.00  0.00     0.131 A
ATOM     17  H2  UNL     1      10.363  49.633 -44.780  1.00  0.00     0.168 HD
HETATM   18  N1  UNL     1      11.448  47.390 -44.375  1.00  0.00    -0.383 N
ATOM     19  H12 UNL     1      10.713  47.572 -43.691  1.00  0.00     0.157 HD
ATOM     20  H11 UNL     1      11.937  46.500 -44.279  1.00  0.00     0.157 HD
HETATM   21  N4  UNL     1      13.576  46.927 -46.399  1.00  0.00    -0.346 N
HETATM   22  C5  UNL     1      14.370  47.177 -47.458  1.00  0.00     0.185 A
ATOM     23  H4  UNL     1      13.595  46.088 -45.820  1.00  0.00     0.167 HD
ENDBRANCH   8   9
ENDBRANCH   1   8
BRANCH   4  24
HETATM   24  C8  UNL     1      17.014  46.119 -52.441  1.00  0.00     0.247 C
BRANCH  24  25
HETATM   25  C9  UNL     1      17.291  46.839 -53.693  1.00  0.00     0.130 A
HETATM   26  N8  UNL     1      18.168  46.459 -54.639  1.00  0.00    -0.269 N
HETATM   27  N9  UNL     1      18.178  47.329 -55.642  1.00  0.00    -0.005 NA
ATOM     28  H8  UNL     1      18.745  45.619 -54.593  1.00  0.00     0.185 HD
HETATM   29  N10 UNL     1      17.290  48.270 -55.314  1.00  0.00    -0.225 N
HETATM   30  N11 UNL     1      16.752  47.991 -54.152  1.00  0.00    -0.274 N
ATOM     31  H10 UNL     1      17.064  49.086 -55.883  1.00  0.00     0.205 HD
ATOM     32  H11 UNL     1      16.046  48.549 -53.674  1.00  0.00     0.189 HD
ENDBRANCH  24  25
ENDBRANCH   4  24
BRANCH   5  33
HETATM   33  N12 UNL     1      14.038  45.646 -52.621  1.00  0.00    -0.233 N
ATOM     34 2H12 UNL     1      13.164  45.141 -52.478  1.00  0.00     0.174 HD
ATOM     35 1H12 UNL     1      14.374  45.367 -53.543  1.00  0.00     0.174 HD
ENDBRANCH   5  33
TORSDOF 5
ENDMDL