MODEL 4
REMARK VINA RESULT: -7.135100040      6.006      8.575
REMARK  7 active torsions:
REMARK  status: ('A' for Active; 'I' for Inactive)
REMARK    1  A    between atoms: N1_1  and  C1_4
REMARK    2  A    between atoms: C5_14  and  C6_15
REMARK    3  A    between atoms: N7_19  and  C7_20
REMARK    4  A    between atoms: C7_20  and  C8_21
REMARK    5  A    between atoms: C8_21  and  C9_22
REMARK    6  A    between atoms: C9_22  and  C10_23
REMARK    7  A    between atoms: C10_23  and  O1_24
ROOT
HETATM    1  C1  UNL     1      14.791  47.954 -44.702  1.00  0.00     0.132 A
HETATM    2  N2  UNL     1      16.012  47.432 -44.488  1.00  0.00    -0.337 N
ATOM      3  H2  UNL     1      16.196  46.920 -43.625  1.00  0.00     0.168 HD
HETATM    4  C2  UNL     1      16.994  47.577 -45.398  1.00  0.00     0.183 A
HETATM    5  N3  UNL     1      16.731  48.257 -46.533  1.00  0.00    -0.336 N
ATOM      6  H3  UNL     1      17.471  48.370 -47.226  1.00  0.00     0.168 HD
HETATM    7  C3  UNL     1      15.509  48.796 -46.782  1.00  0.00     0.140 A
HETATM    8  N4  UNL     1      14.976  49.500 -47.787  1.00  0.00    -0.323 N
ATOM      9  H4  UNL     1      15.481  49.770 -48.631  1.00  0.00     0.169 HD
HETATM   10  C4  UNL     1      13.688  49.806 -47.544  1.00  0.00     0.160 A
HETATM   11  C5  UNL     1      12.540  50.433 -48.007  1.00  0.00     0.138 A
HETATM   12  N9  UNL     1      11.598  50.269 -47.084  1.00  0.00    -0.277 N
ATOM     13  H9  UNL     1      10.640  50.617 -47.133  1.00  0.00     0.184 HD
HETATM   14  N10 UNL     1      12.128  49.571 -46.089  1.00  0.00    -0.013 NA
HETATM   15  N11 UNL     1      13.393  49.273 -46.332  1.00  0.00    -0.214 N
HETATM   16  C11 UNL     1      14.489  48.657 -45.858  1.00  0.00     0.144 A
ENDROOT
BRANCH  11  17
HETATM   17  C6  UNL     1      12.436  51.140 -49.295  1.00  0.00     0.166 A
HETATM   18  N5  UNL     1      12.269  50.594 -50.513  1.00  0.00    -0.265 N
HETATM   19  N6  UNL     1      12.225  51.574 -51.402  1.00  0.00    -0.002 NA
ATOM     20  H5  UNL     1      12.190  49.598 -50.716  1.00  0.00     0.186 HD
HETATM   21  N7  UNL     1      12.359  52.740 -50.792  1.00  0.00    -0.213 N
HETATM   22  N8  UNL     1      12.487  52.467 -49.505  1.00  0.00    -0.267 N
ATOM     23  H8  UNL     1      12.608  53.167 -48.773  1.00  0.00     0.190 HD
BRANCH  21  24
HETATM   24  C7  UNL     1      12.361  54.052 -51.433  1.00  0.00     0.194 C
BRANCH  24  25
HETATM   25  C8  UNL     1      12.817  55.099 -50.492  1.00  0.00    -0.006 C
BRANCH  25  26
HETATM   26  C9  UNL     1      12.140  56.238 -50.369  1.00  0.00    -0.004 C
BRANCH  26  27
HETATM   27  C10 UNL     1      10.770  56.377 -50.934  1.00  0.00     0.191 C
BRANCH  27  28
HETATM   28  O1  UNL     1       9.794  56.220 -49.963  1.00  0.00    -0.397 OA
ATOM     29  H1  UNL     1       9.748  55.324 -49.651  1.00  0.00     0.209 HD
ENDBRANCH  27  28
ENDBRANCH  26  27
ENDBRANCH  25  26
ENDBRANCH  24  25
ENDBRANCH  21  24
ENDBRANCH  11  17
BRANCH   1  30
HETATM   30  N1  UNL     1      13.880  47.799 -43.821  1.00  0.00    -0.383 N
ATOM     31  H12 UNL     1      14.107  47.980 -42.843  1.00  0.00     0.157 HD
ATOM     32  H11 UNL     1      12.949  47.501 -44.111  1.00  0.00     0.157 HD
ENDBRANCH   1  30
TORSDOF 7
ENDMDL