MODEL 4
REMARK VINA RESULT: -7.273224039      1.313      8.050
REMARK  5 active torsions:
REMARK  status: ('A' for Active; 'I' for Inactive)
REMARK    1  A    between atoms: N1_2  and  N2_3
REMARK    2  A    between atoms: N1_2  and  C6_13
REMARK    3  A    between atoms: C2_5  and  C3_6
REMARK    4  A    between atoms: C7_18  and  N7_19
REMARK    5  A    between atoms: C8_22  and  N9_23
ROOT
HETATM    1  C6  UNL     1      14.975  48.879 -49.143  1.00  0.00     0.728 A
HETATM    2  N5  UNL     1      15.050  49.568 -47.989  1.00  0.00    -0.115 N
ATOM      3  H5  UNL     1      15.729  50.323 -47.892  1.00  0.00     0.206 HD
HETATM    4  N6  UNL     1      14.247  49.270 -46.975  1.00  0.00    -0.114 N
ATOM      5  H6  UNL     1      14.328  49.809 -46.112  1.00  0.00     0.206 HD
HETATM    6  C7  UNL     1      13.331  48.288 -47.039  1.00  0.00     0.749 A
HETATM    7  N12 UNL     1      13.252  47.596 -48.190  1.00  0.00    -0.114 N
ATOM      8  H12 UNL     1      12.573  46.840 -48.286  1.00  0.00     0.206 HD
HETATM    9  N13 UNL     1      14.060  47.898 -49.201  1.00  0.00    -0.115 N
ATOM     10  H13 UNL     1      13.980  47.359 -50.064  1.00  0.00     0.206 HD
ENDROOT
BRANCH   6  11
HETATM   11  N7  UNL     1      12.499  48.020 -45.910  1.00  0.00     0.107 N
HETATM   12  N8  UNL     1      12.676  47.088 -44.990  1.00  0.00    -0.096 N
HETATM   13  C8  UNL     1      11.703  47.110 -44.063  1.00  0.00     0.706 A
ATOM     14  H8  UNL     1      13.456  46.431 -44.985  1.00  0.00     0.207 HD
HETATM   15  N10 UNL     1      10.887  48.109 -44.430  1.00  0.00    -0.019 N
HETATM   16  C9  UNL     1      11.360  48.670 -45.553  1.00  0.00     0.727 A
ATOM     17  H10 UNL     1      10.042  48.395 -43.935  1.00  0.00     0.203 HD
HETATM   18  N11 UNL     1      10.863  49.664 -46.225  1.00  0.00    -0.232 N
ATOM     19 2H11 UNL     1      11.222  50.091 -47.080  1.00  0.00     0.174 HD
ATOM     20 1H11 UNL     1      10.008  50.152 -45.958  1.00  0.00     0.174 HD
BRANCH  13  21
HETATM   21  N9  UNL     1      11.632  46.310 -43.056  1.00  0.00    -0.233 N
ATOM     22  H92 UNL     1      12.371  45.815 -42.559  1.00  0.00     0.174 HD
ATOM     23  H91 UNL     1      10.766  46.043 -42.587  1.00  0.00     0.174 HD
ENDBRANCH  13  21
ENDBRANCH   6  11
BRANCH   1  24
HETATM   24  N1  UNL     1      15.781  49.125 -50.261  1.00  0.00    -0.126 N
HETATM   25  C1  UNL     1      16.890  50.065 -50.266  1.00  0.00     0.197 C
BRANCH  24  26
HETATM   26  N2  UNL     1      15.546  48.456 -51.456  1.00  0.00    -0.295 N
HETATM   27  C2  UNL     1      16.392  47.655 -51.961  1.00  0.00     0.122 C
ATOM     28  H2  UNL     1      14.663  48.613 -51.944  1.00  0.00     0.186 HD
BRANCH  27  29
HETATM   29  C3  UNL     1      16.062  46.985 -53.234  1.00  0.00     0.015 A
HETATM   30  C4  UNL     1      16.609  47.233 -54.461  1.00  0.00     0.121 A
HETATM   31  N3  UNL     1      16.015  46.387 -55.352  1.00  0.00    -0.311 N
HETATM   32  N4  UNL     1      15.140  45.644 -54.716  1.00  0.00    -0.311 N
ATOM     33  H3  UNL     1      16.219  46.339 -56.351  1.00  0.00     0.186 HD
HETATM   34  C5  UNL     1      15.133  45.973 -53.414  1.00  0.00     0.121 A
ATOM     35  H4  UNL     1      14.556  44.926 -55.144  1.00  0.00     0.186 HD
ENDBRANCH  27  29
ENDBRANCH  24  26
ENDBRANCH   1  24
TORSDOF 5
ENDMDL