MODEL 2
REMARK VINA RESULT: -7.808214459      2.730      8.245
REMARK  5 active torsions:
REMARK  status: ('A' for Active; 'I' for Inactive)
REMARK    1  A    between atoms: N3_7  and  C3_8
REMARK    2  A    between atoms: C3_8  and  C4_9
REMARK       I    between atoms: C4_9  and  N4_11
REMARK    3  A    between atoms: N4_11  and  N5_13
REMARK       I    between atoms: N5_13  and  C5_15
REMARK       I    between atoms: C5_15  and  N6_17
REMARK    4  A    between atoms: N6_17  and  C6_19
REMARK    5  A    between atoms: C9_28  and  N10_29
ROOT
HETATM    1  N5  UNL     1      14.081  45.742 -48.409  1.00  0.00    -0.249 N
ATOM      2  H5  UNL     1      14.006  44.738 -48.246  1.00  0.00     0.192 HD
HETATM    3  C5  UNL     1      14.490  46.184 -49.690  1.00  0.00     0.340 C
HETATM    4  O2  UNL     1      14.583  47.410 -49.881  1.00  0.00    -0.245 OA
HETATM    5  N6  UNL     1      14.789  45.289 -50.758  1.00  0.00    -0.289 N
ATOM      6  H6  UNL     1      14.727  44.281 -50.616  1.00  0.00     0.172 HD
ENDROOT
BRANCH   1   7
HETATM    7  N4  UNL     1      13.778  46.598 -47.366  1.00  0.00    -0.265 N
HETATM    8  C4  UNL     1      14.416  46.642 -46.105  1.00  0.00     0.257 C
HETATM    9  O1  UNL     1      15.345  45.864 -45.837  1.00  0.00    -0.270 OA
ATOM     10  H4  UNL     1      13.020  47.263 -47.521  1.00  0.00     0.190 HD
BRANCH   8  11
HETATM   11  C3  UNL     1      13.966  47.629 -45.103  1.00  0.00     0.275 C
BRANCH  11  12
HETATM   12  N3  UNL     1      12.525  47.772 -45.200  1.00  0.00    -0.209 N
HETATM   13  N2  UNL     1      11.610  46.852 -45.070  1.00  0.00    -0.224 N
HETATM   14  N1  UNL     1      10.398  47.342 -45.248  1.00  0.00    -0.272 N
ATOM     15  H2  UNL     1      11.808  45.874 -44.858  1.00  0.00     0.210 HD
HETATM   16  C2  UNL     1      10.543  48.653 -45.505  1.00  0.00     0.109 A
ATOM     17  H1  UNL     1       9.520  46.825 -45.198  1.00  0.00     0.190 HD
HETATM   18  C1  UNL     1       9.434  49.642 -45.784  1.00  0.00     0.092 C
HETATM   19  N11 UNL     1      11.858  48.909 -45.473  1.00  0.00    -0.270 N
ATOM     20  H11 UNL     1      12.285  49.821 -45.631  1.00  0.00     0.190 HD
ENDBRANCH  11  12
ENDBRANCH   8  11
ENDBRANCH   1   7
BRANCH   5  21
HETATM   21  C6  UNL     1      15.173  45.810 -52.018  1.00  0.00     0.168 A
HETATM   22  N7  UNL     1      14.286  45.777 -53.067  1.00  0.00    -0.281 N
HETATM   23  N8  UNL     1      14.631  46.245 -54.223  1.00  0.00    -0.288 N
ATOM     24  H7  UNL     1      13.355  45.384 -52.935  1.00  0.00     0.188 HD
HETATM   25  C7  UNL     1      15.838  46.786 -54.500  1.00  0.00     0.093 A
ATOM     26  H8  UNL     1      13.945  46.203 -54.976  1.00  0.00     0.188 HD
HETATM   27  C8  UNL     1      16.221  47.304 -55.827  1.00  0.00     0.090 C
HETATM   28  N9  UNL     1      16.720  46.831 -53.499  1.00  0.00    -0.329 N
HETATM   29  C9  UNL     1      16.407  46.350 -52.252  1.00  0.00     0.146 A
ATOM     30  H9  UNL     1      17.644  47.231 -53.663  1.00  0.00     0.168 HD
BRANCH  29  31
HETATM   31  N10 UNL     1      17.306  46.420 -51.326  1.00  0.00    -0.382 N
ATOM     32 2H10 UNL     1      17.602  45.555 -50.874  1.00  0.00     0.157 HD
ATOM     33 1H10 UNL     1      17.716  47.309 -51.041  1.00  0.00     0.157 HD
ENDBRANCH  29  31
ENDBRANCH   5  21
TORSDOF 5
ENDMDL