MODEL 3
REMARK VINA RESULT: -7.447233056      1.678      2.130
REMARK  7 active torsions:
REMARK  status: ('A' for Active; 'I' for Inactive)
REMARK    1  A    between atoms: C5_10  and  N3_11
REMARK    2  A    between atoms: N3_11  and  N4_13
REMARK    3  A    between atoms: N4_13  and  C6_15
REMARK    4  A    between atoms: C7_22  and  N8_23
REMARK    5  A    between atoms: N8_23  and  N9_25
REMARK    6  A    between atoms: N9_25  and  C8_27
REMARK    7  A    between atoms: C8_27  and  O2_28
ROOT
HETATM    1  C6  UNL     1      14.191  47.088 -47.209  1.00  0.00     0.727 A
HETATM    2  N5  UNL     1      14.939  48.187 -47.049  1.00  0.00    -0.115 N
ATOM      3  H5  UNL     1      15.615  48.459 -47.763  1.00  0.00     0.207 HD
HETATM    4  N6  UNL     1      14.791  48.912 -45.961  1.00  0.00    -0.214 N
ATOM      5  H6  UNL     1      15.365  49.747 -45.845  1.00  0.00     0.209 HD
HETATM    6  N7  UNL     1      13.927  48.596 -45.014  1.00  0.00    -0.115 N
ATOM      7  H7  UNL     1      13.845  49.185 -44.185  1.00  0.00     0.207 HD
HETATM    8  C7  UNL     1      13.143  47.486 -45.136  1.00  0.00     0.727 A
HETATM    9  N10 UNL     1      13.311  46.763 -46.250  1.00  0.00    -0.017 N
ATOM     10  H10 UNL     1      12.742  45.925 -46.375  1.00  0.00     0.203 HD
ENDROOT
BRANCH   1  11
HETATM   11  N4  UNL     1      14.326  46.283 -48.395  1.00  0.00    -0.130 N
ATOM     12  H4  UNL     1      13.805  45.410 -48.476  1.00  0.00     0.205 HD
BRANCH  11  13
HETATM   13  N3  UNL     1      15.149  46.681 -49.417  1.00  0.00    -0.280 N
ATOM     14  H3  UNL     1      15.947  47.256 -49.145  1.00  0.00     0.188 HD
BRANCH  13  15
HETATM   15  C5  UNL     1      15.040  46.402 -50.786  1.00  0.00     0.139 A
HETATM   16  C2  UNL     1      16.201  46.268 -51.514  1.00  0.00     0.040 A
HETATM   17  C1  UNL     1      17.511  46.443 -50.885  1.00  0.00     0.071 C
HETATM   18  N1  UNL     1      16.192  45.978 -52.839  1.00  0.00    -0.354 N
HETATM   19  C3  UNL     1      15.025  45.812 -53.489  1.00  0.00     0.183 A
ATOM     20  H1  UNL     1      17.073  45.886 -53.344  1.00  0.00     0.166 HD
HETATM   21  N2  UNL     1      13.875  45.938 -52.804  1.00  0.00    -0.318 N
HETATM   22  C4  UNL     1      13.854  46.227 -51.476  1.00  0.00     0.276 A
ATOM     23  H2  UNL     1      12.990  45.812 -53.296  1.00  0.00     0.169 HD
HETATM   24  O1  UNL     1      12.787  46.343 -50.841  1.00  0.00    -0.266 OA
ENDBRANCH  13  15
ENDBRANCH  11  13
ENDBRANCH   1  11
BRANCH   8  25
HETATM   25  N8  UNL     1      12.317  47.230 -44.192  1.00  0.00    -0.128 N
ATOM     26  H8  UNL     1      12.669  46.651 -43.431  1.00  0.00     0.205 HD
BRANCH  25  27
HETATM   27  N9  UNL     1      11.012  47.645 -44.083  1.00  0.00    -0.256 N
ATOM     28  H9  UNL     1      10.572  47.677 -43.164  1.00  0.00     0.190 HD
BRANCH  27  29
HETATM   29  C8  UNL     1      10.257  48.036 -45.245  1.00  0.00     0.227 C
HETATM   30  S1  UNL     1      10.388  49.607 -45.704  1.00  0.00    -0.032 SA
BRANCH  29  31
HETATM   31  O2  UNL     1       9.463  47.139 -45.940  1.00  0.00    -0.336 OA
ATOM     32  H2  UNL     1       9.366  47.179 -46.884  1.00  0.00     0.220 HD
ENDBRANCH  29  31
ENDBRANCH  27  29
ENDBRANCH  25  27
ENDBRANCH   8  25
TORSDOF 7
ENDMDL