MODEL 5
REMARK VINA RESULT: -7.604752906      2.584      5.571
REMARK  5 active torsions:
REMARK  status: ('A' for Active; 'I' for Inactive)
REMARK    1  A    between atoms: N1_1  and  C1_4
REMARK    2  A    between atoms: C2_10  and  S1_11
REMARK    3  A    between atoms: S1_11  and  C3_14
REMARK    4  A    between atoms: C4_19  and  N6_20
REMARK    5  A    between atoms: C5_23  and  N7_24
REMARK       I    between atoms: N7_24  and  C6_26
ROOT
HETATM    1  C3  UNL     1      15.240  46.144 -52.799  1.00  0.00     0.181 A
HETATM    2  N4  UNL     1      14.612  45.936 -53.964  1.00  0.00    -0.286 N
ATOM      3  H4  UNL     1      13.761  45.388 -54.085  1.00  0.00     0.188 HD
HETATM    4  N5  UNL     1      15.270  46.554 -54.935  1.00  0.00    -0.278 N
ATOM      5  H5  UNL     1      14.993  46.548 -55.917  1.00  0.00     0.189 HD
HETATM    6  C4  UNL     1      16.350  47.188 -54.449  1.00  0.00     0.218 A
HETATM    7  C5  UNL     1      16.339  46.930 -53.073  1.00  0.00     0.128 A
ENDROOT
BRANCH   1   8
HETATM    8  S1  UNL     1      14.804  45.558 -51.236  1.00  0.00     0.246 S
HETATM    9  O2  UNL     1      13.906  44.334 -51.350  1.00  0.00    -0.214 OA
HETATM   10  O3  UNL     1      16.062  45.042 -50.551  1.00  0.00    -0.214 OA
BRANCH   8  11
HETATM   11  C2  UNL     1      14.053  46.799 -50.282  1.00  0.00     0.203 A
HETATM   12  C1  UNL     1      13.869  46.802 -48.924  1.00  0.00     0.162 A
HETATM   13  N2  UNL     1      13.247  47.952 -48.589  1.00  0.00    -0.223 N
HETATM   14  O1  UNL     1      13.063  48.612 -49.688  1.00  0.00    -0.154 OA
ATOM     15  H2  UNL     1      12.974  48.244 -47.651  1.00  0.00     0.198 HD
HETATM   16  N3  UNL     1      13.535  47.949 -50.724  1.00  0.00    -0.227 N
ATOM     17  H3  UNL     1      13.509  48.261 -51.695  1.00  0.00     0.197 HD
BRANCH  12  18
HETATM   18  N1  UNL     1      14.205  45.901 -48.055  1.00  0.00    -0.382 N
ATOM     19  H12 UNL     1      14.655  46.022 -47.148  1.00  0.00     0.157 HD
ATOM     20  H11 UNL     1      14.043  44.904 -48.197  1.00  0.00     0.157 HD
ENDBRANCH  12  18
ENDBRANCH   8  11
ENDBRANCH   1   8
BRANCH   7  21
HETATM   21  N7  UNL     1      17.315  47.421 -52.156  1.00  0.00    -0.305 N
HETATM   22  C6  UNL     1      17.110  48.638 -51.482  1.00  0.00     0.333 C
HETATM   23  N8  UNL     1      18.041  49.170 -50.563  1.00  0.00    -0.040 NA
HETATM   24  O6  UNL     1      16.054  49.327 -51.674  1.00  0.00    -0.251 OA
ATOM     25  H7  UNL     1      18.167  46.887 -51.990  1.00  0.00     0.170 HD
ENDBRANCH   7  21
BRANCH   6  26
HETATM   26  N6  UNL     1      17.332  47.962 -55.110  1.00  0.00    -0.094 N
HETATM   27  O4  UNL     1      17.490  49.167 -54.948  1.00  0.00    -0.530 OA
HETATM   28  O5  UNL     1      18.195  47.338 -56.012  1.00  0.00    -0.530 OA
ENDBRANCH   6  26
TORSDOF 5
ENDMDL