MODEL 3
REMARK VINA RESULT: -7.491829062      4.345      7.246
REMARK  8 active torsions:
REMARK  status: ('A' for Active; 'I' for Inactive)
REMARK    1  A    between atoms: O1_2  and  N1_3
REMARK       I    between atoms: N1_3  and  C2_5
REMARK       I    between atoms: C2_5  and  N2_7
REMARK    2  A    between atoms: N3_9  and  C3_11
REMARK    3  A    between atoms: C4_14  and  N5_15
REMARK    4  A    between atoms: N5_15  and  O3_17
REMARK    5  A    between atoms: O3_17  and  C5_18
REMARK    6  A    between atoms: C5_18  and  N6_19
REMARK    7  A    between atoms: C5_18  and  N7_23
REMARK    8  A    between atoms: C7_31  and  N9_32
ROOT
HETATM    1  C3  UNL     1      13.926  47.722 -48.218  1.00  0.00     0.174 A
HETATM    2  N4  UNL     1      13.362  47.141 -47.153  1.00  0.00    -0.171 N
ATOM      3  H4  UNL     1      12.879  46.252 -47.283  1.00  0.00     0.186 HD
HETATM    4  C4  UNL     1      13.401  47.671 -45.924  1.00  0.00     0.706 A
HETATM    5  N8  UNL     1      14.042  48.847 -45.756  1.00  0.00    -0.152 N
ATOM      6  H8  UNL     1      14.084  49.270 -44.828  1.00  0.00     0.187 HD
HETATM    7  C6  UNL     1      14.623  49.467 -46.791  1.00  0.00     0.296 A
HETATM    8  O4  UNL     1      15.225  50.571 -46.631  1.00  0.00    -0.265 OA
HETATM    9  C7  UNL     1      14.588  48.928 -48.066  1.00  0.00     0.216 A
ENDROOT
BRANCH   4  10
HETATM   10  N5  UNL     1      12.845  47.098 -44.906  1.00  0.00    -0.092 N
ATOM     11  H5  UNL     1      13.452  46.546 -44.299  1.00  0.00     0.213 HD
BRANCH  10  12
HETATM   12  O3  UNL     1      11.536  47.161 -44.571  1.00  0.00    -0.205 OA
BRANCH  12  13
HETATM   13  C5  UNL     1      10.590  47.971 -45.244  1.00  0.00     0.543 C
BRANCH  13  14
HETATM   14  N6  UNL     1      10.007  48.850 -44.226  1.00  0.00    -0.025 N
ATOM     15  H63 UNL     1      10.540  48.873 -43.357  1.00  0.00     0.279 HD
ATOM     16  H62 UNL     1      10.091  49.841 -44.451  1.00  0.00     0.279 HD
ATOM     17  H61 UNL     1       9.042  48.543 -44.103  1.00  0.00     0.279 HD
ENDBRANCH  13  14
BRANCH  13  18
HETATM   18  N7  UNL     1       9.506  47.206 -45.798  1.00  0.00    -0.025 N
ATOM     19  H73 UNL     1       9.201  47.596 -46.690  1.00  0.00     0.279 HD
ATOM     20  H72 UNL     1       9.827  46.292 -46.119  1.00  0.00     0.279 HD
ATOM     21  H71 UNL     1       8.723  47.113 -45.150  1.00  0.00     0.279 HD
ENDBRANCH  13  18
ENDBRANCH  12  13
ENDBRANCH  10  12
ENDBRANCH   4  10
BRANCH   1  22
HETATM   22  N3  UNL     1      13.909  47.193 -49.538  1.00  0.00    -0.279 N
HETATM   23  N2  UNL     1      14.262  46.005 -49.795  1.00  0.00    -0.248 N
HETATM   24  C2  UNL     1      14.264  45.430 -51.071  1.00  0.00     0.358 C
ATOM     25  H2  UNL     1      14.568  45.423 -49.014  1.00  0.00     0.192 HD
HETATM   26  N1  UNL     1      14.730  46.055 -52.244  1.00  0.00    -0.216 N
HETATM   27  O2  UNL     1      13.801  44.245 -51.154  1.00  0.00    -0.243 OA
ATOM     28  H1  UNL     1      15.104  47.003 -52.199  1.00  0.00     0.199 HD
ATOM     29  H3  UNL     1      13.601  47.791 -50.304  1.00  0.00     0.189 HD
BRANCH  26  30
HETATM   30  O1  UNL     1      14.684  45.411 -53.416  1.00  0.00    -0.281 OA
HETATM   31  C1  UNL     1      15.713  45.766 -54.268  1.00  0.00     0.237 C
ENDBRANCH  26  30
ENDBRANCH   1  22
BRANCH   9  32
HETATM   32  N9  UNL     1      15.198  49.579 -49.154  1.00  0.00    -0.106 N
HETATM   33  O5  UNL     1      16.375  49.330 -49.430  1.00  0.00    -0.531 OA
HETATM   34  O6  UNL     1      14.505  50.477 -49.905  1.00  0.00    -0.531 OA
ENDBRANCH   9  32
TORSDOF 8
ENDMDL