MODEL 5
REMARK VINA RESULT: -7.507045142      1.594      2.155
REMARK  8 active torsions:
REMARK  status: ('A' for Active; 'I' for Inactive)
REMARK    1  A    between atoms: C2_2  and  C3_3
REMARK    2  A    between atoms: C3_3  and  N1_4
REMARK    3  A    between atoms: N2_7  and  N3_9
REMARK    4  A    between atoms: N3_9  and  C4_11
REMARK    5  A    between atoms: C5_16  and  C6_17
REMARK    6  A    between atoms: C6_17  and  O1_18
REMARK    7  A    between atoms: C6_17  and  C7_20
REMARK    8  A    between atoms: C8_21  and  O2_22
ROOT
HETATM    1  C4  UNL     1      13.686  46.850 -49.727  1.00  0.00     0.726 A
HETATM    2  N4  UNL     1      14.387  47.770 -50.374  1.00  0.00    -0.128 N
ATOM      3  H4  UNL     1      14.478  48.696 -49.954  1.00  0.00     0.205 HD
HETATM    4  N5  UNL     1      14.972  47.547 -51.534  1.00  0.00    -0.268 N
ATOM      5  H5  UNL     1      15.498  48.299 -51.979  1.00  0.00     0.189 HD
HETATM    6  C5  UNL     1      14.891  46.351 -52.144  1.00  0.00     0.172 A
HETATM    7  N8  UNL     1      14.167  45.408 -51.473  1.00  0.00    -0.268 N
ATOM      8  H8  UNL     1      14.072  44.483 -51.890  1.00  0.00     0.189 HD
HETATM    9  N9  UNL     1      13.588  45.633 -50.320  1.00  0.00    -0.128 N
ATOM     10  H9  UNL     1      13.061  44.889 -49.864  1.00  0.00     0.205 HD
ENDROOT
BRANCH   6  11
HETATM   11  C6  UNL     1      15.515  46.036 -53.417  1.00  0.00     0.144 C
BRANCH  11  12
HETATM   12  O1  UNL     1      14.699  45.391 -54.199  1.00  0.00    -0.355 OA
ATOM     13  H1  UNL     1      15.149  44.710 -54.684  1.00  0.00     0.218 HD
ENDBRANCH  11  12
BRANCH  11  14
HETATM   14  C7  UNL     1      16.837  46.345 -53.849  1.00  0.00     0.127 A
HETATM   15  C8  UNL     1      17.145  46.699 -55.169  1.00  0.00     0.174 A
HETATM   16  N6  UNL     1      18.451  46.963 -55.284  1.00  0.00    -0.287 N
HETATM   17  C9  UNL     1      18.983  46.785 -54.058  1.00  0.00     0.328 A
ATOM     18  H6  UNL     1      18.945  47.244 -56.131  1.00  0.00     0.172 HD
HETATM   19  O3  UNL     1      20.199  46.944 -53.782  1.00  0.00    -0.246 OA
HETATM   20  N7  UNL     1      17.980  46.411 -53.203  1.00  0.00    -0.298 N
HETATM   21  C10 UNL     1      18.270  46.185 -51.814  1.00  0.00     0.161 C
BRANCH  15  22
HETATM   22  O2  UNL     1      16.251  46.769 -56.205  1.00  0.00    -0.344 OA
ATOM     23  H2  UNL     1      15.579  46.126 -56.401  1.00  0.00     0.219 HD
ENDBRANCH  15  22
ENDBRANCH  11  14
ENDBRANCH   6  11
BRANCH   1  24
HETATM   24  N3  UNL     1      13.144  47.131 -48.605  1.00  0.00    -0.129 N
ATOM     25  H3  UNL     1      12.185  47.475 -48.555  1.00  0.00     0.205 HD
BRANCH  24  26
HETATM   26  N2  UNL     1      13.908  46.952 -47.443  1.00  0.00    -0.290 N
HETATM   27  C2  UNL     1      13.699  47.721 -46.450  1.00  0.00     0.037 C
HETATM   28  C1  UNL     1      12.692  48.785 -46.476  1.00  0.00     0.071 C
ATOM     29  H2  UNL     1      14.616  46.219 -47.393  1.00  0.00     0.187 HD
BRANCH  27  30
HETATM   30  C3  UNL     1      14.519  47.510 -45.237  1.00  0.00     0.106 C
BRANCH  30  31
HETATM   31  N1  UNL     1      14.284  48.191 -44.180  1.00  0.00    -0.406 N
ATOM     32  H12 UNL     1      13.979  49.160 -44.273  1.00  0.00     0.155 HD
ATOM     33  H11 UNL     1      14.400  47.763 -43.262  1.00  0.00     0.155 HD
ENDBRANCH  30  31
ENDBRANCH  27  30
ENDBRANCH  24  26
ENDBRANCH   1  24
TORSDOF 8
ENDMDL