MODEL 4
REMARK VINA RESULT: -6.819169484      2.914      4.021
REMARK  7 active torsions:
REMARK  status: ('A' for Active; 'I' for Inactive)
REMARK    1  A    between atoms: C5_14  and  S1_15
REMARK    2  A    between atoms: S1_15  and  C6_16
REMARK    3  A    between atoms: C6_16  and  C7_17
REMARK    4  A    between atoms: C7_17  and  N6_18
REMARK    5  A    between atoms: C7_17  and  C8_22
REMARK    6  A    between atoms: C9_27  and  N8_28
REMARK    7  A    between atoms: N8_28  and  N9_30
ROOT
HETATM    1  N1  UNL     1       9.078  50.916 -47.627  1.00  0.00    -0.172 NA
HETATM    2  C1  UNL     1      10.085  50.479 -48.033  1.00  0.00     0.183 C
HETATM    3  N2  UNL     1      11.296  49.978 -48.514  1.00  0.00    -0.278 N
ATOM      4  H2  UNL     1      11.424  49.791 -49.508  1.00  0.00     0.179 HD
HETATM    5  C2  UNL     1      12.247  49.758 -47.681  1.00  0.00     0.133 A
HETATM    6  N3  UNL     1      12.157  49.978 -46.362  1.00  0.00    -0.337 N
ATOM      7  H3  UNL     1      11.283  50.345 -45.985  1.00  0.00     0.168 HD
HETATM    8  C3  UNL     1      13.176  49.736 -45.514  1.00  0.00     0.183 A
HETATM    9  N4  UNL     1      14.351  49.254 -45.949  1.00  0.00    -0.338 N
ATOM     10  H4  UNL     1      15.121  49.072 -45.307  1.00  0.00     0.168 HD
HETATM   11  C4  UNL     1      14.469  49.021 -47.288  1.00  0.00     0.126 A
HETATM   12  N5  UNL     1      15.630  48.538 -47.758  1.00  0.00    -0.322 N
ATOM     13  H5  UNL     1      16.389  48.361 -47.100  1.00  0.00     0.169 HD
HETATM   14  C5  UNL     1      15.834  48.280 -49.056  1.00  0.00     0.147 A
HETATM   15  N7  UNL     1      14.799  48.526 -49.915  1.00  0.00    -0.321 N
ATOM     16  H7  UNL     1      14.932  48.336 -50.909  1.00  0.00     0.169 HD
HETATM   17  C9  UNL     1      13.624  49.004 -49.507  1.00  0.00     0.139 A
HETATM   18  C10 UNL     1      13.437  49.263 -48.167  1.00  0.00     0.098 A
ENDROOT
BRANCH  17  19
HETATM   19  N8  UNL     1      12.661  49.226 -50.350  1.00  0.00    -0.291 N
ATOM     20  H8  UNL     1      11.876  49.814 -50.070  1.00  0.00     0.188 HD
BRANCH  19  21
HETATM   21  N9  UNL     1      12.680  48.682 -51.619  1.00  0.00    -0.344 N
ATOM     22  H92 UNL     1      13.579  48.409 -52.015  1.00  0.00     0.176 HD
ATOM     23  H91 UNL     1      11.821  48.553 -52.152  1.00  0.00     0.176 HD
ENDBRANCH  19  21
ENDBRANCH  17  19
BRANCH  14  24
HETATM   24  S1  UNL     1      17.369  47.662 -49.652  1.00  0.00    -0.091 SA
BRANCH  24  25
HETATM   25  C6  UNL     1      17.380  47.119 -51.339  1.00  0.00     0.126 C
BRANCH  25  26
HETATM   26  C7  UNL     1      17.700  48.163 -52.370  1.00  0.00     0.293 C
BRANCH  26  27
HETATM   27  N6  UNL     1      18.749  47.629 -53.237  1.00  0.00    -0.064 N
ATOM     28  H63 UNL     1      18.486  47.629 -54.223  1.00  0.00     0.275 HD
ATOM     29  H62 UNL     1      19.554  48.250 -53.312  1.00  0.00     0.275 HD
ATOM     30  H61 UNL     1      18.996  46.700 -52.894  1.00  0.00     0.275 HD
ENDBRANCH  26  27
BRANCH  26  31
HETATM   31  C8  UNL     1      16.556  48.530 -53.208  1.00  0.00     0.205 C
HETATM   32  O1  UNL     1      16.460  48.259 -54.433  1.00  0.00    -0.646 OA
HETATM   33  O2  UNL     1      15.496  49.220 -52.645  1.00  0.00    -0.646 OA
ENDBRANCH  26  31
ENDBRANCH  25  26
ENDBRANCH  24  25
ENDBRANCH  14  24
TORSDOF 7
ENDMDL