MODEL 2
REMARK VINA RESULT: -7.037996209      1.566      2.081
REMARK  6 active torsions:
REMARK  status: ('A' for Active; 'I' for Inactive)
REMARK       I    between atoms: N1_2  and  C2_4
REMARK    1  A    between atoms: C2_4  and  S1_6
REMARK    2  A    between atoms: S1_6  and  C3_7
REMARK    3  A    between atoms: C4_12  and  C5_13
REMARK    4  A    between atoms: N4_15  and  N5_17
REMARK       I    between atoms: N5_17  and  C7_19
REMARK       I    between atoms: C7_19  and  N6_21
REMARK    5  A    between atoms: N6_21  and  N7_23
REMARK    6  A    between atoms: N8_28  and  N9_29
ROOT
HETATM    1  C3  UNL     1      15.620  48.811 -53.903  1.00  0.00     0.192 A
HETATM    2  N2  UNL     1      16.208  49.539 -52.938  1.00  0.00    -0.277 N
ATOM      3  H2  UNL     1      17.206  49.743 -53.001  1.00  0.00     0.189 HD
HETATM    4  N3  UNL     1      15.513  49.994 -51.906  1.00  0.00    -0.292 N
ATOM      5  H3  UNL     1      15.999  50.542 -51.196  1.00  0.00     0.187 HD
HETATM    6  C4  UNL     1      14.195  49.767 -51.748  1.00  0.00     0.142 A
HETATM    7  C8  UNL     1      13.585  49.016 -52.744  1.00  0.00     0.298 A
HETATM    8  O3  UNL     1      12.373  48.746 -52.704  1.00  0.00    -0.263 OA
HETATM    9  N8  UNL     1      14.310  48.553 -53.802  1.00  0.00    -0.200 N
ENDROOT
BRANCH   6  10
HETATM   10  C5  UNL     1      13.433  50.262 -50.624  1.00  0.00     0.056 C
HETATM   11  C6  UNL     1      13.432  51.705 -50.333  1.00  0.00     0.072 C
HETATM   12  N4  UNL     1      12.771  49.448 -49.897  1.00  0.00    -0.299 N
ATOM     13  H4  UNL     1      12.813  48.461 -50.151  1.00  0.00     0.186 HD
BRANCH  12  14
HETATM   14  N5  UNL     1      12.003  49.780 -48.796  1.00  0.00    -0.250 N
HETATM   15  C7  UNL     1      12.468  49.577 -47.469  1.00  0.00     0.352 C
HETATM   16  O2  UNL     1      13.621  49.076 -47.271  1.00  0.00    -0.244 OA
HETATM   17  N6  UNL     1      11.654  49.929 -46.362  1.00  0.00    -0.257 N
ATOM     18  H6  UNL     1      10.730  50.331 -46.515  1.00  0.00     0.191 HD
ATOM     19  H5  UNL     1      11.077  50.182 -48.942  1.00  0.00     0.192 HD
BRANCH  17  20
HETATM   20  N7  UNL     1      12.123  49.723 -45.055  1.00  0.00    -0.341 N
ATOM     21  H72 UNL     1      12.979  49.186 -44.915  1.00  0.00     0.177 HD
ATOM     22  H71 UNL     1      11.609  50.110 -44.264  1.00  0.00     0.177 HD
ENDBRANCH  17  20
ENDBRANCH  12  14
ENDBRANCH   6  10
BRANCH   9  23
HETATM   23  N9  UNL     1      13.708  47.797 -54.809  1.00  0.00    -0.333 N
ATOM     24  H92 UNL     1      13.969  47.924 -55.787  1.00  0.00     0.177 HD
ATOM     25  H91 UNL     1      13.000  47.115 -54.540  1.00  0.00     0.177 HD
ENDBRANCH   9  23
BRANCH   1  26
HETATM   26  S1  UNL     1      16.509  48.176 -55.311  1.00  0.00     0.010 SA
BRANCH  26  27
HETATM   27  C2  UNL     1      18.264  48.303 -55.105  1.00  0.00     0.287 C
HETATM   28  N1  UNL     1      18.899  47.635 -54.046  1.00  0.00    -0.356 N
HETATM   29  C1  UNL     1      20.330  47.746 -53.888  1.00  0.00     0.150 C
ATOM     30  H1  UNL     1      18.353  47.074 -53.393  1.00  0.00     0.162 HD
HETATM   31  O1  UNL     1      18.923  48.992 -55.911  1.00  0.00    -0.260 OA
ENDBRANCH  26  27
ENDBRANCH   1  26
TORSDOF 6
ENDMDL