MODEL 5
REMARK VINA RESULT: -7.285565099      4.463      8.227
REMARK  4 active torsions:
REMARK  status: ('A' for Active; 'I' for Inactive)
REMARK    1  A    between atoms: C2_3  and  N2_4
REMARK       I    between atoms: N2_4  and  C3_6
REMARK    2  A    between atoms: C6_21  and  S1_22
REMARK    3  A    between atoms: S1_22  and  C7_23
REMARK    4  A    between atoms: C7_23  and  C8_24
ROOT
HETATM    1  C1  UNL     1      11.387  52.351 -48.812  1.00  0.00     0.176 C
HETATM    2  N1  UNL     1      11.669  50.999 -48.376  1.00  0.00    -0.180 N
HETATM    3  C2  UNL     1      10.837  50.230 -47.655  1.00  0.00     0.689 A
HETATM    4  N5  UNL     1      11.393  49.032 -47.416  1.00  0.00    -0.172 N
ATOM      5  H5  UNL     1      10.972  48.265 -46.892  1.00  0.00     0.186 HD
HETATM    6  C4  UNL     1      12.599  49.027 -47.988  1.00  0.00     0.167 A
HETATM    7  N6  UNL     1      13.726  48.299 -48.218  1.00  0.00    -0.271 N
ATOM      8  H6  UNL     1      13.887  47.346 -47.892  1.00  0.00     0.189 HD
HETATM    9  N7  UNL     1      14.575  49.013 -48.924  1.00  0.00    -0.184 N
HETATM   10  C5  UNL     1      15.823  48.786 -49.423  1.00  0.00     0.349 A
HETATM   11  O1  UNL     1      16.317  47.654 -49.181  1.00  0.00    -0.244 OA
HETATM   12  N8  UNL     1      16.457  49.739 -50.128  1.00  0.00    -0.287 N
ATOM     13  H8  UNL     1      17.390  49.545 -50.491  1.00  0.00     0.172 HD
HETATM   14  C6  UNL     1      15.903  50.941 -50.370  1.00  0.00     0.150 A
HETATM   15  N10 UNL     1      14.672  51.165 -49.878  1.00  0.00    -0.319 N
ATOM     16  H10 UNL     1      14.225  52.066 -50.046  1.00  0.00     0.169 HD
HETATM   17  C9  UNL     1      14.012  50.224 -49.167  1.00  0.00     0.165 A
HETATM   18  C10 UNL     1      12.767  50.256 -48.586  1.00  0.00     0.143 A
ENDROOT
BRANCH   3  19
HETATM   19  N2  UNL     1       9.648  50.592 -47.242  1.00  0.00    -0.163 N
HETATM   20  C3  UNL     1       8.508  50.388 -48.057  1.00  0.00     0.200 C
HETATM   21  N3  UNL     1       8.117  49.192 -48.288  1.00  0.00    -0.373 N
HETATM   22  N4  UNL     1       7.813  51.493 -48.611  1.00  0.00    -0.063 NA
ATOM     23  H32 UNL     1       8.617  48.397 -47.890  1.00  0.00     0.158 HD
ATOM     24  H31 UNL     1       7.296  49.045 -48.875  1.00  0.00     0.158 HD
ATOM     25  H2  UNL     1       9.543  51.025 -46.324  1.00  0.00     0.187 HD
ENDBRANCH   3  19
BRANCH  14  26
HETATM   26  S1  UNL     1      16.746  52.210 -51.307  1.00  0.00    -0.089 SA
BRANCH  26  27
HETATM   27  C7  UNL     1      16.426  53.849 -50.672  1.00  0.00     0.126 C
BRANCH  27  28
HETATM   28  C8  UNL     1      16.874  53.900 -49.255  1.00  0.00     0.063 C
HETATM   29  N9  UNL     1      16.360  54.711 -48.427  1.00  0.00    -0.410 N
ATOM     30  H92 UNL     1      15.624  55.336 -48.756  1.00  0.00     0.155 HD
ATOM     31  H91 UNL     1      16.667  54.746 -47.455  1.00  0.00     0.155 HD
ENDBRANCH  27  28
ENDBRANCH  26  27
ENDBRANCH  14  26
TORSDOF 4
ENDMDL