MODEL 3
REMARK VINA RESULT: -6.672711000      5.849      8.051
REMARK  8 active torsions:
REMARK  status: ('A' for Active; 'I' for Inactive)
REMARK    1  A    between atoms: C3_3  and  S1_4
REMARK    2  A    between atoms: S1_4  and  C4_5
REMARK    3  A    between atoms: C4_5  and  N1_6
REMARK    4  A    between atoms: N1_6  and  C5_8
REMARK    5  A    between atoms: C7_12  and  C8_13
REMARK    6  A    between atoms: C8_13  and  N3_14
REMARK    7  A    between atoms: C8_13  and  O1_18
REMARK    8  A    between atoms: C11_27  and  N7_28
ROOT
HETATM    1  C1  UNL     1       9.406  58.405 -53.073  1.00  0.00     0.013 C
HETATM    2  C2  UNL     1      10.504  57.954 -52.857  1.00  0.00    -0.107 C
HETATM    3  C3  UNL     1      11.861  57.416 -52.608  1.00  0.00     0.168 C
ENDROOT
BRANCH   3   4
HETATM    4  S1  UNL     1      11.978  55.766 -53.337  1.00  0.00    -0.137 SA
BRANCH   4   5
HETATM    5  C4  UNL     1      12.849  54.660 -52.177  1.00  0.00     0.213 C
BRANCH   5   6
HETATM    6  N1  UNL     1      12.331  53.357 -52.324  1.00  0.00    -0.217 N
ATOM      7  H1  UNL     1      12.117  53.088 -53.284  1.00  0.00     0.178 HD
BRANCH   6   8
HETATM    8  C5  UNL     1      12.089  52.463 -51.451  1.00  0.00     0.694 C
HETATM    9  N2  UNL     1      12.485  51.197 -51.769  1.00  0.00    -0.185 N
HETATM   10  C6  UNL     1      12.848  50.184 -50.929  1.00  0.00     0.123 A
ATOM     11  H2  UNL     1      12.515  50.979 -52.765  1.00  0.00     0.184 HD
HETATM   12  C7  UNL     1      13.298  48.949 -51.362  1.00  0.00     0.112 A
HETATM   13  C10 UNL     1      12.837  50.194 -49.548  1.00  0.00     0.167 A
HETATM   14  N4  UNL     1      13.545  48.252 -50.247  1.00  0.00    -0.295 N
HETATM   15  N5  UNL     1      13.275  48.982 -49.173  1.00  0.00    -0.278 N
ATOM     16  H4  UNL     1      13.892  47.293 -50.225  1.00  0.00     0.187 HD
HETATM   17  C9  UNL     1      13.426  48.546 -47.811  1.00  0.00     0.179 C
HETATM   18  N6  UNL     1      12.465  51.209 -48.715  1.00  0.00    -0.173 N
HETATM   19  C11 UNL     1      11.695  52.258 -49.069  1.00  0.00     0.692 C
ATOM     20  H6  UNL     1      12.794  51.171 -47.750  1.00  0.00     0.186 HD
HETATM   21  N8  UNL     1      11.478  52.776 -50.298  1.00  0.00    -0.023 N
ATOM     22  H8  UNL     1      10.759  53.496 -50.356  1.00  0.00     0.203 HD
BRANCH  12  23
HETATM   23  C8  UNL     1      13.429  48.603 -52.783  1.00  0.00     0.371 C
BRANCH  23  24
HETATM   24  N3  UNL     1      13.362  47.177 -53.030  1.00  0.00    -0.047 N
ATOM     25  H33 UNL     1      14.093  46.684 -52.516  1.00  0.00     0.277 HD
ATOM     26  H32 UNL     1      12.539  46.769 -52.585  1.00  0.00     0.277 HD
ATOM     27  H31 UNL     1      13.394  46.940 -54.022  1.00  0.00     0.277 HD
ENDBRANCH  23  24
BRANCH  23  28
HETATM   28  O1  UNL     1      14.562  49.154 -53.372  1.00  0.00    -0.365 OA
ATOM     29  H1  UNL     1      14.708  48.840 -54.257  1.00  0.00     0.212 HD
ENDBRANCH  23  28
ENDBRANCH  12  23
BRANCH  19  30
HETATM   30  N7  UNL     1      11.097  52.822 -48.080  1.00  0.00    -0.234 N
ATOM     31  H72 UNL     1      11.048  52.299 -47.206  1.00  0.00     0.174 HD
ATOM     32  H71 UNL     1      10.733  53.751 -48.293  1.00  0.00     0.174 HD
ENDBRANCH  19  30
ENDBRANCH   6   8
ENDBRANCH   5   6
ENDBRANCH   4   5
ENDBRANCH   3   4
TORSDOF 8
ENDMDL