MODEL 4
REMARK VINA RESULT: -7.075951066      1.413      1.810
REMARK  7 active torsions:
REMARK  status: ('A' for Active; 'I' for Inactive)
REMARK    1  A    between atoms: N1_1  and  C1_4
REMARK    2  A    between atoms: C1_4  and  C2_6
REMARK    3  A    between atoms: C3_11  and  S1_12
REMARK    4  A    between atoms: S1_12  and  N5_15
REMARK    5  A    between atoms: N5_15  and  N6_17
REMARK    6  A    between atoms: N6_17  and  C4_19
REMARK    7  A    between atoms: N8_25  and  N9_26
ROOT
HETATM    1  S1  UNL     1      13.474  47.782 -53.085  1.00  0.00     0.300 S
HETATM    2  O1  UNL     1      12.218  48.609 -53.171  1.00  0.00    -0.197 OA
HETATM    3  O2  UNL     1      13.086  46.331 -53.120  1.00  0.00    -0.197 OA
ENDROOT
BRANCH   1   4
HETATM    4  C3  UNL     1      14.463  48.196 -54.479  1.00  0.00     0.209 A
HETATM    5  N4  UNL     1      14.230  47.997 -55.770  1.00  0.00    -0.282 N
HETATM    6  N3  UNL     1      15.071  48.369 -56.634  1.00  0.00    -0.289 N
ATOM      7  H4  UNL     1      13.366  47.541 -56.065  1.00  0.00     0.188 HD
HETATM    8  C2  UNL     1      16.196  48.964 -56.251  1.00  0.00     0.132 A
ATOM      9  H3  UNL     1      14.888  48.213 -57.626  1.00  0.00     0.188 HD
HETATM   10  S2  UNL     1      16.005  48.972 -54.555  1.00  0.00    -0.035 SA
BRANCH   8  11
HETATM   11  C1  UNL     1      17.262  49.450 -57.114  1.00  0.00     0.145 C
HETATM   12  N2  UNL     1      16.919  49.925 -58.402  1.00  0.00    -0.080 NA
BRANCH  11  13
HETATM   13  N1  UNL     1      18.489  49.458 -56.740  1.00  0.00    -0.385 N
ATOM     14  H12 UNL     1      19.204  49.979 -57.246  1.00  0.00     0.157 HD
ATOM     15  H11 UNL     1      18.768  48.930 -55.913  1.00  0.00     0.157 HD
ENDBRANCH  11  13
ENDBRANCH   8  11
ENDBRANCH   1   4
BRANCH   1  16
HETATM   16  N5  UNL     1      14.267  48.174 -51.615  1.00  0.00    -0.207 N
ATOM     17  H5  UNL     1      15.266  48.371 -51.551  1.00  0.00     0.201 HD
BRANCH  16  18
HETATM   18  N6  UNL     1      13.411  48.196 -50.523  1.00  0.00    -0.121 N
ATOM     19  H6  UNL     1      12.464  47.824 -50.596  1.00  0.00     0.206 HD
BRANCH  18  20
HETATM   20  C4  UNL     1      13.886  48.749 -49.299  1.00  0.00     0.709 C
HETATM   21  N7  UNL     1      15.112  48.629 -48.914  1.00  0.00    -0.223 N
HETATM   22  C5  UNL     1      15.496  49.221 -47.663  1.00  0.00     0.140 C
ATOM     23  H7  UNL     1      15.791  48.125 -49.484  1.00  0.00     0.177 HD
HETATM   24  C6  UNL     1      14.461  49.078 -46.582  1.00  0.00     0.042 C
HETATM   25  C7  UNL     1      13.093  49.507 -47.019  1.00  0.00     0.169 C
HETATM   26  N8  UNL     1      12.966  49.456 -48.483  1.00  0.00    -0.129 N
BRANCH  26  27
HETATM   27  N9  UNL     1      11.909  50.119 -49.133  1.00  0.00    -0.329 N
ATOM     28  H92 UNL     1      12.069  51.007 -49.609  1.00  0.00     0.177 HD
ATOM     29  H91 UNL     1      10.992  49.673 -49.104  1.00  0.00     0.177 HD
ENDBRANCH  26  27
ENDBRANCH  18  20
ENDBRANCH  16  18
ENDBRANCH   1  16
TORSDOF 7
ENDMDL