MODEL 2
REMARK VINA RESULT: -6.822291107      1.862      3.843
REMARK  8 active torsions:
REMARK  status: ('A' for Active; 'I' for Inactive)
REMARK    1  A    between atoms: O1_2  and  C2_3
REMARK    2  A    between atoms: C2_3  and  O2_4
REMARK    3  A    between atoms: O2_4  and  N1_5
REMARK    4  A    between atoms: N1_5  and  C3_7
REMARK    5  A    between atoms: C5_11  and  N3_12
REMARK    6  A    between atoms: N3_12  and  N4_14
REMARK    7  A    between atoms: C6_19  and  N6_20
REMARK    8  A    between atoms: C9_26  and  S1_27
ROOT
HETATM    1  C3  UNL     1      16.480  48.978 -56.973  1.00  0.00     0.703 A
HETATM    2  N2  UNL     1      15.661  48.591 -55.990  1.00  0.00    -0.184 N
ATOM      3  H2  UNL     1      14.676  48.449 -56.217  1.00  0.00     0.184 HD
HETATM    4  C4  UNL     1      16.051  48.378 -54.718  1.00  0.00     0.125 A
HETATM    5  C5  UNL     1      15.149  47.982 -53.761  1.00  0.00     0.165 A
HETATM    6  N5  UNL     1      15.615  47.793 -52.530  1.00  0.00    -0.173 N
ATOM      7  H5  UNL     1      14.972  47.498 -51.796  1.00  0.00     0.186 HD
HETATM    8  C6  UNL     1      16.901  47.978 -52.230  1.00  0.00     0.680 A
HETATM    9  N7  UNL     1      17.848  48.373 -53.142  1.00  0.00    -0.183 N
HETATM   10  C7  UNL     1      19.207  48.558 -52.779  1.00  0.00     0.175 C
HETATM   11  C8  UNL     1      17.412  48.572 -54.393  1.00  0.00     0.116 A
HETATM   12  C9  UNL     1      18.266  48.967 -55.387  1.00  0.00     0.115 A
HETATM   13  N8  UNL     1      17.757  49.153 -56.639  1.00  0.00    -0.182 N
ATOM     14  H8  UNL     1      18.402  49.448 -57.373  1.00  0.00     0.185 HD
ENDROOT
BRANCH   1  15
HETATM   15  N1  UNL     1      16.057  49.172 -58.190  1.00  0.00    -0.094 N
ATOM     16  H1  UNL     1      15.581  48.405 -58.666  1.00  0.00     0.213 HD
BRANCH  15  17
HETATM   17  O2  UNL     1      16.217  50.337 -58.856  1.00  0.00    -0.240 OA
BRANCH  17  18
HETATM   18  C2  UNL     1      15.550  51.536 -58.621  1.00  0.00     0.369 C
BRANCH  18  19
HETATM   19  O1  UNL     1      14.906  51.892 -59.828  1.00  0.00    -0.369 OA
HETATM   20  C1  UNL     1      15.892  51.750 -60.821  1.00  0.00     0.204 C
ENDBRANCH  18  19
ENDBRANCH  17  18
ENDBRANCH  15  17
ENDBRANCH   1  15
BRANCH  12  21
HETATM   21  S1  UNL     1      19.980  49.233 -55.069  1.00  0.00    -0.114 SA
HETATM   22  C10 UNL     1      20.439  50.964 -55.168  1.00  0.00     0.097 C
ENDBRANCH  12  21
BRANCH   5  23
HETATM   23  N3  UNL     1      13.915  47.811 -54.079  1.00  0.00    -0.290 N
ATOM     24  H3  UNL     1      13.575  48.143 -54.981  1.00  0.00     0.188 HD
BRANCH  23  25
HETATM   25  N4  UNL     1      13.032  47.174 -53.200  1.00  0.00    -0.344 N
ATOM     26  H42 UNL     1      13.364  46.929 -52.267  1.00  0.00     0.176 HD
ATOM     27  H41 UNL     1      12.077  46.958 -53.485  1.00  0.00     0.176 HD
ENDBRANCH  23  25
ENDBRANCH   5  23
BRANCH   8  28
HETATM   28  N6  UNL     1      17.304  47.776 -50.994  1.00  0.00    -0.234 N
ATOM     29  H62 UNL     1      16.772  48.229 -50.252  1.00  0.00     0.174 HD
ATOM     30  H61 UNL     1      18.119  47.185 -50.830  1.00  0.00     0.174 HD
ENDBRANCH   8  28
TORSDOF 8
ENDMDL