MODEL 1
REMARK VINA RESULT: -7.876065837      0.000      0.000
REMARK  7 active torsions:
REMARK  status: ('A' for Active; 'I' for Inactive)
REMARK    1  A    between atoms: C2_2  and  O1_3
REMARK    2  A    between atoms: C2_2  and  C3_5
REMARK    3  A    between atoms: C3_5  and  N1_6
REMARK    4  A    between atoms: N1_6  and  C4_8
REMARK    5  A    between atoms: C5_11  and  C6_12
REMARK    6  A    between atoms: C6_12  and  C7_13
REMARK    7  A    between atoms: C10_17  and  N4_18
ROOT
HETATM    1  C7  UNL     1      13.184  50.438 -48.324  1.00  0.00     0.082 A
HETATM    2  C8  UNL     1      14.414  50.214 -47.761  1.00  0.00     0.114 A
HETATM    3  C9  UNL     1      15.664  50.429 -48.443  1.00  0.00     0.105 C
HETATM    4  N3  UNL     1      16.673  50.574 -48.988  1.00  0.00    -0.191 NA
HETATM    5  C10 UNL     1      14.412  49.727 -46.454  1.00  0.00     0.137 A
HETATM    6  N5  UNL     1      13.288  49.483 -45.760  1.00  0.00    -0.173 N
ATOM      7  H5  UNL     1      13.336  49.127 -44.805  1.00  0.00     0.186 HD
HETATM    8  C11 UNL     1      12.100  49.713 -46.343  1.00  0.00     0.719 A
HETATM    9  N6  UNL     1      10.838  49.554 -45.876  1.00  0.00    -0.117 N
ATOM     10  H6  UNL     1      10.564  49.214 -44.954  1.00  0.00     0.207 HD
HETATM   11  N7  UNL     1      10.041  49.924 -46.846  1.00  0.00    -0.211 N
ATOM     12  H7  UNL     1       9.022  49.921 -46.807  1.00  0.00     0.206 HD
HETATM   13  N8  UNL     1      10.769  50.302 -47.885  1.00  0.00     0.016 NA
HETATM   14  N9  UNL     1      12.067  50.182 -47.602  1.00  0.00    -0.070 N
ENDROOT
BRANCH   1  15
HETATM   15  C6  UNL     1      13.088  50.977 -49.697  1.00  0.00     0.139 C
BRANCH  15  16
HETATM   16  C5  UNL     1      13.164  49.944 -50.755  1.00  0.00     0.118 A
HETATM   17  N2  UNL     1      13.497  49.995 -52.044  1.00  0.00    -0.178 N
HETATM   18  C4  UNL     1      13.412  48.762 -52.613  1.00  0.00     0.694 A
ATOM     19  H2  UNL     1      13.778  50.842 -52.536  1.00  0.00     0.185 HD
HETATM   20  N11 UNL     1      13.010  47.953 -51.617  1.00  0.00    -0.131 N
HETATM   21  N10 UNL     1      12.856  48.639 -50.497  1.00  0.00    -0.274 N
ATOM     22  H11 UNL     1      12.847  46.951 -51.712  1.00  0.00     0.205 HD
ATOM     23  H10 UNL     1      12.560  48.259 -49.598  1.00  0.00     0.189 HD
BRANCH  18  24
HETATM   24  N1  UNL     1      13.663  48.452 -53.843  1.00  0.00    -0.222 N
ATOM     25  H1  UNL     1      12.936  48.570 -54.548  1.00  0.00     0.177 HD
BRANCH  24  26
HETATM   26  C3  UNL     1      14.954  47.940 -54.237  1.00  0.00     0.169 C
BRANCH  26  27
HETATM   27  C2  UNL     1      15.363  48.426 -55.610  1.00  0.00     0.132 C
HETATM   28  C1  UNL     1      16.758  47.941 -55.899  1.00  0.00     0.041 C
BRANCH  27  29
HETATM   29  O1  UNL     1      14.484  47.979 -56.588  1.00  0.00    -0.394 OA
ATOM     30  H1  UNL     1      14.965  47.661 -57.343  1.00  0.00     0.210 HD
ENDBRANCH  27  29
ENDBRANCH  26  27
ENDBRANCH  24  26
ENDBRANCH  18  24
ENDBRANCH  15  16
ENDBRANCH   1  15
BRANCH   5  31
HETATM   31  N4  UNL     1      15.563  49.517 -45.921  1.00  0.00    -0.384 N
ATOM     32  H42 UNL     1      15.764  49.849 -44.978  1.00  0.00     0.157 HD
ATOM     33  H41 UNL     1      16.241  49.011 -46.492  1.00  0.00     0.157 HD
ENDBRANCH   5  31
TORSDOF 7
ENDMDL