MODEL 4
REMARK VINA RESULT: -7.596537398      0.812      1.916
REMARK  6 active torsions:
REMARK  status: ('A' for Active; 'I' for Inactive)
REMARK    1  A    between atoms: C2_5  and  C3_6
REMARK    2  A    between atoms: C3_6  and  N3_7
REMARK    3  A    between atoms: C3_6  and  C4_11
REMARK    4  A    between atoms: C4_11  and  C5_12
REMARK    5  A    between atoms: C7_17  and  N6_18
REMARK    6  A    between atoms: C11_29  and  C12_30
ROOT
HETATM    1  C3  UNL     1      13.048  49.291 -51.487  1.00  0.00     0.242 C
ENDROOT
BRANCH   1   2
HETATM    2  C2  UNL     1      14.002  49.287 -52.645  1.00  0.00     0.083 A
HETATM    3  N2  UNL     1      14.954  50.200 -52.901  1.00  0.00    -0.298 N
HETATM    4  N1  UNL     1      15.626  49.874 -54.014  1.00  0.00    -0.290 N
ATOM      5  H2  UNL     1      15.140  51.024 -52.329  1.00  0.00     0.187 HD
HETATM    6  C1  UNL     1      16.727  50.622 -54.603  1.00  0.00     0.178 C
HETATM    7  C11 UNL     1      15.094  48.739 -54.477  1.00  0.00     0.141 A
HETATM    8  C10 UNL     1      14.052  48.327 -53.633  1.00  0.00     0.105 A
HETATM    9  N9  UNL     1      13.263  47.172 -53.811  1.00  0.00    -0.098 NA
BRANCH   7  10
HETATM   10  C12 UNL     1      15.478  47.986 -55.665  1.00  0.00     0.285 C
HETATM   11  N10 UNL     1      16.722  47.309 -55.782  1.00  0.00    -0.056 NA
HETATM   12  O1  UNL     1      14.718  47.887 -56.672  1.00  0.00    -0.269 OA
ENDBRANCH   7  10
ENDBRANCH   1   2
BRANCH   1  13
HETATM   13  N3  UNL     1      13.300  48.045 -50.766  1.00  0.00    -0.069 N
ATOM     14  H33 UNL     1      13.032  47.209 -51.286  1.00  0.00     0.275 HD
ATOM     15  H32 UNL     1      14.289  47.818 -50.675  1.00  0.00     0.275 HD
ATOM     16  H31 UNL     1      12.818  48.143 -49.873  1.00  0.00     0.275 HD
ENDBRANCH   1  13
BRANCH   1  17
HETATM   17  C4  UNL     1      13.292  50.476 -50.592  1.00  0.00     0.100 C
BRANCH  17  18
HETATM   18  C5  UNL     1      12.778  50.316 -49.233  1.00  0.00     0.058 A
HETATM   19  N4  UNL     1      11.466  50.435 -48.889  1.00  0.00    -0.352 N
HETATM   20  C6  UNL     1      11.304  50.230 -47.581  1.00  0.00     0.209 A
ATOM     21  H4  UNL     1      10.712  50.649 -49.542  1.00  0.00     0.166 HD
HETATM   22  N5  UNL     1      12.534  49.972 -47.058  1.00  0.00    -0.127 N
HETATM   23  C7  UNL     1      12.933  49.703 -45.806  1.00  0.00     0.685 A
HETATM   24  C9  UNL     1      13.442  50.023 -48.068  1.00  0.00     0.153 A
HETATM   25  N7  UNL     1      14.237  49.485 -45.555  1.00  0.00    -0.188 N
HETATM   26  C8  UNL     1      15.164  49.525 -46.520  1.00  0.00     0.199 A
ATOM     27  H7  UNL     1      14.528  49.282 -44.599  1.00  0.00     0.185 HD
HETATM   28  N8  UNL     1      14.745  49.797 -47.768  1.00  0.00    -0.336 N
ATOM     29  H8  UNL     1      15.434  49.834 -48.520  1.00  0.00     0.168 HD
BRANCH  23  30
HETATM   30  N6  UNL     1      12.056  49.657 -44.864  1.00  0.00    -0.234 N
ATOM     31  H62 UNL     1      12.332  49.691 -43.883  1.00  0.00     0.174 HD
ATOM     32  H61 UNL     1      11.068  49.585 -45.108  1.00  0.00     0.174 HD
ENDBRANCH  23  30
ENDBRANCH  17  18
ENDBRANCH   1  17
TORSDOF 6
ENDMDL