MODEL 4
REMARK VINA RESULT: -8.107838645      4.675      6.804
REMARK  5 active torsions:
REMARK  status: ('A' for Active; 'I' for Inactive)
REMARK    1  A    between atoms: N1_1  and  C1_4
REMARK    2  A    between atoms: C2_9  and  N4_10
REMARK    3  A    between atoms: C4_14  and  C5_15
REMARK    4  A    between atoms: C5_15  and  N5_16
REMARK    5  A    between atoms: C6_20  and  C7_21
REMARK       I    between atoms: C7_21  and  N8_23
ROOT
HETATM    1  C5  UNL     1      17.624  48.327 -55.487  1.00  0.00     0.131 C
ENDROOT
BRANCH   1   2
HETATM    2  C4  UNL     1      18.615  48.245 -54.436  1.00  0.00     0.030 A
HETATM    3  C1  UNL     1      19.968  48.441 -54.546  1.00  0.00     0.125 A
HETATM    4  N2  UNL     1      20.769  48.321 -53.444  1.00  0.00    -0.283 N
HETATM    5  N3  UNL     1      20.304  48.023 -52.264  1.00  0.00    -0.279 N
ATOM      6  H2  UNL     1      21.772  48.471 -53.551  1.00  0.00     0.188 HD
HETATM    7  C2  UNL     1      18.992  47.817 -52.081  1.00  0.00     0.189 A
ATOM      8  H3  UNL     1      20.943  47.947 -51.473  1.00  0.00     0.189 HD
HETATM    9  C3  UNL     1      18.135  47.926 -53.162  1.00  0.00     0.073 A
BRANCH   3  10
HETATM   10  N1  UNL     1      20.499  48.735 -55.659  1.00  0.00    -0.384 N
ATOM     11  H12 UNL     1      21.500  48.922 -55.733  1.00  0.00     0.157 HD
ATOM     12  H11 UNL     1      19.908  48.783 -56.488  1.00  0.00     0.157 HD
ENDBRANCH   3  10
BRANCH   7  13
HETATM   13  N4  UNL     1      18.519  47.494 -50.779  1.00  0.00    -0.097 N
HETATM   14  O1  UNL     1      19.221  47.747 -49.780  1.00  0.00    -0.530 OA
HETATM   15  O2  UNL     1      17.295  46.910 -50.650  1.00  0.00    -0.530 OA
ENDBRANCH   7  13
ENDBRANCH   1   2
BRANCH   1  16
HETATM   16  N5  UNL     1      17.100  49.590 -55.861  1.00  0.00    -0.234 N
HETATM   17  N6  UNL     1      16.976  50.681 -55.121  1.00  0.00    -0.014 NA
HETATM   18  N7  UNL     1      16.416  51.653 -55.821  1.00  0.00    -0.276 N
HETATM   19  C6  UNL     1      16.174  51.172 -57.051  1.00  0.00     0.157 A
ATOM     20  H7  UNL     1      16.207  52.594 -55.489  1.00  0.00     0.184 HD
HETATM   21  C9  UNL     1      16.604  49.867 -57.081  1.00  0.00     0.169 A
HETATM   22  N11 UNL     1      16.533  48.972 -58.213  1.00  0.00    -0.078 NA
BRANCH  19  23
HETATM   23  C7  UNL     1      15.569  51.848 -58.189  1.00  0.00     0.278 C
HETATM   24  O3  UNL     1      14.401  52.292 -58.184  1.00  0.00    -0.265 OA
HETATM   25  N8  UNL     1      16.329  52.021 -59.377  1.00  0.00    -0.298 N
HETATM   26  C8  UNL     1      15.860  51.538 -60.477  1.00  0.00     0.203 C
ATOM     27  H8  UNL     1      17.222  52.513 -59.361  1.00  0.00     0.171 HD
HETATM   28  N9  UNL     1      16.658  51.736 -61.643  1.00  0.00    -0.066 NA
HETATM   29  N10 UNL     1      14.620  50.851 -60.514  1.00  0.00    -0.066 NA
ENDBRANCH  19  23
ENDBRANCH   1  16
TORSDOF 5
ENDMDL