MODEL 5
REMARK VINA RESULT: -6.442525602      4.814      7.469
REMARK  6 active torsions:
REMARK  status: ('A' for Active; 'I' for Inactive)
REMARK    1  A    between atoms: O1_2  and  N1_3
REMARK    2  A    between atoms: N1_3  and  C2_5
REMARK    3  A    between atoms: C6_10  and  O3_11
REMARK    4  A    between atoms: C8_14  and  N2_15
REMARK       I    between atoms: N2_15  and  C9_17
REMARK    5  A    between atoms: N4_19  and  O5_21
REMARK    6  A    between atoms: C10_23  and  N5_24
ROOT
HETATM    1  C2  UNL     1      19.724  48.313 -54.763  1.00  0.00     0.116 C
HETATM    2  C3  UNL     1      19.873  49.788 -54.410  1.00  0.00     0.054 C
HETATM    3  C4  UNL     1      19.260  50.543 -55.578  1.00  0.00     0.170 C
HETATM    4  O2  UNL     1      18.833  49.754 -56.606  1.00  0.00    -0.380 OA
HETATM    5  C5  UNL     1      17.952  48.752 -56.320  1.00  0.00     0.184 C
HETATM    6  C6  UNL     1      16.507  49.102 -56.395  1.00  0.00     0.291 C
HETATM    7  O4  UNL     1      15.812  48.003 -55.832  1.00  0.00    -0.332 OA
HETATM    8  C8  UNL     1      15.902  48.173 -54.453  1.00  0.00     0.257 C
HETATM    9  C10 UNL     1      17.314  48.530 -53.998  1.00  0.00     0.240 C
HETATM   10  C11 UNL     1      18.289  48.027 -55.002  1.00  0.00     0.079 C
ENDROOT
BRANCH   8  11
HETATM   11  N2  UNL     1      14.914  49.124 -54.024  1.00  0.00    -0.335 N
HETATM   12  C9  UNL     1      14.349  49.153 -52.732  1.00  0.00     0.210 C
HETATM   13  N3  UNL     1      14.540  50.239 -51.812  1.00  0.00    -0.062 NA
HETATM   14  N4  UNL     1      13.615  48.178 -52.312  1.00  0.00    -0.241 N
ATOM     15  H4  UNL     1      13.458  47.393 -52.943  1.00  0.00     0.197 HD
ATOM     16  H2  UNL     1      14.600  49.823 -54.698  1.00  0.00     0.164 HD
BRANCH  14  17
HETATM   17  O5  UNL     1      13.038  48.132 -51.086  1.00  0.00    -0.287 OA
ATOM     18  H5  UNL     1      12.891  47.333 -50.594  1.00  0.00     0.244 HD
ENDBRANCH  14  17
ENDBRANCH   8  11
BRANCH   9  19
HETATM   19  N5  UNL     1      17.443  47.982 -52.671  1.00  0.00    -0.070 N
ATOM     20  H53 UNL     1      16.559  47.923 -52.165  1.00  0.00     0.274 HD
ATOM     21  H52 UNL     1      17.655  46.985 -52.659  1.00  0.00     0.274 HD
ATOM     22  H51 UNL     1      18.145  48.556 -52.205  1.00  0.00     0.274 HD
ENDBRANCH   9  19
BRANCH   6  23
HETATM   23  O3  UNL     1      16.088  49.167 -57.722  1.00  0.00    -0.363 OA
HETATM   24  C7  UNL     1      15.889  50.486 -58.129  1.00  0.00     0.204 C
ENDBRANCH   6  23
BRANCH   1  25
HETATM   25  N1  UNL     1      20.473  47.426 -53.963  1.00  0.00    -0.298 N
ATOM     26  H1  UNL     1      20.463  46.420 -54.136  1.00  0.00     0.188 HD
BRANCH  25  27
HETATM   27  O1  UNL     1      21.190  47.947 -52.978  1.00  0.00    -0.290 OA
HETATM   28  C1  UNL     1      20.692  47.683 -51.705  1.00  0.00     0.237 C
ENDBRANCH  25  27
ENDBRANCH   1  25
TORSDOF 6
ENDMDL