MODEL 2
REMARK VINA RESULT: -7.445454724      0.986      1.041
REMARK  7 active torsions:
REMARK  status: ('A' for Active; 'I' for Inactive)
REMARK    1  A    between atoms: C2_2  and  C3_4
REMARK    2  A    between atoms: C3_4  and  N1_5
REMARK    3  A    between atoms: C4_10  and  C5_11
REMARK    4  A    between atoms: C5_11  and  C6_13
REMARK    5  A    between atoms: C8_15  and  N4_16
REMARK    6  A    between atoms: C10_22  and  N6_23
REMARK    7  A    between atoms: N6_23  and  N7_25
ROOT
HETATM    1  C6  UNL     1      13.697  49.217 -49.571  1.00  0.00     0.052 A
HETATM    2  C7  UNL     1      14.795  48.434 -49.254  1.00  0.00     0.066 A
HETATM    3  C8  UNL     1      15.042  48.065 -47.946  1.00  0.00     0.100 A
HETATM    4  N5  UNL     1      14.246  48.440 -46.928  1.00  0.00    -0.338 N
ATOM      5  H5  UNL     1      14.449  48.157 -45.970  1.00  0.00     0.167 HD
HETATM    6  C9  UNL     1      13.177  49.197 -47.211  1.00  0.00     0.110 A
HETATM    7  C10 UNL     1      12.206  49.723 -46.386  1.00  0.00     0.164 A
HETATM    8  N8  UNL     1      11.375  50.407 -47.201  1.00  0.00    -0.282 N
ATOM      9  H8  UNL     1      10.549  50.913 -46.882  1.00  0.00     0.188 HD
HETATM   10  N9  UNL     1      11.763  50.340 -48.454  1.00  0.00    -0.296 N
ATOM     11  H9  UNL     1      11.292  50.778 -49.245  1.00  0.00     0.187 HD
HETATM   12  C11 UNL     1      12.885  49.596 -48.520  1.00  0.00     0.093 A
ENDROOT
BRANCH   1  13
HETATM   13  C5  UNL     1      13.364  49.646 -50.913  1.00  0.00     0.231 C
HETATM   14  O2  UNL     1      12.824  50.787 -51.074  1.00  0.00    -0.283 OA
BRANCH  13  15
HETATM   15  C4  UNL     1      13.605  48.847 -52.112  1.00  0.00     0.189 A
HETATM   16  N3  UNL     1      13.183  47.566 -52.326  1.00  0.00    -0.265 N
HETATM   17  N2  UNL     1      13.615  47.210 -53.537  1.00  0.00    -0.224 N
ATOM     18  H3  UNL     1      12.640  46.991 -51.682  1.00  0.00     0.190 HD
HETATM   19  N1  UNL     1      14.286  48.188 -54.100  1.00  0.00    -0.211 N
ATOM     20  H2  UNL     1      13.447  46.300 -53.967  1.00  0.00     0.210 HD
HETATM   21  N10 UNL     1      14.274  49.182 -53.224  1.00  0.00    -0.263 N
ATOM     22  H10 UNL     1      14.717  50.088 -53.377  1.00  0.00     0.190 HD
BRANCH  19  23
HETATM   23  C3  UNL     1      14.927  48.195 -55.421  1.00  0.00     0.248 C
BRANCH  23  24
HETATM   24  C2  UNL     1      16.401  48.147 -55.249  1.00  0.00     0.144 C
HETATM   25  C1  UNL     1      17.394  48.131 -56.340  1.00  0.00     0.093 C
HETATM   26  O1  UNL     1      16.803  48.116 -54.076  1.00  0.00    -0.296 OA
ENDBRANCH  23  24
ENDBRANCH  19  23
ENDBRANCH  13  15
ENDBRANCH   1  13
BRANCH   3  27
HETATM   27  N4  UNL     1      16.071  47.330 -47.660  1.00  0.00    -0.385 N
ATOM     28  H42 UNL     1      16.183  46.457 -48.177  1.00  0.00     0.157 HD
ATOM     29  H41 UNL     1      16.732  47.630 -46.944  1.00  0.00     0.157 HD
ENDBRANCH   3  27
BRANCH   7  30
HETATM   30  N6  UNL     1      12.061  49.608 -44.995  1.00  0.00    -0.289 N
ATOM     31  H6  UNL     1      12.886  49.820 -44.433  1.00  0.00     0.188 HD
BRANCH  30  32
HETATM   32  N7  UNL     1      10.929  49.242 -44.308  1.00  0.00    -0.344 N
ATOM     33  H72 UNL     1      10.082  49.160 -44.871  1.00  0.00     0.176 HD
ATOM     34  H71 UNL     1      10.852  49.047 -43.309  1.00  0.00     0.176 HD
ENDBRANCH  30  32
ENDBRANCH   7  30
TORSDOF 7
ENDMDL