MODEL 5
REMARK VINA RESULT: -6.756153147      2.513      4.931
REMARK  6 active torsions:
REMARK  status: ('A' for Active; 'I' for Inactive)
REMARK       I    between atoms: C1_2  and  N2_4
REMARK    1  A    between atoms: N2_4  and  N3_6
REMARK    2  A    between atoms: N3_6  and  C2_8
REMARK    3  A    between atoms: C3_11  and  S1_12
REMARK    4  A    between atoms: S1_12  and  C4_13
REMARK    5  A    between atoms: C5_23  and  N9_24
REMARK    6  A    between atoms: N9_24  and  O2_26
ROOT
HETATM    1  C2  UNL     1      16.770  48.523 -56.083  1.00  0.00     0.713 A
HETATM    2  N4  UNL     1      16.336  48.354 -54.830  1.00  0.00    -0.167 N
ATOM      3  H4  UNL     1      15.343  48.247 -54.627  1.00  0.00     0.186 HD
HETATM    4  C3  UNL     1      17.259  48.329 -53.841  1.00  0.00     0.182 A
HETATM    5  N8  UNL     1      18.570  48.469 -54.110  1.00  0.00    -0.167 N
ATOM      6  H8  UNL     1      19.242  48.444 -53.342  1.00  0.00     0.186 HD
HETATM    7  C5  UNL     1      19.017  48.642 -55.372  1.00  0.00     0.718 A
HETATM    8  N10 UNL     1      18.081  48.663 -56.338  1.00  0.00    -0.019 N
ATOM      9  H10 UNL     1      18.379  48.792 -57.304  1.00  0.00     0.203 HD
ENDROOT
BRANCH   4  10
HETATM   10  S1  UNL     1      16.658  48.101 -52.180  1.00  0.00    -0.015 SA
BRANCH  10  11
HETATM   11  C4  UNL     1      14.897  48.545 -52.142  1.00  0.00     0.174 A
HETATM   12  N5  UNL     1      13.977  47.712 -52.545  1.00  0.00    -0.272 N
HETATM   13  N6  UNL     1      12.731  48.081 -52.496  1.00  0.00    -0.254 N
ATOM     14  H5  UNL     1      14.231  46.788 -52.893  1.00  0.00     0.189 HD
HETATM   15  S2  UNL     1      12.819  49.638 -51.870  1.00  0.00     0.085 SA
ATOM     16  H6  UNL     1      11.902  47.554 -52.770  1.00  0.00     0.197 HD
HETATM   17  N7  UNL     1      14.491  49.737 -51.700  1.00  0.00    -0.290 N
ATOM     18  H7  UNL     1      15.052  50.512 -51.348  1.00  0.00     0.178 HD
ENDBRANCH  10  11
ENDBRANCH   4  10
BRANCH   1  19
HETATM   19  N3  UNL     1      15.932  48.555 -57.067  1.00  0.00    -0.128 N
ATOM     20  H3  UNL     1      15.920  47.765 -57.712  1.00  0.00     0.205 HD
BRANCH  19  21
HETATM   21  N2  UNL     1      15.050  49.597 -57.297  1.00  0.00    -0.240 N
HETATM   22  C1  UNL     1      15.504  50.752 -57.963  1.00  0.00     0.347 C
HETATM   23  N1  UNL     1      14.573  51.809 -58.186  1.00  0.00    -0.038 NA
HETATM   24  O1  UNL     1      16.701  50.862 -58.360  1.00  0.00    -0.249 OA
ATOM     25  H2  UNL     1      14.080  49.529 -56.987  1.00  0.00     0.192 HD
ENDBRANCH  19  21
ENDBRANCH   1  19
BRANCH   7  26
HETATM   26  N9  UNL     1      20.256  48.779 -55.676  1.00  0.00    -0.098 N
ATOM     27  H9  UNL     1      20.980  48.484 -55.021  1.00  0.00     0.213 HD
BRANCH  26  28
HETATM   28  O2  UNL     1      20.605  49.328 -56.896  1.00  0.00    -0.276 OA
ATOM     29  H2  UNL     1      20.347  50.219 -57.102  1.00  0.00     0.245 HD
ENDBRANCH  26  28
ENDBRANCH   7  26
TORSDOF 6
ENDMDL