MODEL 5
REMARK VINA RESULT: -6.530294032      2.244      3.701
REMARK  7 active torsions:
REMARK  status: ('A' for Active; 'I' for Inactive)
REMARK    1  A    between atoms: O1_2  and  N1_3
REMARK       I    between atoms: N1_3  and  C2_4
REMARK    2  A    between atoms: N1_3  and  C4_14
REMARK       I    between atoms: C2_4  and  N3_8
REMARK    3  A    between atoms: N3_8  and  O2_10
REMARK    4  A    between atoms: O2_10  and  C3_11
REMARK    5  A    between atoms: C5_17  and  N6_18
REMARK    6  A    between atoms: C8_22  and  N7_23
REMARK    7  A    between atoms: N7_23  and  N8_25
ROOT
HETATM    1  C4  UNL     1      16.307  49.238 -54.202  1.00  0.00     0.728 A
HETATM    2  N5  UNL     1      16.982  48.837 -53.132  1.00  0.00    -0.167 N
ATOM      3  H5  UNL     1      17.945  49.166 -53.059  1.00  0.00     0.186 HD
HETATM    4  C5  UNL     1      16.555  48.061 -52.145  1.00  0.00     0.164 A
HETATM    5  S1  UNL     1      14.919  47.552 -52.346  1.00  0.00    -0.015 SA
HETATM    6  C8  UNL     1      14.218  48.169 -53.782  1.00  0.00     0.181 A
HETATM    7  N9  UNL     1      15.054  48.934 -54.496  1.00  0.00    -0.166 N
ATOM      8  H9  UNL     1      14.683  49.325 -55.361  1.00  0.00     0.186 HD
ENDROOT
BRANCH   1   9
HETATM    9  N1  UNL     1      17.034  50.086 -55.119  1.00  0.00     0.130 N
HETATM   10  C2  UNL     1      16.892  50.013 -56.515  1.00  0.00     0.738 C
HETATM   11  N2  UNL     1      17.197  48.922 -57.129  1.00  0.00    -0.230 N
HETATM   12  N3  UNL     1      16.423  51.098 -57.305  1.00  0.00    -0.084 N
ATOM     13  H22 UNL     1      17.533  48.144 -56.562  1.00  0.00     0.174 HD
ATOM     14  H21 UNL     1      17.094  48.870 -58.142  1.00  0.00     0.174 HD
ATOM     15  H3  UNL     1      16.609  52.047 -56.982  1.00  0.00     0.214 HD
BRANCH   9  16
HETATM   16  O1  UNL     1      17.908  51.014 -54.640  1.00  0.00    -0.251 OA
HETATM   17  C1  UNL     1      17.152  52.079 -54.152  1.00  0.00     0.239 C
ENDBRANCH   9  16
BRANCH  12  18
HETATM   18  O2  UNL     1      15.743  50.936 -58.463  1.00  0.00    -0.169 OA
BRANCH  18  19
HETATM   19  C3  UNL     1      15.737  51.960 -59.400  1.00  0.00     0.395 C
HETATM   20  N4  UNL     1      16.591  51.950 -60.538  1.00  0.00    -0.031 NA
HETATM   21  O3  UNL     1      14.960  52.954 -59.271  1.00  0.00    -0.240 OA
ENDBRANCH  18  19
ENDBRANCH  12  18
ENDBRANCH   1   9
BRANCH   4  22
HETATM   22  N6  UNL     1      17.328  47.672 -51.031  1.00  0.00    -0.370 N
HETATM   23  C6  UNL     1      16.739  47.655 -49.721  1.00  0.00     0.151 C
HETATM   24  C7  UNL     1      18.701  47.293 -51.210  1.00  0.00     0.151 C
ENDBRANCH   4  22
BRANCH   6  25
HETATM   25  N7  UNL     1      12.992  47.918 -54.145  1.00  0.00    -0.286 N
ATOM     26  H7  UNL     1      12.772  47.520 -55.058  1.00  0.00     0.188 HD
BRANCH  25  27
HETATM   27  N8  UNL     1      12.001  48.220 -53.222  1.00  0.00    -0.343 N
ATOM     28  H82 UNL     1      11.622  47.501 -52.606  1.00  0.00     0.176 HD
ATOM     29  H81 UNL     1      11.682  49.189 -53.198  1.00  0.00     0.176 HD
ENDBRANCH  25  27
ENDBRANCH   6  25
TORSDOF 7
ENDMDL