MODEL 2
REMARK VINA RESULT: -6.477670664      5.273      6.680
REMARK  7 active torsions:
REMARK  status: ('A' for Active; 'I' for Inactive)
REMARK    1  A    between atoms: S1_2  and  C2_3
REMARK    2  A    between atoms: C3_5  and  N1_6
REMARK    3  A    between atoms: N1_6  and  C4_8
REMARK    4  A    between atoms: C4_8  and  O1_9
REMARK    5  A    between atoms: C4_8  and  N2_11
REMARK       I    between atoms: N2_11  and  C5_13
REMARK    6  A    between atoms: N4_19  and  N5_20
REMARK    7  A    between atoms: N5_20  and  N6_21
ROOT
HETATM    1  N2  UNL     1      14.997  47.835 -54.175  1.00  0.00    -0.305 N
ATOM      2  H2  UNL     1      15.789  47.629 -53.566  1.00  0.00     0.167 HD
HETATM    3  C5  UNL     1      15.199  48.001 -55.568  1.00  0.00     0.325 C
HETATM    4  O2  UNL     1      14.221  48.255 -56.303  1.00  0.00    -0.256 OA
HETATM    5  C6  UNL     1      16.510  47.879 -56.127  1.00  0.00     0.162 C
HETATM    6  N3  UNL     1      17.584  47.770 -56.569  1.00  0.00    -0.186 NA
ENDROOT
BRANCH   1   7
HETATM    7  C4  UNL     1      13.678  47.960 -53.620  1.00  0.00     0.330 C
BRANCH   7   8
HETATM    8  N1  UNL     1      13.681  47.606 -52.218  1.00  0.00    -0.340 N
ATOM      9  H1  UNL     1      13.816  46.635 -51.940  1.00  0.00     0.164 HD
BRANCH   8  10
HETATM   10  C3  UNL     1      13.497  48.607 -51.225  1.00  0.00     0.104 A
HETATM   11  S2  UNL     1      12.803  50.146 -51.452  1.00  0.00    -0.061 SA
HETATM   12  C2  UNL     1      12.935  50.743 -49.841  1.00  0.00     0.075 A
HETATM   13  C8  UNL     1      13.525  49.694 -49.187  1.00  0.00     0.126 A
HETATM   14  C7  UNL     1      13.813  48.602 -49.891  1.00  0.00     0.099 A
HETATM   15  N4  UNL     1      13.861  49.686 -47.775  1.00  0.00    -0.176 N
HETATM   16  N8  UNL     1      14.438  47.479 -49.223  1.00  0.00    -0.347 N
HETATM   17  C9  UNL     1      14.737  47.459 -47.990  1.00  0.00     0.199 A
ATOM     18  H8  UNL     1      14.651  46.651 -49.780  1.00  0.00     0.167 HD
HETATM   19  N7  UNL     1      14.465  48.577 -47.169  1.00  0.00    -0.276 N
ATOM     20  H7  UNL     1      14.698  48.575 -46.176  1.00  0.00     0.189 HD
BRANCH  12  21
HETATM   21  S1  UNL     1      12.413  52.351 -49.216  1.00  0.00    -0.125 SA
HETATM   22  C1  UNL     1      10.724  52.143 -48.584  1.00  0.00     0.096 C
ENDBRANCH  12  21
BRANCH  15  23
HETATM   23  N5  UNL     1      13.602  50.771 -46.960  1.00  0.00    -0.006 NA
BRANCH  23  24
HETATM   24  N6  UNL     1      12.886  50.437 -45.809  1.00  0.00    -0.327 N
ATOM     25  H62 UNL     1      11.940  50.056 -45.843  1.00  0.00     0.174 HD
ATOM     26  H61 UNL     1      13.404  50.612 -44.948  1.00  0.00     0.174 HD
ENDBRANCH  23  24
ENDBRANCH  15  23
ENDBRANCH   8  10
ENDBRANCH   7   8
BRANCH   7  27
HETATM   27  O1  UNL     1      12.715  47.222 -54.341  1.00  0.00    -0.359 OA
ATOM     28  H1  UNL     1      12.539  47.610 -55.190  1.00  0.00     0.214 HD
ENDBRANCH   7  27
ENDBRANCH   1   7
TORSDOF 7
ENDMDL