MODEL 4
REMARK VINA RESULT: -7.687718388      3.855      6.663
REMARK  5 active torsions:
REMARK  status: ('A' for Active; 'I' for Inactive)
REMARK       I    between atoms: N1_2  and  C2_4
REMARK    1  A    between atoms: C2_4  and  C3_6
REMARK    2  A    between atoms: C4_7  and  N2_8
REMARK    3  A    between atoms: N2_8  and  N3_10
REMARK    4  A    between atoms: N4_12  and  C5_14
REMARK    5  A    between atoms: C6_15  and  O2_16
ROOT
HETATM    1  N3  UNL     1      13.205  50.406 -46.384  1.00  0.00    -0.240 N
ATOM      2  H3  UNL     1      12.998  51.290 -45.918  1.00  0.00     0.208 HD
HETATM    3  N4  UNL     1      12.385  49.867 -47.189  1.00  0.00    -0.277 N
ATOM      4  H4  UNL     1      12.662  48.984 -47.617  1.00  0.00     0.189 HD
ENDROOT
BRANCH   1   5
HETATM    5  N2  UNL     1      14.410  49.725 -46.171  1.00  0.00    -0.268 N
ATOM      6  H2  UNL     1      14.848  49.712 -45.250  1.00  0.00     0.190 HD
BRANCH   5   7
HETATM    7  C4  UNL     1      15.000  49.057 -47.267  1.00  0.00     0.171 A
HETATM    8  C3  UNL     1      15.594  49.587 -48.400  1.00  0.00     0.166 A
HETATM    9  N9  UNL     1      16.004  48.532 -49.146  1.00  0.00    -0.274 N
HETATM   10  N8  UNL     1      15.676  47.410 -48.499  1.00  0.00    -0.239 N
HETATM   11  C9  UNL     1      16.678  48.522 -50.416  1.00  0.00     0.179 C
HETATM   12  N7  UNL     1      15.090  47.698 -47.403  1.00  0.00    -0.268 N
ATOM     13  H8  UNL     1      15.866  46.465 -48.832  1.00  0.00     0.208 HD
ATOM     14  H7  UNL     1      14.741  47.017 -46.729  1.00  0.00     0.190 HD
BRANCH   8  15
HETATM   15  C2  UNL     1      15.738  50.985 -48.705  1.00  0.00     0.273 C
HETATM   16  N1  UNL     1      16.893  51.687 -49.016  1.00  0.00    -0.360 N
HETATM   17  C1  UNL     1      16.833  53.143 -49.304  1.00  0.00     0.149 C
ATOM     18  H1  UNL     1      17.789  51.201 -49.049  1.00  0.00     0.162 HD
HETATM   19  O1  UNL     1      14.659  51.696 -48.693  1.00  0.00    -0.266 OA
ENDBRANCH   8  15
ENDBRANCH   5   7
ENDBRANCH   1   5
BRANCH   3  20
HETATM   20  C5  UNL     1      11.132  50.384 -47.536  1.00  0.00     0.169 A
HETATM   21  C6  UNL     1      10.979  51.649 -48.067  1.00  0.00     0.178 A
HETATM   22  N5  UNL     1       9.740  52.074 -48.376  1.00  0.00    -0.287 N
HETATM   23  C7  UNL     1       8.629  51.339 -48.201  1.00  0.00     0.329 A
ATOM     24  H5  UNL     1       9.639  53.011 -48.767  1.00  0.00     0.172 HD
HETATM   25  O3  UNL     1       7.476  51.794 -48.512  1.00  0.00    -0.247 OA
HETATM   26  N6  UNL     1       8.777  50.110 -47.686  1.00  0.00    -0.273 N
HETATM   27  C8  UNL     1       9.987  49.637 -47.360  1.00  0.00     0.281 A
ATOM     28  H6  UNL     1       7.955  49.525 -47.541  1.00  0.00     0.173 HD
HETATM   29  O4  UNL     1      10.019  48.461 -46.880  1.00  0.00    -0.265 OA
BRANCH  21  30
HETATM   30  O2  UNL     1      12.097  52.467 -48.274  1.00  0.00    -0.344 OA
ATOM     31  H2  UNL     1      12.733  52.594 -47.579  1.00  0.00     0.219 HD
ENDBRANCH  21  30
ENDBRANCH   3  20
TORSDOF 5
ENDMDL