MODEL 1
REMARK VINA RESULT: -6.454255088      0.000      0.000
REMARK  7 active torsions:
REMARK  status: ('A' for Active; 'I' for Inactive)
REMARK    1  A    between atoms: C3_6  and  N3_7
REMARK    2  A    between atoms: C4_10  and  C5_11
REMARK    3  A    between atoms: C5_11  and  N4_12
REMARK    4  A    between atoms: C5_11  and  C6_16
REMARK       I    between atoms: C6_16  and  N5_18
REMARK    5  A    between atoms: N5_18  and  N6_20
REMARK    6  A    between atoms: C7_21  and  N7_22
REMARK    7  A    between atoms: C8_28  and  N9_29
ROOT
HETATM    1  C6  UNL     1      13.691  49.313 -50.268  1.00  0.00     0.273 C
HETATM    2  O3  UNL     1      13.233  48.217 -49.944  1.00  0.00    -0.269 OA
HETATM    3  N5  UNL     1      14.122  49.641 -51.536  1.00  0.00    -0.244 N
ATOM      4  H5  UNL     1      14.441  50.608 -51.608  1.00  0.00     0.191 HD
ENDROOT
BRANCH   1   5
HETATM    5  C5  UNL     1      13.753  50.315 -49.125  1.00  0.00     0.330 C
BRANCH   5   6
HETATM    6  C4  UNL     1      12.498  51.033 -48.904  1.00  0.00     0.102 A
HETATM    7  N1  UNL     1      12.141  52.163 -49.503  1.00  0.00    -0.296 N
HETATM    8  C1  UNL     1      12.749  53.019 -50.480  1.00  0.00     0.177 C
HETATM    9  N2  UNL     1      10.924  52.472 -49.028  1.00  0.00    -0.307 N
HETATM   10  C2  UNL     1      10.498  51.592 -48.159  1.00  0.00     0.145 A
ATOM     11  H2  UNL     1      10.394  53.297 -49.311  1.00  0.00     0.186 HD
HETATM   12  C3  UNL     1      11.485  50.626 -48.037  1.00  0.00     0.146 A
BRANCH  12  13
HETATM   13  N3  UNL     1      11.433  49.475 -47.183  1.00  0.00    -0.112 N
HETATM   14  O1  UNL     1      10.742  48.498 -47.496  1.00  0.00    -0.532 OA
HETATM   15  O2  UNL     1      12.130  49.422 -46.000  1.00  0.00    -0.532 OA
ENDBRANCH  12  13
ENDBRANCH   5   6
BRANCH   5  16
HETATM   16  N4  UNL     1      14.312  49.705 -47.941  1.00  0.00    -0.061 N
ATOM     17  H43 UNL     1      15.190  50.159 -47.689  1.00  0.00     0.275 HD
ATOM     18  H42 UNL     1      13.752  49.940 -47.122  1.00  0.00     0.275 HD
ATOM     19  H41 UNL     1      14.440  48.695 -48.004  1.00  0.00     0.275 HD
ENDBRANCH   5  16
ENDBRANCH   1   5
BRANCH   3  20
HETATM   20  N6  UNL     1      14.220  48.935 -52.758  1.00  0.00    -0.059 N
HETATM   21  C7  UNL     1      13.240  48.407 -53.449  1.00  0.00     0.705 A
HETATM   22  N8  UNL     1      13.534  47.919 -54.702  1.00  0.00    -0.156 N
HETATM   23  S1  UNL     1      15.152  48.207 -54.867  1.00  0.00     0.040 SA
ATOM     24  H8  UNL     1      12.901  47.483 -55.371  1.00  0.00     0.193 HD
HETATM   25  C8  UNL     1      15.458  48.934 -53.378  1.00  0.00     0.198 A
BRANCH  21  26
HETATM   26  N7  UNL     1      12.004  48.127 -53.088  1.00  0.00    -0.232 N
ATOM     27  H72 UNL     1      11.780  48.506 -52.167  1.00  0.00     0.174 HD
ATOM     28  H71 UNL     1      11.246  47.702 -53.621  1.00  0.00     0.174 HD
ENDBRANCH  21  26
BRANCH  25  29
HETATM   29  N9  UNL     1      16.588  49.403 -52.898  1.00  0.00    -0.377 N
ATOM     30  H92 UNL     1      17.000  49.271 -51.975  1.00  0.00     0.158 HD
ATOM     31  H91 UNL     1      17.267  49.990 -53.382  1.00  0.00     0.158 HD
ENDBRANCH  25  29
ENDBRANCH   3  20
TORSDOF 7
ENDMDL