MODEL 2
REMARK VINA RESULT: -6.911642856      1.393      2.451
REMARK  5 active torsions:
REMARK  status: ('A' for Active; 'I' for Inactive)
REMARK    1  A    between atoms: S1_2  and  C2_3
REMARK    2  A    between atoms: C4_10  and  C5_11
REMARK    3  A    between atoms: N4_13  and  N5_15
REMARK       I    between atoms: C7_17  and  N7_19
REMARK    4  A    between atoms: N7_19  and  N8_21
REMARK    5  A    between atoms: C8_28  and  N12_29
ROOT
HETATM    1  N5  UNL     1      13.431  49.870 -50.371  1.00  0.00    -0.272 N
ATOM      2  H5  UNL     1      12.581  49.960 -50.928  1.00  0.00     0.189 HD
HETATM    3  C7  UNL     1      13.359  50.040 -49.095  1.00  0.00     0.224 C
HETATM    4  N6  UNL     1      14.532  49.918 -48.319  1.00  0.00    -0.061 NA
HETATM    5  N7  UNL     1      12.127  50.344 -48.476  1.00  0.00    -0.235 N
ATOM      6  H7  UNL     1      11.420  50.858 -49.002  1.00  0.00     0.192 HD
ENDROOT
BRANCH   1   7
HETATM    7  N4  UNL     1      14.613  49.573 -51.008  1.00  0.00    -0.300 N
HETATM    8  C5  UNL     1      14.772  48.545 -51.808  1.00  0.00     0.053 C
HETATM    9  C6  UNL     1      13.600  47.692 -52.008  1.00  0.00     0.072 C
ATOM     10  H4  UNL     1      15.412  50.187 -50.849  1.00  0.00     0.186 HD
BRANCH   8  11
HETATM   11  C4  UNL     1      16.085  48.354 -52.413  1.00  0.00     0.110 A
HETATM   12  C2  UNL     1      17.205  47.903 -51.708  1.00  0.00     0.116 A
HETATM   13  N1  UNL     1      18.188  47.870 -52.623  1.00  0.00    -0.277 N
HETATM   14  N2  UNL     1      17.728  48.264 -53.791  1.00  0.00    -0.239 N
ATOM     15  H1  UNL     1      19.150  47.583 -52.439  1.00  0.00     0.189 HD
HETATM   16  N3  UNL     1      16.425  48.572 -53.696  1.00  0.00    -0.278 N
ATOM     17  H2  UNL     1      18.281  48.326 -54.646  1.00  0.00     0.208 HD
HETATM   18  C3  UNL     1      15.583  49.044 -54.790  1.00  0.00     0.179 C
BRANCH  12  19
HETATM   19  S1  UNL     1      17.281  47.474 -49.978  1.00  0.00    -0.113 SA
HETATM   20  C1  UNL     1      17.963  48.879 -49.046  1.00  0.00     0.097 C
ENDBRANCH  12  19
ENDBRANCH   8  11
ENDBRANCH   1   7
BRANCH   5  21
HETATM   21  N8  UNL     1      11.848  49.957 -47.153  1.00  0.00    -0.001 N
HETATM   22  N9  UNL     1      12.631  50.089 -46.114  1.00  0.00    -0.191 N
HETATM   23  N10 UNL     1      12.049  49.619 -45.028  1.00  0.00    -0.212 N
ATOM     24  H9  UNL     1      13.564  50.500 -46.140  1.00  0.00     0.212 HD
HETATM   25  N11 UNL     1      10.863  49.179 -45.415  1.00  0.00    -0.114 N
ATOM     26  H10 UNL     1      12.434  49.598 -44.084  1.00  0.00     0.210 HD
HETATM   27  C8  UNL     1      10.715  49.379 -46.736  1.00  0.00     0.729 A
ATOM     28  H11 UNL     1      10.167  48.753 -44.804  1.00  0.00     0.207 HD
BRANCH  27  29
HETATM   29  N12 UNL     1       9.693  49.079 -47.461  1.00  0.00    -0.230 N
ATOM     30 2H12 UNL     1       9.653  49.019 -48.479  1.00  0.00     0.174 HD
ATOM     31 1H12 UNL     1       8.755  48.852 -47.128  1.00  0.00     0.174 HD
ENDBRANCH  27  29
ENDBRANCH   5  21
TORSDOF 5
ENDMDL