MODEL 1
REMARK VINA RESULT: -7.782609943      0.000      0.000
REMARK  4 active torsions:
REMARK  status: ('A' for Active; 'I' for Inactive)
REMARK    1  A    between atoms: C4_8  and  C5_9
REMARK    2  A    between atoms: C6_17  and  C7_18
REMARK       I    between atoms: C7_18  and  N8_20
REMARK    3  A    between atoms: N8_20  and  N9_22
REMARK    4  A    between atoms: C8_24  and  C9_25
ROOT
HETATM    1  N1  UNL     1      17.790  47.779 -48.307  1.00  0.00    -0.191 NA
HETATM    2  C1  UNL     1      16.774  48.178 -47.888  1.00  0.00     0.104 C
HETATM    3  C2  UNL     1      15.532  48.653 -47.337  1.00  0.00     0.103 A
HETATM    4  C3  UNL     1      15.346  48.973 -46.006  1.00  0.00     0.139 A
HETATM    5  N2  UNL     1      16.371  48.907 -44.998  1.00  0.00    -0.081 NA
HETATM    6  N3  UNL     1      14.100  49.334 -45.845  1.00  0.00    -0.340 N
ATOM      7  H3  UNL     1      13.705  49.620 -44.949  1.00  0.00     0.167 HD
HETATM    8  C4  UNL     1      13.384  49.286 -47.007  1.00  0.00     0.098 A
HETATM    9  C6  UNL     1      14.317  48.847 -47.960  1.00  0.00     0.088 A
ENDROOT
BRANCH   9  10
HETATM   10  C7  UNL     1      14.085  48.672 -49.371  1.00  0.00     0.274 C
HETATM   11  O1  UNL     1      13.278  47.807 -49.786  1.00  0.00    -0.266 OA
HETATM   12  N8  UNL     1      14.720  49.434 -50.382  1.00  0.00    -0.266 N
ATOM     13  H8  UNL     1      15.382  50.162 -50.113  1.00  0.00     0.190 HD
BRANCH  12  14
HETATM   14  N9  UNL     1      14.459  49.213 -51.753  1.00  0.00    -0.305 N
HETATM   15  C8  UNL     1      15.374  48.845 -52.568  1.00  0.00     0.158 C
ATOM     16  H9  UNL     1      13.512  49.351 -52.103  1.00  0.00     0.186 HD
BRANCH  15  17
HETATM   17  C9  UNL     1      15.044  48.634 -53.962  1.00  0.00     0.154 A
HETATM   18  N10 UNL     1      13.926  48.088 -54.466  1.00  0.00    -0.268 N
HETATM   19  N11 UNL     1      14.034  48.086 -55.771  1.00  0.00    -0.227 N
ATOM     20  H10 UNL     1      13.133  47.737 -53.928  1.00  0.00     0.190 HD
HETATM   21  N12 UNL     1      15.188  48.613 -56.154  1.00  0.00    -0.227 N
ATOM     22  H11 UNL     1      13.323  47.726 -56.409  1.00  0.00     0.210 HD
HETATM   23  N13 UNL     1      15.805  48.948 -55.037  1.00  0.00    -0.268 N
ATOM     24  H12 UNL     1      15.527  48.734 -57.108  1.00  0.00     0.210 HD
ATOM     25  H13 UNL     1      16.727  49.382 -54.990  1.00  0.00     0.190 HD
ENDBRANCH  15  17
ENDBRANCH  12  14
ENDBRANCH   9  10
BRANCH   8  26
HETATM   26  C5  UNL     1      11.999  49.639 -47.142  1.00  0.00     0.162 A
HETATM   27  N4  UNL     1      11.572  50.871 -47.557  1.00  0.00    -0.270 N
HETATM   28  N5  UNL     1      10.254  50.906 -47.601  1.00  0.00    -0.225 N
ATOM     29  H4  UNL     1      12.185  51.649 -47.799  1.00  0.00     0.190 HD
HETATM   30  N6  UNL     1       9.817  49.712 -47.218  1.00  0.00    -0.005 NA
ATOM     31  H5  UNL     1       9.678  51.702 -47.876  1.00  0.00     0.205 HD
HETATM   32  N7  UNL     1      10.883  48.965 -46.948  1.00  0.00    -0.265 N
ATOM     33  H7  UNL     1      10.844  47.996 -46.632  1.00  0.00     0.186 HD
ENDBRANCH   8  26
TORSDOF 4
ENDMDL