MODEL 5
REMARK VINA RESULT: -6.044917233      3.512      6.012
REMARK  7 active torsions:
REMARK  status: ('A' for Active; 'I' for Inactive)
REMARK    1  A    between atoms: S1_2  and  C2_3
REMARK    2  A    between atoms: C3_6  and  N2_7
REMARK    3  A    between atoms: C4_12  and  N4_13
REMARK    4  A    between atoms: N4_13  and  O1_15
REMARK    5  A    between atoms: N5_17  and  C5_18
REMARK    6  A    between atoms: C6_21  and  N7_22
REMARK    7  A    between atoms: C9_27  and  N9_28
ROOT
HETATM    1  C2  UNL     1      15.658  48.635 -53.013  1.00  0.00     0.200 A
HETATM    2  N1  UNL     1      14.328  48.301 -53.040  1.00  0.00    -0.168 N
ATOM      3  H1  UNL     1      13.803  48.260 -52.166  1.00  0.00     0.186 HD
HETATM    4  C3  UNL     1      13.695  48.022 -54.211  1.00  0.00     0.692 A
HETATM    5  N3  UNL     1      14.409  48.086 -55.336  1.00  0.00    -0.020 N
ATOM      6  H3  UNL     1      13.957  47.882 -56.227  1.00  0.00     0.203 HD
HETATM    7  C4  UNL     1      15.731  48.417 -55.317  1.00  0.00     0.739 A
HETATM    8  N5  UNL     1      16.344  48.689 -54.156  1.00  0.00     0.048 N
ENDROOT
BRANCH   8   9
HETATM    9  C5  UNL     1      17.719  49.031 -54.179  1.00  0.00     0.734 A
HETATM   10  N6  UNL     1      18.098  50.317 -54.439  1.00  0.00    -0.020 N
HETATM   11  C6  UNL     1      19.381  50.703 -54.482  1.00  0.00     0.708 A
ATOM     12  H6  UNL     1      17.373  51.014 -54.607  1.00  0.00     0.203 HD
HETATM   13  N8  UNL     1      20.330  49.779 -54.258  1.00  0.00    -0.022 N
HETATM   14  C9  UNL     1      20.035  48.494 -53.996  1.00  0.00     0.705 A
ATOM     15  H8  UNL     1      21.310  50.063 -54.287  1.00  0.00     0.203 HD
HETATM   16  N10 UNL     1      18.722  48.158 -53.964  1.00  0.00    -0.020 N
ATOM     17  H10 UNL     1      18.480  47.187 -53.767  1.00  0.00     0.203 HD
BRANCH  11  18
HETATM   18  N7  UNL     1      19.793  52.031 -54.753  1.00  0.00    -0.225 N
HETATM   19  C7  UNL     1      21.194  52.348 -55.039  1.00  0.00     0.168 C
HETATM   20  C8  UNL     1      18.805  53.071 -54.755  1.00  0.00     0.168 C
ENDBRANCH  11  18
BRANCH  14  21
HETATM   21  N9  UNL     1      20.968  47.644 -53.799  1.00  0.00    -0.234 N
ATOM     22  H92 UNL     1      21.571  47.306 -54.549  1.00  0.00     0.174 HD
ATOM     23  H91 UNL     1      21.144  47.279 -52.863  1.00  0.00     0.174 HD
ENDBRANCH  14  21
ENDBRANCH   8   9
BRANCH   1  24
HETATM   24  S1  UNL     1      16.481  48.982 -51.474  1.00  0.00    -0.096 SA
HETATM   25  C1  UNL     1      17.155  47.468 -50.725  1.00  0.00     0.099 C
ENDBRANCH   1  24
BRANCH   7  26
HETATM   26  N4  UNL     1      16.425  48.482 -56.392  1.00  0.00    -0.097 N
ATOM     27  H4  UNL     1      17.430  48.308 -56.374  1.00  0.00     0.213 HD
BRANCH  26  28
HETATM   28  O1  UNL     1      15.791  48.789 -57.566  1.00  0.00    -0.276 OA
ATOM     29  H1  UNL     1      15.547  49.693 -57.729  1.00  0.00     0.245 HD
ENDBRANCH  26  28
ENDBRANCH   7  26
BRANCH   4  30
HETATM   30  N2  UNL     1      12.442  47.714 -54.217  1.00  0.00    -0.234 N
ATOM     31  H22 UNL     1      11.714  48.416 -54.079  1.00  0.00     0.174 HD
ATOM     32  H21 UNL     1      12.150  46.746 -54.358  1.00  0.00     0.174 HD
ENDBRANCH   4  30
TORSDOF 7
ENDMDL