MODEL 4
REMARK VINA RESULT: -7.237017019      4.811      8.439
REMARK  4 active torsions:
REMARK  status: ('A' for Active; 'I' for Inactive)
REMARK    1  A    between atoms: N6_17  and  C6_18
REMARK    2  A    between atoms: C6_18  and  C7_19
REMARK    3  A    between atoms: C7_19  and  C8_20
REMARK    4  A    between atoms: C9_30  and  C10_31
ROOT
HETATM    1  N1  UNL     1      16.025  48.054 -48.966  1.00  0.00    -0.190 NA
HETATM    2  C1  UNL     1      15.607  48.121 -50.072  1.00  0.00     0.120 C
HETATM    3  C2  UNL     1      15.131  48.192 -51.423  1.00  0.00     0.145 A
HETATM    4  N2  UNL     1      13.801  48.254 -51.544  1.00  0.00    -0.329 N
ATOM      5  H2  UNL     1      13.203  48.254 -50.717  1.00  0.00     0.168 HD
HETATM    6  C3  UNL     1      13.276  48.314 -52.749  1.00  0.00     0.147 A
HETATM    7  N3  UNL     1      12.000  48.395 -52.955  1.00  0.00    -0.382 N
ATOM      8  H31 UNL     1      11.594  48.443 -53.889  1.00  0.00     0.157 HD
ATOM      9  H32 UNL     1      11.365  48.400 -52.157  1.00  0.00     0.157 HD
HETATM   10  C4  UNL     1      14.137  48.308 -53.830  1.00  0.00     0.187 A
HETATM   11  N4  UNL     1      13.817  48.215 -55.125  1.00  0.00    -0.170 N
ATOM     12  H4  UNL     1      12.870  48.231 -55.505  1.00  0.00     0.186 HD
HETATM   13  C5  UNL     1      14.930  48.098 -55.833  1.00  0.00     0.695 A
HETATM   14  N5  UNL     1      15.052  47.997 -57.100  1.00  0.00    -0.233 N
ATOM     15  H51 UNL     1      15.909  47.907 -57.645  1.00  0.00     0.174 HD
ATOM     16  H52 UNL     1      14.295  47.981 -57.784  1.00  0.00     0.174 HD
HETATM   17  N6  UNL     1      15.962  48.121 -54.900  1.00  0.00    -0.115 N
HETATM   18  N11 UNL     1      15.505  48.246 -53.708  1.00  0.00    -0.216 N
HETATM   19  C9  UNL     1      16.055  48.188 -52.476  1.00  0.00     0.110 A
ENDROOT
BRANCH  19  20
HETATM   20  C10 UNL     1      17.417  47.953 -52.129  1.00  0.00     0.134 C
HETATM   21  N12 UNL     1      18.255  49.114 -51.846  1.00  0.00    -0.113 NA
ENDBRANCH  19  20
BRANCH  17  22
HETATM   22  C6  UNL     1      17.304  47.819 -55.344  1.00  0.00     0.176 C
BRANCH  22  23
HETATM   23  C7  UNL     1      18.086  49.136 -55.690  1.00  0.00     0.101 C
BRANCH  23  24
HETATM   24  C8  UNL     1      19.276  49.172 -54.826  1.00  0.00     0.114 A
HETATM   25  N7  UNL     1      20.095  48.238 -54.385  1.00  0.00    -0.272 N
HETATM   26  N8  UNL     1      20.994  48.824 -53.629  1.00  0.00    -0.227 N
ATOM     27  H7  UNL     1      20.040  47.241 -54.593  1.00  0.00     0.190 HD
HETATM   28  N9  UNL     1      20.800  50.111 -53.556  1.00  0.00    -0.227 N
ATOM     29  H8  UNL     1      21.752  48.331 -53.157  1.00  0.00     0.210 HD
HETATM   30  N10 UNL     1      19.701  50.363 -54.307  1.00  0.00    -0.272 N
ATOM     31  H9  UNL     1      21.361  50.790 -53.039  1.00  0.00     0.210 HD
ATOM     32  H10 UNL     1      19.269  51.274 -54.458  1.00  0.00     0.190 HD
ENDBRANCH  23  24
ENDBRANCH  22  23
ENDBRANCH  17  22
TORSDOF 4
ENDMDL