MODEL 3
REMARK VINA RESULT: -9.314011101      2.465     10.131
REMARK  8 active torsions:
REMARK  status: ('A' for Active; 'I' for Inactive)
REMARK    1  A    between atoms: C1_2  and  C2_3
REMARK       I    between atoms: C1_2  and  N4_24
REMARK    2  A    between atoms: C2_3  and  S1_4
REMARK    3  A    between atoms: S1_4  and  C3_5
REMARK    4  A    between atoms: C4_10  and  C5_11
REMARK    5  A    between atoms: C10_21  and  O4_22
REMARK    6  A    between atoms: N4_24  and  N5_25
REMARK    7  A    between atoms: N5_25  and  C11_27
REMARK    8  A    between atoms: C11_27  and  O5_28
ROOT
HETATM    1  C3  UNL     1      37.676  57.310  17.344  1.00  0.00     0.118 A
HETATM    2  N1  UNL     1      39.029  57.088  17.385  1.00  0.00    -0.291 N
ATOM      3  H1  UNL     1      39.436  56.326  16.841  1.00  0.00     0.187 HD
HETATM    4  N2  UNL     1      39.799  57.846  18.119  1.00  0.00    -0.300 N
ATOM      5  H2  UNL     1      40.803  57.674  18.162  1.00  0.00     0.187 HD
HETATM    6  C4  UNL     1      39.234  58.890  18.842  1.00  0.00     0.052 A
HETATM    7  C9  UNL     1      37.876  59.109  18.780  1.00  0.00     0.070 A
HETATM    8  C10 UNL     1      37.051  58.273  17.995  1.00  0.00     0.102 A
ENDROOT
BRANCH   1   9
HETATM    9  S1  UNL     1      36.775  55.843  16.714  1.00  0.00    -0.098 SA
BRANCH   9  10
HETATM   10  C2  UNL     1      38.156  54.689  16.374  1.00  0.00     0.202 C
BRANCH  10  11
HETATM   11  C1  UNL     1      37.488  53.322  15.962  1.00  0.00     0.322 C
HETATM   12  O1  UNL     1      36.331  53.095  16.357  1.00  0.00    -0.254 OA
HETATM   13  N4  UNL     1      38.330  52.596  15.249  1.00  0.00    -0.284 NA
BRANCH  13  14
HETATM   14  N5  UNL     1      39.187  51.819  14.505  1.00  0.00    -0.206 N
ATOM     15  H5  UNL     1      40.046  51.390  14.850  1.00  0.00     0.204 HD
BRANCH  14  16
HETATM   16  C11 UNL     1      38.693  51.710  13.204  1.00  0.00     0.213 C
HETATM   17  C12 UNL     1      38.155  51.115  12.094  1.00  0.00     0.188 A
HETATM   18  N6  UNL     1      37.721  51.947  10.990  1.00  0.00    -0.263 N
HETATM   19  N9  UNL     1      37.858  49.999  11.580  1.00  0.00    -0.268 N
HETATM   20  N7  UNL     1      37.243  51.154  10.011  1.00  0.00    -0.005 NA
ATOM     21  H6  UNL     1      37.770  52.966  10.959  1.00  0.00     0.186 HD
HETATM   22  N8  UNL     1      37.389  49.774  10.524  1.00  0.00    -0.225 N
ATOM     23  H8  UNL     1      37.151  48.883  10.087  1.00  0.00     0.205 HD
ATOM     24  H9  UNL     1      38.050  49.183  12.160  1.00  0.00     0.190 HD
BRANCH  16  25
HETATM   25  O5  UNL     1      38.924  53.133  12.785  1.00  0.00    -0.342 OA
ATOM     26  H5  UNL     1      39.637  52.971  12.178  1.00  0.00     0.219 HD
ENDBRANCH  16  25
ENDBRANCH  14  16
ENDBRANCH  13  14
ENDBRANCH  10  11
ENDBRANCH   9  10
ENDBRANCH   1   9
BRANCH   8  27
HETATM   27  O4  UNL     1      35.699  58.507  17.969  1.00  0.00    -0.358 OA
ATOM     28  H4  UNL     1      35.246  59.186  18.456  1.00  0.00     0.217 HD
ENDBRANCH   8  27
BRANCH   6  29
HETATM   29  C5  UNL     1      39.970  59.394  19.979  1.00  0.00     0.055 C
HETATM   30  C6  UNL     1      41.156  59.264  20.384  1.00  0.00     0.080 C
HETATM   31  S2  UNL     1      41.626  60.193  21.986  1.00  0.00    -0.024 SA
HETATM   32  C8  UNL     1      42.395  58.615  20.142  1.00  0.00     0.266 C
HETATM   33  C7  UNL     1      43.258  60.617  21.124  1.00  0.00     0.291 C
HETATM   34  O2  UNL     1      43.694  61.733  21.146  1.00  0.00    -0.260 OA
HETATM   35  N3  UNL     1      43.558  59.389  20.570  1.00  0.00    -0.283 N
ATOM     36  H3  UNL     1      44.514  59.049  20.467  1.00  0.00     0.172 HD
HETATM   37  O3  UNL     1      42.515  57.466  19.626  1.00  0.00    -0.267 OA
ENDBRANCH   6  29
TORSDOF 8
ENDMDL