MODEL 3
REMARK VINA RESULT: -8.369328396      3.091      5.255
REMARK  9 active torsions:
REMARK  status: ('A' for Active; 'I' for Inactive)
REMARK    1  A    between atoms: C1_4  and  N2_5
REMARK    2  A    between atoms: C1_4  and  C6_19
REMARK    3  A    between atoms: N2_5  and  C2_7
REMARK    4  A    between atoms: C2_7  and  O1_8
REMARK    5  A    between atoms: C2_7  and  C3_10
REMARK    6  A    between atoms: C11_24  and  N5_25
REMARK    7  A    between atoms: C13_27  and  C14_28
REMARK    8  A    between atoms: C15_29  and  N6_30
REMARK    9  A    between atoms: N6_30  and  O2_32
ROOT
HETATM    1  C6  UNL     1      36.673  56.286  17.632  1.00  0.00     0.036 A
HETATM    2  C7  UNL     1      36.276  57.215  18.612  1.00  0.00     0.017 A
HETATM    3  C8  UNL     1      37.010  58.317  18.957  1.00  0.00     0.001 A
HETATM    4  C9  UNL     1      38.200  58.493  18.286  1.00  0.00     0.002 A
HETATM    5  C10 UNL     1      38.654  57.639  17.324  1.00  0.00     0.032 A
HETATM    6  C11 UNL     1      37.865  56.516  17.000  1.00  0.00     0.071 A
ENDROOT
BRANCH   6   7
HETATM    7  N5  UNL     1      38.332  55.624  16.002  1.00  0.00    -0.250 N
HETATM    8  C12 UNL     1      37.817  55.438  14.781  1.00  0.00     0.150 A
HETATM    9  C13 UNL     1      38.594  54.499  14.086  1.00  0.00     0.086 A
HETATM   10  N9  UNL     1      39.565  54.161  14.962  1.00  0.00    -0.283 N
HETATM   11  N10 UNL     1      39.385  54.839  16.079  1.00  0.00    -0.236 N
ATOM     12  H9  UNL     1      40.315  53.492  14.788  1.00  0.00     0.188 HD
ATOM     13  H10 UNL     1      39.986  54.764  16.900  1.00  0.00     0.209 HD
BRANCH   9  14
HETATM   14  C14 UNL     1      38.392  54.015  12.748  1.00  0.00     0.107 A
HETATM   15  C15 UNL     1      39.000  54.605  11.666  1.00  0.00     0.147 A
HETATM   16  N7  UNL     1      38.762  54.096  10.447  1.00  0.00    -0.292 N
HETATM   17  C16 UNL     1      37.953  53.037  10.245  1.00  0.00     0.328 A
ATOM     18  H7  UNL     1      39.211  54.529   9.640  1.00  0.00     0.172 HD
HETATM   19  O3  UNL     1      37.782  52.618   9.054  1.00  0.00    -0.247 OA
HETATM   20  N8  UNL     1      37.352  52.447  11.279  1.00  0.00    -0.275 N
HETATM   21  C17 UNL     1      37.572  52.935  12.513  1.00  0.00     0.265 A
ATOM     22  H8  UNL     1      36.738  51.645  11.138  1.00  0.00     0.173 HD
HETATM   23  O4  UNL     1      36.975  52.337  13.460  1.00  0.00    -0.267 OA
BRANCH  15  24
HETATM   24  N6  UNL     1      39.861  55.716  11.779  1.00  0.00    -0.252 N
ATOM     25  H6  UNL     1      40.780  55.662  11.341  1.00  0.00     0.196 HD
BRANCH  24  26
HETATM   26  O2  UNL     1      39.556  56.766  12.389  1.00  0.00    -0.288 OA
ATOM     27  H2  UNL     1      40.152  57.495  12.506  1.00  0.00     0.244 HD
ENDBRANCH  24  26
ENDBRANCH  15  24
ENDBRANCH   9  14
ENDBRANCH   6   7
BRANCH   1  28
HETATM   28  C1  UNL     1      35.810  55.161  17.356  1.00  0.00     0.109 C
HETATM   29  N1  UNL     1      34.656  55.202  16.852  1.00  0.00    -0.385 N
ATOM     30  H12 UNL     1      34.046  54.408  16.657  1.00  0.00     0.157 HD
ATOM     31  H11 UNL     1      34.317  56.138  16.625  1.00  0.00     0.157 HD
BRANCH  28  32
HETATM   32  N2  UNL     1      36.289  53.836  17.678  1.00  0.00    -0.347 N
ATOM     33  H2  UNL     1      36.672  53.657  18.606  1.00  0.00     0.163 HD
BRANCH  32  34
HETATM   34  C2  UNL     1      36.240  52.765  16.723  1.00  0.00     0.278 C
BRANCH  34  35
HETATM   35  O1  UNL     1      34.953  52.233  16.754  1.00  0.00    -0.373 OA
ATOM     36  H1  UNL     1      34.411  52.763  16.181  1.00  0.00     0.212 HD
ENDBRANCH  34  35
BRANCH  34  37
HETATM   37  C3  UNL     1      37.208  51.643  17.045  1.00  0.00     0.430 C
HETATM   38  N3  UNL     1      36.622  50.605  17.841  1.00  0.00    -0.040 N
HETATM   39  C4  UNL     1      37.085  50.756  19.193  1.00  0.00     0.262 C
ATOM     40  H32 UNL     1      35.604  50.586  17.775  1.00  0.00     0.279 HD
ATOM     41  H31 UNL     1      36.802  49.674  17.466  1.00  0.00     0.279 HD
HETATM   42  C5  UNL     1      37.859  52.035  19.198  1.00  0.00     0.262 C
HETATM   43  N4  UNL     1      38.287  52.214  17.823  1.00  0.00    -0.040 N
ATOM     44  H42 UNL     1      39.207  51.823  17.616  1.00  0.00     0.279 HD
ATOM     45  H41 UNL     1      38.519  53.176  17.577  1.00  0.00     0.279 HD
ENDBRANCH  34  37
ENDBRANCH  32  34
ENDBRANCH  28  32
ENDBRANCH   1  28
TORSDOF 9
ENDMDL