MODEL 5
REMARK VINA RESULT: -8.776920563      5.762     10.268
REMARK  8 active torsions:
REMARK  status: ('A' for Active; 'I' for Inactive)
REMARK    1  A    between atoms: C2_5  and  C3_6
REMARK    2  A    between atoms: N3_8  and  C5_9
REMARK    3  A    between atoms: C5_9  and  C6_10
REMARK    4  A    between atoms: C6_10  and  O1_11
REMARK    5  A    between atoms: C8_17  and  C9_18
REMARK    6  A    between atoms: C9_18  and  N6_19
REMARK    7  A    between atoms: N6_19  and  C10_21
REMARK    8  A    between atoms: N11_32  and  C14_33
ROOT
HETATM    1  C10 UNL     1      34.378  59.657  20.959  1.00  0.00     0.138 A
HETATM    2  N7  UNL     1      33.600  60.789  20.946  1.00  0.00    -0.337 N
ATOM      3  H7  UNL     1      33.952  61.601  20.440  1.00  0.00     0.168 HD
HETATM    4  C11 UNL     1      32.424  60.899  21.548  1.00  0.00     0.183 A
HETATM    5  N8  UNL     1      31.935  59.824  22.229  1.00  0.00    -0.336 N
ATOM      6  H8  UNL     1      31.032  59.887  22.698  1.00  0.00     0.168 HD
HETATM    7  C12 UNL     1      32.631  58.701  22.282  1.00  0.00     0.154 A
HETATM    8  C13 UNL     1      33.860  58.600  21.650  1.00  0.00     0.136 A
HETATM    9  N9  UNL     1      34.343  57.270  21.894  1.00  0.00    -0.277 N
ATOM     10  H9  UNL     1      35.085  56.796  21.381  1.00  0.00     0.184 HD
HETATM   11  N10 UNL     1      33.606  56.740  22.970  1.00  0.00    -0.018 NA
HETATM   12  N11 UNL     1      32.374  57.462  22.912  1.00  0.00    -0.253 N
ENDROOT
BRANCH   1  13
HETATM   13  N6  UNL     1      35.444  59.704  20.361  1.00  0.00    -0.348 N
ATOM     14  H6  UNL     1      36.170  59.637  21.074  1.00  0.00     0.167 HD
BRANCH  13  15
HETATM   15  C9  UNL     1      36.103  59.806  19.163  1.00  0.00     0.121 C
BRANCH  15  16
HETATM   16  C8  UNL     1      36.599  58.470  18.635  1.00  0.00     0.068 A
HETATM   17  N1  UNL     1      37.862  58.170  18.301  1.00  0.00    -0.295 N
HETATM   18  C1  UNL     1      39.032  59.022  18.363  1.00  0.00     0.178 C
HETATM   19  N2  UNL     1      37.917  56.900  17.877  1.00  0.00    -0.296 N
HETATM   20  C2  UNL     1      36.690  56.347  17.925  1.00  0.00     0.079 A
ATOM     21  H2  UNL     1      38.763  56.424  17.563  1.00  0.00     0.187 HD
HETATM   22  C7  UNL     1      35.862  57.329  18.400  1.00  0.00     0.066 A
BRANCH  20  23
HETATM   23  C3  UNL     1      36.380  54.972  17.540  1.00  0.00     0.091 A
HETATM   24  C4  UNL     1      37.178  53.861  17.715  1.00  0.00     0.141 A
HETATM   25  N3  UNL     1      36.556  52.754  17.234  1.00  0.00    -0.283 N
HETATM   26  N4  UNL     1      35.391  53.189  16.772  1.00  0.00    -0.020 NA
HETATM   27  N5  UNL     1      35.269  54.500  16.945  1.00  0.00    -0.281 N
ATOM     28  H5  UNL     1      34.462  55.060  16.671  1.00  0.00     0.184 HD
BRANCH  25  29
HETATM   29  C5  UNL     1      37.071  51.398  17.239  1.00  0.00     0.172 C
BRANCH  29  30
HETATM   30  C6  UNL     1      36.458  50.589  18.387  1.00  0.00     0.185 C
BRANCH  30  31
HETATM   31  O1  UNL     1      35.090  50.784  18.426  1.00  0.00    -0.399 OA
ATOM     32  H1  UNL     1      34.852  51.275  19.204  1.00  0.00     0.209 HD
ENDBRANCH  30  31
ENDBRANCH  29  30
ENDBRANCH  25  29
ENDBRANCH  20  23
ENDBRANCH  15  16
ENDBRANCH  13  15
ENDBRANCH   1  13
BRANCH  12  33
HETATM   33  C14 UNL     1      31.157  56.942  23.416  1.00  0.00     0.111 C
HETATM   34  C15 UNL     1      31.045  56.943  24.915  1.00  0.00     0.054 C
HETATM   35  C16 UNL     1      30.615  55.574  25.452  1.00  0.00     0.234 C
HETATM   36  N12 UNL     1      29.458  55.113  24.752  1.00  0.00    -0.075 N
HETATM   37  C17 UNL     1      29.598  55.078  23.331  1.00  0.00     0.234 C
ATOM     38 2H12 UNL     1      29.173  54.199  25.103  1.00  0.00     0.277 HD
ATOM     39 1H12 UNL     1      28.642  55.666  25.015  1.00  0.00     0.277 HD
HETATM   40  C18 UNL     1      31.004  55.489  22.933  1.00  0.00     0.054 C
ENDBRANCH  12  33
TORSDOF 8
ENDMDL