MODEL 3
REMARK VINA RESULT: -7.939964038      2.083      2.538
REMARK  12 active torsions:
REMARK  status: ('A' for Active; 'I' for Inactive)
REMARK    1  A    between atoms: C2_4  and  N2_5
REMARK    2  A    between atoms: N2_5  and  S2_7
REMARK    3  A    between atoms: S2_7  and  C3_9
REMARK    4  A    between atoms: C3_9  and  C4_10
REMARK    5  A    between atoms: N3_12  and  C6_13
REMARK    6  A    between atoms: C6_13  and  C7_14
REMARK    7  A    between atoms: C7_14  and  N4_15
REMARK    8  A    between atoms: N4_15  and  C8_17
REMARK    9  A    between atoms: C11_24  and  N7_25
REMARK   10  A    between atoms: C12_30  and  N9_31
REMARK   11  A    between atoms: C14_35  and  N10_36
REMARK   12  A    between atoms: N10_36  and  O2_38
ROOT
HETATM    1  C4  UNL     1      36.280  58.126  18.521  1.00  0.00     0.015 A
HETATM    2  C5  UNL     1      37.014  57.537  17.506  1.00  0.00     0.121 A
HETATM    3  N3  UNL     1      36.696  56.337  17.010  1.00  0.00    -0.192 N
HETATM    4  C11 UNL     1      35.631  55.688  17.515  1.00  0.00     0.679 A
HETATM    5  N8  UNL     1      34.906  56.216  18.484  1.00  0.00    -0.177 N
ATOM      6  H8  UNL     1      34.105  55.700  18.847  1.00  0.00     0.186 HD
HETATM    7  C12 UNL     1      35.203  57.419  19.000  1.00  0.00     0.123 A
ENDROOT
BRANCH   1   8
HETATM    8  C3  UNL     1      36.595  59.430  19.087  1.00  0.00     0.176 C
BRANCH   8   9
HETATM    9  S2  UNL     1      38.028  59.440  20.113  1.00  0.00     0.119 S
HETATM   10  O1  UNL     1      38.258  58.179  20.844  1.00  0.00    -0.235 OA
BRANCH   9  11
HETATM   11  N2  UNL     1      39.279  59.650  19.156  1.00  0.00    -0.298 N
ATOM     12  H2  UNL     1      39.179  59.883  18.169  1.00  0.00     0.177 HD
BRANCH  11  13
HETATM   13  C2  UNL     1      40.552  59.486  19.779  1.00  0.00     0.102 A
HETATM   14  S1  UNL     1      41.197  60.373  21.077  1.00  0.00     0.008 SA
HETATM   15  N1  UNL     1      42.691  59.605  21.223  1.00  0.00    -0.305 N
HETATM   16  C1  UNL     1      43.781  59.886  22.184  1.00  0.00     0.167 C
HETATM   17  C14 UNL     1      42.666  58.677  20.269  1.00  0.00     0.135 A
HETATM   18  C13 UNL     1      41.551  58.600  19.501  1.00  0.00     0.090 A
BRANCH  17  19
HETATM   19  N10 UNL     1      43.681  57.848  20.058  1.00  0.00    -0.252 N
ATOM     20  H10 UNL     1      44.597  58.064  20.452  1.00  0.00     0.196 HD
BRANCH  19  21
HETATM   21  O2  UNL     1      43.516  56.715  19.323  1.00  0.00    -0.288 OA
ATOM     22  H2  UNL     1      42.853  56.076  19.556  1.00  0.00     0.244 HD
ENDBRANCH  19  21
ENDBRANCH  17  19
ENDBRANCH  11  13
ENDBRANCH   9  11
ENDBRANCH   8   9
ENDBRANCH   1   8
BRANCH   7  23
HETATM   23  N9  UNL     1      34.434  57.852  19.945  1.00  0.00    -0.385 N
ATOM     24  H92 UNL     1      33.492  58.135  19.676  1.00  0.00     0.157 HD
ATOM     25  H91 UNL     1      34.729  57.920  20.919  1.00  0.00     0.157 HD
ENDBRANCH   7  23
BRANCH   3  26
HETATM   26  C6  UNL     1      37.458  55.714  15.960  1.00  0.00     0.166 C
BRANCH  26  27
HETATM   27  C7  UNL     1      38.827  55.274  16.341  1.00  0.00     0.143 C
BRANCH  27  28
HETATM   28  N4  UNL     1      39.874  55.599  15.432  1.00  0.00    -0.361 N
ATOM     29  H4  UNL     1      40.689  56.129  15.738  1.00  0.00     0.162 HD
BRANCH  28  30
HETATM   30  C8  UNL     1      39.747  55.154  14.066  1.00  0.00     0.171 C
HETATM   31  N5  UNL     1      39.959  53.934  13.715  1.00  0.00    -0.361 N
HETATM   32  C9  UNL     1      39.771  53.741  12.315  1.00  0.00     0.142 C
ATOM     33  H5  UNL     1      40.229  53.194  14.363  1.00  0.00     0.162 HD
HETATM   34  C10 UNL     1      39.100  55.036  11.857  1.00  0.00     0.142 C
HETATM   35  N6  UNL     1      39.391  55.932  12.935  1.00  0.00    -0.361 N
ATOM     36  H6  UNL     1      39.349  56.950  12.896  1.00  0.00     0.162 HD
ENDBRANCH  28  30
ENDBRANCH  27  28
ENDBRANCH  26  27
ENDBRANCH   3  26
BRANCH   4  37
HETATM   37  N7  UNL     1      35.313  54.508  17.033  1.00  0.00    -0.234 N
ATOM     38  H72 UNL     1      34.351  54.320  16.750  1.00  0.00     0.174 HD
ATOM     39  H71 UNL     1      36.036  53.794  16.949  1.00  0.00     0.174 HD
ENDBRANCH   4  37
TORSDOF 12
ENDMDL