MODEL 3
REMARK VINA RESULT: -7.227696816      2.588      4.724
REMARK  9 active torsions:
REMARK  status: ('A' for Active; 'I' for Inactive)
REMARK    1  A    between atoms: S1_2  and  C2_3
REMARK    2  A    between atoms: C3_6  and  N2_7
REMARK    3  A    between atoms: N2_7  and  C4_9
REMARK    4  A    between atoms: C4_9  and  C5_10
REMARK    5  A    between atoms: C4_9  and  S3_24
REMARK    6  A    between atoms: C5_10  and  S2_11
REMARK    7  A    between atoms: S2_11  and  C6_12
REMARK    8  A    between atoms: C13_30  and  N8_31
REMARK    9  A    between atoms: N8_31  and  N9_33
ROOT
HETATM    1  N2  UNL     1      39.342  55.090  15.647  1.00  0.00    -0.212 N
ATOM      2  H2  UNL     1      40.204  55.509  15.998  1.00  0.00     0.179 HD
ENDROOT
BRANCH   1   3
HETATM    3  C3  UNL     1      38.322  54.906  16.405  1.00  0.00     0.685 C
HETATM    4  N1  UNL     1      37.705  53.699  16.418  1.00  0.00    -0.170 N
HETATM    5  C2  UNL     1      36.544  53.354  17.040  1.00  0.00     0.160 C
ATOM      6  H1  UNL     1      38.170  52.956  15.897  1.00  0.00     0.186 HD
HETATM    7  N10 UNL     1      35.615  54.226  17.472  1.00  0.00    -0.317 N
HETATM    8  C13 UNL     1      35.677  55.551  17.693  1.00  0.00     0.191 C
ATOM      9  H10 UNL     1      34.704  53.809  17.665  1.00  0.00     0.169 HD
HETATM   10  C12 UNL     1      36.814  56.361  17.645  1.00  0.00     0.307 C
HETATM   11  N7  UNL     1      38.002  56.005  17.115  1.00  0.00    -0.149 N
HETATM   12  O1  UNL     1      36.704  57.497  18.133  1.00  0.00    -0.263 OA
HETATM   13  C11 UNL     1      39.097  56.915  17.329  1.00  0.00     0.179 C
BRANCH   5  14
HETATM   14  S1  UNL     1      36.245  51.612  17.293  1.00  0.00    -0.098 SA
HETATM   15  C1  UNL     1      37.043  51.139  18.861  1.00  0.00     0.099 C
ENDBRANCH   5  14
BRANCH   8  16
HETATM   16  N8  UNL     1      34.584  56.166  17.981  1.00  0.00    -0.287 N
ATOM     17  H8  UNL     1      34.137  56.684  17.225  1.00  0.00     0.188 HD
BRANCH  16  18
HETATM   18  N9  UNL     1      33.960  56.196  19.200  1.00  0.00    -0.343 N
ATOM     19  H92 UNL     1      33.436  55.357  19.446  1.00  0.00     0.176 HD
ATOM     20  H91 UNL     1      33.969  56.965  19.870  1.00  0.00     0.176 HD
ENDBRANCH  16  18
ENDBRANCH   8  16
ENDBRANCH   1   3
BRANCH   1  21
HETATM   21  C4  UNL     1      39.203  54.664  14.245  1.00  0.00     0.170 C
BRANCH  21  22
HETATM   22  C5  UNL     1      40.119  53.524  13.931  1.00  0.00     0.119 C
BRANCH  22  23
HETATM   23  S2  UNL     1      39.221  51.983  13.849  1.00  0.00    -0.091 SA
BRANCH  23  24
HETATM   24  C6  UNL     1      38.439  51.677  12.280  1.00  0.00     0.147 A
HETATM   25  N3  UNL     1      37.793  50.488  12.063  1.00  0.00    -0.323 N
HETATM   26  C7  UNL     1      37.176  50.247  10.902  1.00  0.00     0.103 A
ATOM     27  H3  UNL     1      37.782  49.779  12.796  1.00  0.00     0.169 HD
HETATM   28  N4  UNL     1      36.554  49.131  10.662  1.00  0.00    -0.385 N
HETATM   29  C8  UNL     1      37.178  51.185   9.904  1.00  0.00     0.093 A
ATOM     30  H42 UNL     1      36.553  48.432  11.405  1.00  0.00     0.157 HD
ATOM     31  H41 UNL     1      36.083  48.947   9.776  1.00  0.00     0.157 HD
HETATM   32  C9  UNL     1      37.828  52.367  10.133  1.00  0.00     0.121 A
HETATM   33  N5  UNL     1      37.843  53.351   9.117  1.00  0.00    -0.083 NA
HETATM   34  N6  UNL     1      38.445  52.594  11.311  1.00  0.00    -0.325 N
ATOM     35  H6  UNL     1      38.926  53.481  11.462  1.00  0.00     0.169 HD
ENDBRANCH  23  24
ENDBRANCH  22  23
ENDBRANCH  21  22
BRANCH  21  36
HETATM   36  S3  UNL     1      39.314  55.989  13.075  1.00  0.00    -0.147 SA
HETATM   37  C10 UNL     1      39.810  55.372  11.433  1.00  0.00     0.092 C
ENDBRANCH  21  36
ENDBRANCH   1  21
TORSDOF 9
ENDMDL