MODEL 5
REMARK VINA RESULT: -7.618969144      3.984      9.037
REMARK  14 active torsions:
REMARK  status: ('A' for Active; 'I' for Inactive)
REMARK    1  A    between atoms: C3_3  and  O1_4
REMARK    2  A    between atoms: C4_8  and  C5_9
REMARK    3  A    between atoms: C5_9  and  S1_10
REMARK    4  A    between atoms: S1_10  and  C6_11
REMARK    5  A    between atoms: C6_11  and  C7_12
REMARK    6  A    between atoms: C7_12  and  O2_13
REMARK    7  A    between atoms: C7_12  and  N2_15
REMARK    8  A    between atoms: N2_15  and  N3_16
REMARK    9  A    between atoms: N3_16  and  C8_18
REMARK   10  A    between atoms: C8_18  and  O3_19
REMARK   11  A    between atoms: C8_18  and  C9_21
REMARK   12  A    between atoms: N6_26  and  C10_27
REMARK   13  A    between atoms: C11_33  and  N9_34
REMARK   14  A    between atoms: C14_41  and  N11_42
ROOT
HETATM    1  N3  UNL     1      34.046  55.668  17.501  1.00  0.00    -0.209 N
ATOM      2  H3  UNL     1      33.150  55.363  17.122  1.00  0.00     0.204 HD
ENDROOT
BRANCH   1   3
HETATM    3  N2  UNL     1      35.171  55.081  17.199  1.00  0.00    -0.302 NA
BRANCH   3   4
HETATM    4  C7  UNL     1      36.335  54.464  16.887  1.00  0.00     0.223 C
BRANCH   4   5
HETATM    5  C6  UNL     1      37.736  54.996  17.251  1.00  0.00     0.176 C
BRANCH   5   6
HETATM    6  S1  UNL     1      38.879  54.588  15.893  1.00  0.00    -0.152 SA
BRANCH   6   7
HETATM    7  C5  UNL     1      38.422  55.635  14.428  1.00  0.00     0.150 C
BRANCH   7   8
HETATM    8  C4  UNL     1      38.245  54.792  13.248  1.00  0.00     0.094 A
HETATM    9  N1  UNL     1      38.853  55.183  12.117  1.00  0.00    -0.326 N
HETATM   10  C3  UNL     1      38.770  54.442  11.004  1.00  0.00     0.151 A
ATOM     11  H1  UNL     1      39.385  56.053  12.105  1.00  0.00     0.169 HD
HETATM   12  C2  UNL     1      38.074  53.270  10.953  1.00  0.00     0.032 A
HETATM   13  C1  UNL     1      38.002  52.436   9.697  1.00  0.00     0.056 C
HETATM   14  C14 UNL     1      37.445  52.872  12.123  1.00  0.00     0.110 A
HETATM   15  N10 UNL     1      37.557  53.657  13.237  1.00  0.00    -0.331 N
ATOM     16  H10 UNL     1      37.093  53.358  14.095  1.00  0.00     0.168 HD
BRANCH  10  17
HETATM   17  O1  UNL     1      39.410  54.879   9.872  1.00  0.00    -0.346 OA
ATOM     18  H1  UNL     1      39.512  55.814   9.736  1.00  0.00     0.219 HD
ENDBRANCH  10  17
BRANCH  14  19
HETATM   19  N11 UNL     1      36.759  51.773  12.143  1.00  0.00    -0.385 N
ATOM     20 2H11 UNL     1      36.858  51.075  11.406  1.00  0.00     0.157 HD
ATOM     21 1H11 UNL     1      36.111  51.594  12.910  1.00  0.00     0.157 HD
ENDBRANCH  14  19
ENDBRANCH   7   8
ENDBRANCH   6   7
ENDBRANCH   5   6
ENDBRANCH   4   5
BRANCH   4  22
HETATM   22  O2  UNL     1      36.493  53.337  16.242  1.00  0.00    -0.337 OA
ATOM     23  H2  UNL     1      36.516  52.637  16.884  1.00  0.00     0.220 HD
ENDBRANCH   4  22
ENDBRANCH   3   4
ENDBRANCH   1   3
BRANCH   1  24
HETATM   24  C8  UNL     1      34.166  56.775  18.405  1.00  0.00     0.196 C
BRANCH  24  25
HETATM   25  O3  UNL     1      33.059  57.523  18.467  1.00  0.00    -0.343 OA
ATOM     26  H3  UNL     1      33.238  58.441  18.637  1.00  0.00     0.219 HD
ENDBRANCH  24  25
BRANCH  24  27
HETATM   27  C9  UNL     1      35.214  57.207  19.260  1.00  0.00     0.126 A
HETATM   28  N4  UNL     1      35.509  57.101  20.583  1.00  0.00    -0.280 N
HETATM   29  N5  UNL     1      36.630  57.708  20.881  1.00  0.00    -0.234 N
ATOM     30  H4  UNL     1      34.928  56.609  21.260  1.00  0.00     0.189 HD
HETATM   31  N6  UNL     1      37.158  58.256  19.837  1.00  0.00    -0.223 N
ATOM     32  H5  UNL     1      37.034  57.744  21.817  1.00  0.00     0.209 HD
HETATM   33  C12 UNL     1      36.320  57.973  18.812  1.00  0.00     0.066 A
HETATM   34  C13 UNL     1      36.476  58.456  17.410  1.00  0.00     0.073 C
BRANCH  31  35
HETATM   35  C10 UNL     1      38.348  59.046  19.586  1.00  0.00     0.196 A
HETATM   36  N7  UNL     1      39.444  58.603  18.882  1.00  0.00    -0.220 N
HETATM   37  O4  UNL     1      40.378  59.510  18.935  1.00  0.00    -0.153 OA
ATOM     38  H7  UNL     1      39.513  57.709  18.397  1.00  0.00     0.198 HD
HETATM   39  N8  UNL     1      39.944  60.533  19.630  1.00  0.00    -0.222 N
HETATM   40  C11 UNL     1      38.689  60.279  20.049  1.00  0.00     0.169 A
ATOM     41  H8  UNL     1      40.472  61.384  19.823  1.00  0.00     0.198 HD
BRANCH  40  42
HETATM   42  N9  UNL     1      37.933  61.061  20.741  1.00  0.00    -0.381 N
ATOM     43  H92 UNL     1      37.302  61.777  20.380  1.00  0.00     0.157 HD
ATOM     44  H91 UNL     1      37.843  61.061  21.757  1.00  0.00     0.157 HD
ENDBRANCH  40  42
ENDBRANCH  31  35
ENDBRANCH  24  27
ENDBRANCH   1  24
TORSDOF 14
ENDMDL