MODEL 2
REMARK VINA RESULT: -9.980977444      0.491      1.100
REMARK  11 active torsions:
REMARK  status: ('A' for Active; 'I' for Inactive)
REMARK    1  A    between atoms: N1_2  and  C2_5
REMARK    2  A    between atoms: C2_5  and  C3_6
REMARK    3  A    between atoms: C6_9  and  C7_10
REMARK    4  A    between atoms: C7_10  and  S1_11
REMARK    5  A    between atoms: S1_11  and  C8_12
REMARK    6  A    between atoms: C9_17  and  N4_18
REMARK    7  A    between atoms: N4_18  and  N5_20
REMARK    8  A    between atoms: N7_25  and  N8_26
REMARK    9  A    between atoms: N8_26  and  C10_28
REMARK   10  A    between atoms: C12_34  and  N11_35
REMARK   11  A    between atoms: C14_41  and  O3_42
ROOT
HETATM    1  C8  UNL     1      38.015  54.076  16.569  1.00  0.00     0.199 A
HETATM    2  N2  UNL     1      38.537  52.909  16.874  1.00  0.00    -0.263 N
ATOM      3  H2  UNL     1      39.530  52.757  16.693  1.00  0.00     0.189 HD
HETATM    4  N3  UNL     1      37.798  51.871  17.433  1.00  0.00    -0.127 N
ATOM      5  H3  UNL     1      38.257  50.987  17.652  1.00  0.00     0.205 HD
HETATM    6  C9  UNL     1      36.410  52.027  17.703  1.00  0.00     0.732 A
HETATM    7  N6  UNL     1      35.897  53.164  17.404  1.00  0.00    -0.105 N
ATOM      8  H6  UNL     1      34.903  53.314  17.582  1.00  0.00     0.208 HD
HETATM    9  N7  UNL     1      36.643  54.209  16.844  1.00  0.00    -0.142 N
ENDROOT
BRANCH   1  10
HETATM   10  S1  UNL     1      39.087  55.267  15.865  1.00  0.00    -0.085 SA
BRANCH  10  11
HETATM   11  C7  UNL     1      40.284  54.696  14.667  1.00  0.00     0.121 C
BRANCH  11  12
HETATM   12  C6  UNL     1      39.585  53.911  13.593  1.00  0.00    -0.046 A
HETATM   13  C5  UNL     1      39.030  54.408  12.466  1.00  0.00     0.009 A
HETATM   14  C4  UNL     1      38.386  53.607  11.519  1.00  0.00     0.012 A
HETATM   15  C3  UNL     1      38.289  52.252  11.705  1.00  0.00     0.000 A
HETATM   16  C14 UNL     1      38.852  51.736  12.853  1.00  0.00     0.074 A
HETATM   17  C13 UNL     1      39.484  52.519  13.781  1.00  0.00     0.045 A
BRANCH  15  18
HETATM   18  C2  UNL     1      37.613  51.360  10.730  1.00  0.00     0.273 C
BRANCH  18  19
HETATM   19  N1  UNL     1      36.527  50.624  11.348  1.00  0.00    -0.075 N
HETATM   20  C1  UNL     1      35.316  51.395  11.385  1.00  0.00     0.267 C
ATOM     21  H12 UNL     1      36.784  50.291  12.277  1.00  0.00     0.277 HD
ATOM     22  H11 UNL     1      36.380  49.724  10.891  1.00  0.00     0.277 HD
ENDBRANCH  18  19
ENDBRANCH  15  18
BRANCH  16  23
HETATM   23  O3  UNL     1      38.762  50.349  13.057  1.00  0.00    -0.360 OA
ATOM     24  H3  UNL     1      38.423  50.048  13.892  1.00  0.00     0.217 HD
ENDBRANCH  16  23
ENDBRANCH  11  12
ENDBRANCH  10  11
ENDBRANCH   1  10
BRANCH   9  25
HETATM   25  N8  UNL     1      35.967  55.405  16.629  1.00  0.00    -0.107 N
ATOM     26  H8  UNL     1      35.924  55.813  15.695  1.00  0.00     0.208 HD
BRANCH  25  27
HETATM   27  C10 UNL     1      35.397  55.991  17.621  1.00  0.00     0.714 A
HETATM   28  N9  UNL     1      34.067  56.037  17.779  1.00  0.00    -0.185 N
HETATM   29  C11 UNL     1      33.505  56.672  18.850  1.00  0.00     0.215 A
ATOM     30  H9  UNL     1      33.464  55.591  17.088  1.00  0.00     0.185 HD
HETATM   31  N10 UNL     1      34.279  57.258  19.760  1.00  0.00    -0.187 N
HETATM   32  C12 UNL     1      35.613  57.214  19.603  1.00  0.00     0.691 A
ATOM     33  H10 UNL     1      33.866  57.734  20.563  1.00  0.00     0.185 HD
HETATM   34  N12 UNL     1      36.168  56.587  18.544  1.00  0.00    -0.021 N
ATOM     35  H12 UNL     1      37.182  56.565  18.445  1.00  0.00     0.203 HD
BRANCH  32  36
HETATM   36  N11 UNL     1      36.372  57.773  20.467  1.00  0.00    -0.234 N
ATOM     37 2H11 UNL     1      36.041  58.604  20.958  1.00  0.00     0.174 HD
ATOM     38 1H11 UNL     1      37.296  57.385  20.655  1.00  0.00     0.174 HD
ENDBRANCH  32  36
ENDBRANCH  25  27
ENDBRANCH   9  25
BRANCH   6  39
HETATM   39  N4  UNL     1      35.697  50.939  18.274  1.00  0.00    -0.069 N
ATOM     40  H4  UNL     1      34.681  50.991  18.340  1.00  0.00     0.212 HD
BRANCH  39  41
HETATM   41  N5  UNL     1      36.350  49.797  18.748  1.00  0.00    -0.024 N
HETATM   42  O1  UNL     1      36.554  48.867  17.936  1.00  0.00    -0.516 OA
HETATM   43  O2  UNL     1      36.763  49.673  20.057  1.00  0.00    -0.516 OA
ENDBRANCH  39  41
ENDBRANCH   6  39
TORSDOF 11
ENDMDL