MODEL 5
REMARK VINA RESULT: -7.763508791      3.615      5.929
REMARK  11 active torsions:
REMARK  status: ('A' for Active; 'I' for Inactive)
REMARK    1  A    between atoms: C2_3  and  O1_4
REMARK    2  A    between atoms: C2_3  and  C3_6
REMARK    3  A    between atoms: C3_6  and  N2_7
REMARK    4  A    between atoms: C3_6  and  C4_11
REMARK    5  A    between atoms: C4_11  and  S1_12
REMARK    6  A    between atoms: S1_12  and  C5_13
REMARK    7  A    between atoms: C5_13  and  C6_14
REMARK    8  A    between atoms: C6_14  and  N3_15
REMARK    9  A    between atoms: N3_15  and  C7_17
REMARK   10  A    between atoms: C8_20  and  N5_21
REMARK   11  A    between atoms: C12_31  and  N8_32
ROOT
HETATM    1  N1  UNL     1      35.297  50.713  18.449  1.00  0.00    -0.194 NA
HETATM    2  C1  UNL     1      36.184  51.316  18.033  1.00  0.00     0.093 C
HETATM    3  C2  UNL     1      37.310  52.045  17.507  1.00  0.00     0.255 C
ENDROOT
BRANCH   3   4
HETATM    4  O1  UNL     1      37.563  51.544  16.215  1.00  0.00    -0.379 OA
ATOM      5  H1  UNL     1      38.210  52.113  15.814  1.00  0.00     0.211 HD
ENDBRANCH   3   4
BRANCH   3   6
HETATM    6  C3  UNL     1      37.100  53.523  17.367  1.00  0.00     0.235 C
BRANCH   6   7
HETATM    7  N2  UNL     1      35.685  53.698  16.999  1.00  0.00    -0.071 N
ATOM      8  H23 UNL     1      35.036  53.407  17.731  1.00  0.00     0.274 HD
ATOM      9  H22 UNL     1      35.393  54.674  16.955  1.00  0.00     0.274 HD
ATOM     10  H21 UNL     1      35.560  53.196  16.120  1.00  0.00     0.274 HD
ENDBRANCH   6   7
BRANCH   6  11
HETATM   11  C4  UNL     1      37.899  54.186  16.303  1.00  0.00     0.110 C
BRANCH  11  12
HETATM   12  S1  UNL     1      38.476  55.836  16.669  1.00  0.00    -0.165 SA
BRANCH  12  13
HETATM   13  C5  UNL     1      37.120  56.993  16.998  1.00  0.00     0.094 C
BRANCH  13  14
HETATM   14  C6  UNL     1      37.636  58.361  17.376  1.00  0.00     0.148 C
BRANCH  14  15
HETATM   15  N3  UNL     1      37.689  58.579  18.782  1.00  0.00    -0.224 N
ATOM     16  H3  UNL     1      38.056  57.813  19.345  1.00  0.00     0.177 HD
BRANCH  15  17
HETATM   17  C7  UNL     1      37.326  59.633  19.421  1.00  0.00     0.714 A
HETATM   18  N4  UNL     1      36.058  60.091  19.354  1.00  0.00    -0.021 N
HETATM   19  C8  UNL     1      35.692  61.192  20.026  1.00  0.00     0.705 A
ATOM     20  H4  UNL     1      35.371  59.593  18.787  1.00  0.00     0.203 HD
HETATM   21  N6  UNL     1      36.628  61.817  20.760  1.00  0.00    -0.021 N
HETATM   22  C9  UNL     1      37.905  61.358  20.829  1.00  0.00     0.719 A
ATOM     23  H6  UNL     1      36.373  62.657  21.279  1.00  0.00     0.203 HD
HETATM   24  N7  UNL     1      39.002  61.803  21.487  1.00  0.00    -0.188 N
HETATM   25  N10 UNL     1      38.285  60.255  20.162  1.00  0.00     0.026 N
HETATM   26  C10 UNL     1      40.055  61.007  21.246  1.00  0.00     0.080 A
ATOM     27  H7  UNL     1      39.025  62.630  22.085  1.00  0.00     0.184 HD
HETATM   28  C11 UNL     1      41.382  61.005  21.657  1.00  0.00     0.070 A
HETATM   29  C15 UNL     1      39.593  60.002  20.387  1.00  0.00     0.104 A
HETATM   30  C12 UNL     1      42.236  60.020  21.220  1.00  0.00     0.129 A
HETATM   31  C13 UNL     1      41.757  59.042  20.375  1.00  0.00     0.081 A
HETATM   32  N9  UNL     1      42.674  58.035  19.943  1.00  0.00    -0.100 NA
HETATM   33  C14 UNL     1      40.445  59.012  19.947  1.00  0.00     0.062 A
BRANCH  19  34
HETATM   34  N5  UNL     1      34.472  61.651  19.973  1.00  0.00    -0.234 N
ATOM     35  H52 UNL     1      33.698  61.115  20.365  1.00  0.00     0.174 HD
ATOM     36  H51 UNL     1      34.259  62.550  19.542  1.00  0.00     0.174 HD
ENDBRANCH  19  34
BRANCH  30  37
HETATM   37  N8  UNL     1      43.609  60.027  21.651  1.00  0.00    -0.114 N
HETATM   38  O2  UNL     1      44.444  60.835  21.233  1.00  0.00    -0.532 OA
HETATM   39  O3  UNL     1      43.976  59.079  22.571  1.00  0.00    -0.532 OA
ENDBRANCH  30  37
ENDBRANCH  15  17
ENDBRANCH  14  15
ENDBRANCH  13  14
ENDBRANCH  12  13
ENDBRANCH  11  12
ENDBRANCH   6  11
ENDBRANCH   3   6
TORSDOF 11
ENDMDL