MODEL 5
REMARK VINA RESULT: -7.479064795      2.443      3.835
REMARK  9 active torsions:
REMARK  status: ('A' for Active; 'I' for Inactive)
REMARK    1  A    between atoms: O1_2  and  N1_3
REMARK    2  A    between atoms: N1_3  and  C2_5
REMARK    3  A    between atoms: C3_8  and  N3_9
REMARK       I    between atoms: N3_9  and  C4_11
REMARK       I    between atoms: C4_11  and  N4_12
REMARK       I    between atoms: C4_11  and  N5_16
REMARK    4  A    between atoms: C5_22  and  N7_23
REMARK    5  A    between atoms: C8_28  and  N9_29
REMARK    6  A    between atoms: N9_29  and  C9_30
REMARK    7  A    between atoms: C12_33  and  O2_34
REMARK    8  A    between atoms: C15_38  and  C16_39
REMARK    9  A    between atoms: C16_39  and  O4_41
ROOT
HETATM    1  C2  UNL     1      37.432  58.044  18.177  1.00  0.00     0.200 C
HETATM    2  N2  UNL     1      37.042  59.162  18.811  1.00  0.00    -0.170 N
ATOM      3  H2  UNL     1      37.754  59.889  18.878  1.00  0.00     0.186 HD
HETATM    4  C3  UNL     1      35.858  59.472  19.370  1.00  0.00     0.697 C
HETATM    5  N6  UNL     1      34.959  58.558  19.787  1.00  0.00    -0.022 N
ATOM      6  H6  UNL     1      34.244  58.927  20.414  1.00  0.00     0.203 HD
HETATM    7  C5  UNL     1      34.840  57.244  19.519  1.00  0.00     0.696 C
HETATM    8  N8  UNL     1      35.698  56.474  18.833  1.00  0.00    -0.160 N
ATOM      9  H8  UNL     1      35.556  55.469  18.942  1.00  0.00     0.187 HD
HETATM   10  C8  UNL     1      36.741  56.826  18.005  1.00  0.00     0.240 C
ENDROOT
BRANCH  10  11
HETATM   11  N9  UNL     1      37.114  56.141  17.118  1.00  0.00    -0.382 NA
BRANCH  11  12
HETATM   12  C9  UNL     1      37.485  55.361  16.133  1.00  0.00     0.128 A
HETATM   13  C10 UNL     1      37.845  55.915  14.889  1.00  0.00     0.049 A
HETATM   14  C11 UNL     1      38.242  55.165  13.821  1.00  0.00     0.042 A
HETATM   15  C12 UNL     1      38.298  53.795  13.950  1.00  0.00     0.093 A
HETATM   16  C14 UNL     1      37.952  53.236  15.147  1.00  0.00     0.099 A
HETATM   17  N10 UNL     1      38.030  51.801  15.218  1.00  0.00    -0.098 NA
HETATM   18  C15 UNL     1      37.545  53.977  16.250  1.00  0.00     0.107 A
BRANCH  15  19
HETATM   19  O2  UNL     1      38.703  53.058  12.851  1.00  0.00    -0.354 OA
HETATM   20  C13 UNL     1      38.714  53.619  11.557  1.00  0.00     0.210 C
ENDBRANCH  15  19
BRANCH  18  21
HETATM   21  C16 UNL     1      37.201  53.270  17.474  1.00  0.00     0.298 C
HETATM   22  O3  UNL     1      38.003  53.358  18.444  1.00  0.00    -0.259 OA
BRANCH  21  23
HETATM   23  O4  UNL     1      36.077  52.515  17.662  1.00  0.00    -0.322 OA
HETATM   24  C17 UNL     1      36.071  51.171  18.094  1.00  0.00     0.213 C
ENDBRANCH  21  23
ENDBRANCH  18  21
ENDBRANCH  11  12
ENDBRANCH  10  11
BRANCH   1  25
HETATM   25  N1  UNL     1      38.598  58.017  17.626  1.00  0.00    -0.246 N
ATOM     26  H1  UNL     1      38.827  57.343  16.896  1.00  0.00     0.196 HD
BRANCH  25  27
HETATM   27  O1  UNL     1      39.519  58.942  18.071  1.00  0.00    -0.284 OA
HETATM   28  C1  UNL     1      40.369  58.693  19.173  1.00  0.00     0.237 C
ENDBRANCH  25  27
ENDBRANCH   1  25
BRANCH   7  29
HETATM   29  N7  UNL     1      33.657  56.597  20.029  1.00  0.00    -0.226 N
HETATM   30  C6  UNL     1      32.595  56.288  19.092  1.00  0.00     0.168 C
HETATM   31  C7  UNL     1      33.515  56.263  21.413  1.00  0.00     0.168 C
ENDBRANCH   7  29
BRANCH   4  32
HETATM   32  N3  UNL     1      35.591  60.725  19.504  1.00  0.00    -0.173 N
HETATM   33  C4  UNL     1      34.624  61.282  20.393  1.00  0.00     0.494 C
HETATM   34  N4  UNL     1      34.252  62.594  19.853  1.00  0.00    -0.032 N
HETATM   35  N5  UNL     1      35.057  61.400  21.762  1.00  0.00    -0.032 N
ATOM     36  H43 UNL     1      35.053  63.207  19.698  1.00  0.00     0.278 HD
ATOM     37  H42 UNL     1      33.930  62.553  18.886  1.00  0.00     0.278 HD
ATOM     38  H41 UNL     1      33.560  62.992  20.489  1.00  0.00     0.278 HD
ATOM     39  H53 UNL     1      35.378  60.496  22.110  1.00  0.00     0.278 HD
ATOM     40  H52 UNL     1      35.929  61.928  21.813  1.00  0.00     0.278 HD
ATOM     41  H51 UNL     1      34.366  61.798  22.398  1.00  0.00     0.278 HD
ATOM     42  H3  UNL     1      36.118  61.377  18.923  1.00  0.00     0.181 HD
ENDBRANCH   4  32
TORSDOF 9
ENDMDL