MODEL 2
REMARK VINA RESULT: -8.836009988      2.248      3.298
REMARK  10 active torsions:
REMARK  status: ('A' for Active; 'I' for Inactive)
REMARK    1  A    between atoms: C3_3  and  O1_4
REMARK    2  A    between atoms: C4_7  and  C5_8
REMARK    3  A    between atoms: C7_15  and  C8_16
REMARK    4  A    between atoms: C8_16  and  C9_18
REMARK    5  A    between atoms: C9_18  and  N4_19
REMARK    6  A    between atoms: C9_18  and  C12_33
REMARK       I    between atoms: N4_19  and  C10_21
REMARK       I    between atoms: C10_21  and  N5_23
REMARK    7  A    between atoms: N5_23  and  N6_25
REMARK    8  A    between atoms: N6_25  and  N7_27
REMARK    9  A    between atoms: N7_27  and  O6_31
REMARK   10  A    between atoms: C15_38  and  O7_39
ROOT
HETATM    1  C5  UNL     1      38.387  52.838  14.629  1.00  0.00     0.274 C
HETATM    2  C6  UNL     1      39.673  53.433  14.275  1.00  0.00     0.119 C
HETATM    3  N1  UNL     1      40.687  53.907  13.988  1.00  0.00    -0.193 NA
HETATM    4  N2  UNL     1      38.508  51.760  15.589  1.00  0.00    -0.017 NA
HETATM    5  O3  UNL     1      38.540  52.170  16.869  1.00  0.00    -0.159 OA
HETATM    6  N3  UNL     1      37.893  53.268  17.342  1.00  0.00    -0.226 N
ATOM      7  H3  UNL     1      37.813  53.405  18.350  1.00  0.00     0.198 HD
HETATM    8  C7  UNL     1      37.384  54.135  16.551  1.00  0.00     0.174 C
HETATM    9  N9  UNL     1      37.511  53.870  15.154  1.00  0.00    -0.330 N
ATOM     10  H9  UNL     1      36.965  54.429  14.498  1.00  0.00     0.164 HD
ENDROOT
BRANCH   1  11
HETATM   11  C4  UNL     1      37.780  52.239  13.385  1.00  0.00     0.151 A
HETATM   12  O2  UNL     1      36.692  52.685  12.758  1.00  0.00    -0.284 OA
HETATM   13  C3  UNL     1      36.433  51.944  11.712  1.00  0.00     0.192 A
HETATM   14  C2  UNL     1      37.380  50.954  11.622  1.00  0.00     0.032 A
HETATM   15  C1  UNL     1      37.528  49.866  10.615  1.00  0.00     0.056 C
HETATM   16  C15 UNL     1      38.248  51.142  12.698  1.00  0.00     0.111 A
BRANCH  13  17
HETATM   17  O1  UNL     1      35.370  52.100  10.802  1.00  0.00    -0.340 OA
ATOM     18  H1  UNL     1      34.577  52.588  10.991  1.00  0.00     0.220 HD
ENDBRANCH  13  17
BRANCH  16  19
HETATM   19  O7  UNL     1      39.335  50.361  12.973  1.00  0.00    -0.357 OA
ATOM     20  H7  UNL     1      39.388  49.732  13.684  1.00  0.00     0.217 HD
ENDBRANCH  16  19
ENDBRANCH   1  11
BRANCH   8  21
HETATM   21  C8  UNL     1      36.685  55.325  16.987  1.00  0.00     0.217 C
HETATM   22  O4  UNL     1      35.511  55.512  16.503  1.00  0.00    -0.287 OA
BRANCH  21  23
HETATM   23  C9  UNL     1      37.173  56.345  17.932  1.00  0.00     0.167 C
BRANCH  23  24
HETATM   24  N4  UNL     1      35.984  56.832  18.627  1.00  0.00    -0.329 N
HETATM   25  C10 UNL     1      35.862  57.110  19.983  1.00  0.00     0.338 C
HETATM   26  O5  UNL     1      36.769  56.996  20.837  1.00  0.00    -0.245 OA
HETATM   27  N5  UNL     1      34.593  57.574  20.495  1.00  0.00    -0.230 N
HETATM   28  C11 UNL     1      34.500  57.885  21.908  1.00  0.00     0.184 C
ATOM     29  H4  UNL     1      35.154  56.984  18.055  1.00  0.00     0.165 HD
BRANCH  27  30
HETATM   30  N6  UNL     1      33.500  57.684  19.679  1.00  0.00    -0.195 N
ATOM     31  H6  UNL     1      33.212  58.620  19.391  1.00  0.00     0.213 HD
BRANCH  30  32
HETATM   32  N7  UNL     1      32.770  56.626  19.226  1.00  0.00    -0.086 N
HETATM   33  N8  UNL     1      32.806  56.153  18.090  1.00  0.00    -0.302 N
ATOM     34  H82 UNL     1      33.443  56.606  17.435  1.00  0.00     0.181 HD
ATOM     35  H81 UNL     1      32.260  55.361  17.752  1.00  0.00     0.181 HD
BRANCH  32  36
HETATM   36  O6  UNL     1      31.895  56.004  20.127  1.00  0.00    -0.253 OA
ATOM     37  H6  UNL     1      31.174  55.501  19.767  1.00  0.00     0.248 HD
ENDBRANCH  32  36
ENDBRANCH  30  32
ENDBRANCH  27  30
ENDBRANCH  23  24
BRANCH  23  38
HETATM   38  C12 UNL     1      37.890  57.495  17.272  1.00  0.00     0.008 C
HETATM   39  C13 UNL     1      38.992  58.119  18.081  1.00  0.00     0.012 C
HETATM   40  C14 UNL     1      36.871  58.641  17.098  1.00  0.00     0.012 C
ENDBRANCH  23  38
ENDBRANCH  21  23
ENDBRANCH   8  21
TORSDOF 10
ENDMDL