MODEL 2
REMARK VINA RESULT: -7.807961923      2.553      7.619
REMARK  8 active torsions:
REMARK  status: ('A' for Active; 'I' for Inactive)
REMARK    1  A    between atoms: C2_5  and  N2_6
REMARK    2  A    between atoms: N2_6  and  C3_8
REMARK    3  A    between atoms: C3_8  and  C4_9
REMARK    4  A    between atoms: N3_14  and  N4_15
REMARK    5  A    between atoms: C8_19  and  O3_20
REMARK    6  A    between atoms: C11_30  and  O5_31
REMARK    7  A    between atoms: N9_33  and  C12_34
REMARK    8  A    between atoms: C14_37  and  C15_38
ROOT
HETATM    1  N4  UNL     1      73.179  85.991 113.250  1.00  0.00    -0.192 NA
HETATM    2  C7  UNL     1      72.012  86.304 114.027  1.00  0.00     0.235 C
HETATM    3  N5  UNL     1      71.981  87.664 114.477  1.00  0.00    -0.365 N
ATOM      4  H5  UNL     1      71.130  88.219 114.384  1.00  0.00     0.158 HD
HETATM    5  C8  UNL     1      73.129  88.222 115.047  1.00  0.00     0.285 C
HETATM    6  C9  UNL     1      73.952  87.391 115.917  1.00  0.00     0.287 C
HETATM    7  O4  UNL     1      73.820  86.162 116.152  1.00  0.00    -0.267 OA
HETATM    8  N6  UNL     1      75.030  88.042 116.582  1.00  0.00    -0.297 N
ATOM      9  H6  UNL     1      75.385  87.711 117.479  1.00  0.00     0.171 HD
HETATM   10  C10 UNL     1      75.597  89.194 115.923  1.00  0.00     0.194 C
HETATM   11  N7  UNL     1      76.669  89.919 116.525  1.00  0.00    -0.063 NA
HETATM   12  N8  UNL     1      75.090  89.529 114.809  1.00  0.00    -0.310 N
ATOM     13  H8  UNL     1      75.519  90.347 114.376  1.00  0.00     0.167 HD
HETATM   14  C11 UNL     1      74.032  88.959 114.069  1.00  0.00     0.282 C
HETATM   15  N9  UNL     1      74.354  88.100 112.982  1.00  0.00    -0.299 N
HETATM   16  C16 UNL     1      73.442  87.133 112.385  1.00  0.00     0.246 C
ENDROOT
BRANCH   1  17
HETATM   17  N3  UNL     1      73.014  84.863 112.437  1.00  0.00    -0.295 N
HETATM   18  C1  UNL     1      72.644  83.548 112.831  1.00  0.00     0.111 C
HETATM   19  N1  UNL     1      72.743  83.024 113.967  1.00  0.00    -0.386 N
HETATM   20  C2  UNL     1      72.110  82.928 111.599  1.00  0.00     0.151 C
ATOM     21  H12 UNL     1      72.478  82.081 114.250  1.00  0.00     0.157 HD
ATOM     22  H11 UNL     1      73.113  83.452 114.817  1.00  0.00     0.157 HD
HETATM   23  C5  UNL     1      73.179  83.408 110.632  1.00  0.00     0.054 C
HETATM   24  C6  UNL     1      73.209  84.882 110.976  1.00  0.00     0.147 C
BRANCH  20  25
HETATM   25  N2  UNL     1      71.838  81.576 111.593  1.00  0.00    -0.382 N
ATOM     26  H2  UNL     1      70.863  81.285 111.520  1.00  0.00     0.160 HD
BRANCH  25  27
HETATM   27  C3  UNL     1      72.811  80.584 111.679  1.00  0.00     0.169 C
BRANCH  27  28
HETATM   28  C4  UNL     1      72.609  79.784 112.931  1.00  0.00     0.214 C
HETATM   29  O1  UNL     1      73.461  79.909 113.840  1.00  0.00    -0.644 OA
HETATM   30  O2  UNL     1      71.526  78.928 113.095  1.00  0.00    -0.644 OA
ENDBRANCH  27  28
ENDBRANCH  25  27
ENDBRANCH  20  25
ENDBRANCH   1  17
BRANCH  15  31
HETATM   31  C12 UNL     1      75.689  88.157 112.381  1.00  0.00     0.115 A
HETATM   32  C13 UNL     1      76.391  87.001 112.112  1.00  0.00     0.100 A
HETATM   33  S1  UNL     1      77.847  87.623 111.467  1.00  0.00    -0.075 SA
HETATM   34  C14 UNL     1      77.488  89.288 111.572  1.00  0.00     0.141 A
HETATM   35  N11 UNL     1      76.285  89.280 112.092  1.00  0.00    -0.332 N
ATOM     36  H11 UNL     1      75.809  90.163 112.272  1.00  0.00     0.168 HD
BRANCH  34  37
HETATM   37  C15 UNL     1      78.386  90.376 111.155  1.00  0.00     0.288 C
HETATM   38  N10 UNL     1      79.205  91.064 112.062  1.00  0.00    -0.055 NA
HETATM   39  O6  UNL     1      78.431  90.710 109.933  1.00  0.00    -0.269 OA
ENDBRANCH  34  37
ENDBRANCH  15  31
BRANCH   5  40
HETATM   40  O3  UNL     1      72.654  89.282 115.898  1.00  0.00    -0.358 OA
ATOM     41  H3  UNL     1      73.108  90.063 115.602  1.00  0.00     0.213 HD
ENDBRANCH   5  40
BRANCH  14  42
HETATM   42  O5  UNL     1      73.214  89.984 113.499  1.00  0.00    -0.349 OA
ATOM     43  H5  UNL     1      73.399  89.963 112.567  1.00  0.00     0.214 HD
ENDBRANCH  14  42
TORSDOF 8
ENDMDL