MODEL 4
REMARK VINA RESULT: -6.683988966      2.314      4.701
REMARK  15 active torsions:
REMARK  status: ('A' for Active; 'I' for Inactive)
REMARK    1  A    between atoms: O1_2  and  C2_3
REMARK    2  A    between atoms: C7_8  and  O2_9
REMARK    3  A    between atoms: C9_12  and  O3_13
REMARK    4  A    between atoms: C9_12  and  C10_15
REMARK    5  A    between atoms: C12_20  and  N1_21
REMARK    6  A    between atoms: C13_23  and  C14_24
REMARK    7  A    between atoms: C14_24  and  N2_25
REMARK    8  A    between atoms: C15_29  and  O7_30
REMARK    9  A    between atoms: C16_32  and  C17_33
REMARK   10  A    between atoms: C17_33  and  O8_34
REMARK   11  A    between atoms: C17_33  and  C18_36
REMARK   12  A    between atoms: C18_36  and  O9_37
REMARK   13  A    between atoms: C18_36  and  C19_39
REMARK   14  A    between atoms: C19_39  and  O10_40
REMARK   15  A    between atoms: C19_39  and  O11_42
ROOT
HETATM    1  C2  UNL     1      75.616  86.329 110.400  1.00  0.00     0.101 A
HETATM    2  C3  UNL     1      76.968  86.346 110.558  1.00  0.00     0.040 A
HETATM    3  C4  UNL     1      77.557  86.637 111.765  1.00  0.00     0.021 A
HETATM    4  C5  UNL     1      76.742  86.918 112.835  1.00  0.00     0.049 A
HETATM    5  C6  UNL     1      75.341  86.918 112.720  1.00  0.00     0.005 A
HETATM    6  C7  UNL     1      74.760  86.613 111.483  1.00  0.00     0.106 A
HETATM    7  C8  UNL     1      74.514  87.277 113.877  1.00  0.00     0.116 C
HETATM    8  C9  UNL     1      74.149  88.710 113.898  1.00  0.00     0.219 C
HETATM    9  C11 UNL     1      73.353  89.057 115.138  1.00  0.00     0.197 C
HETATM   10  O6  UNL     1      72.289  89.605 115.141  1.00  0.00    -0.292 OA
HETATM   11  C12 UNL     1      73.994  88.665 116.413  1.00  0.00     0.186 C
HETATM   12  C15 UNL     1      74.228  87.152 116.281  1.00  0.00     0.187 C
HETATM   13  C16 UNL     1      75.157  86.787 115.187  1.00  0.00     0.139 C
HETATM   14  O12 UNL     1      76.430  87.340 115.223  1.00  0.00    -0.300 OA
HETATM   15  C20 UNL     1      77.310  87.144 114.178  1.00  0.00     0.295 C
HETATM   16  O13 UNL     1      78.554  87.146 114.289  1.00  0.00    -0.259 OA
ENDROOT
BRANCH  13  17
HETATM   17  C17 UNL     1      75.263  85.291 115.132  1.00  0.00     0.190 C
BRANCH  17  18
HETATM   18  O8  UNL     1      74.272  84.754 114.344  1.00  0.00    -0.390 OA
ATOM     19  H8  UNL     1      74.623  84.449 113.515  1.00  0.00     0.210 HD
ENDBRANCH  17  18
BRANCH  17  20
HETATM   20  C18 UNL     1      75.392  84.686 116.497  1.00  0.00     0.204 C
BRANCH  20  21
HETATM   21  O9  UNL     1      74.906  83.391 116.585  1.00  0.00    -0.388 OA
ATOM     22  H9  UNL     1      74.576  83.162 117.446  1.00  0.00     0.210 HD
ENDBRANCH  20  21
BRANCH  20  23
HETATM   23  C19 UNL     1      76.861  84.682 116.957  1.00  0.00     0.285 C
BRANCH  23  24
HETATM   24  O10 UNL     1      77.108  85.755 117.801  1.00  0.00    -0.369 OA
ATOM     25  H10 UNL     1      77.908  86.199 117.547  1.00  0.00     0.212 HD
ENDBRANCH  23  24
BRANCH  23  26
HETATM   26  O11 UNL     1      77.731  84.616 115.895  1.00  0.00    -0.369 OA
ATOM     27  H11 UNL     1      77.783  83.740 115.533  1.00  0.00     0.212 HD
ENDBRANCH  23  26
ENDBRANCH  20  23
ENDBRANCH  17  20
ENDBRANCH  13  17
BRANCH  12  28
HETATM   28  O7  UNL     1      72.950  86.646 115.923  1.00  0.00    -0.390 OA
ATOM     29  H7  UNL     1      72.355  87.114 116.497  1.00  0.00     0.210 HD
ENDBRANCH  12  28
BRANCH   8  30
HETATM   30  O3  UNL     1      73.247  88.944 112.819  1.00  0.00    -0.371 OA
ATOM     31  H3  UNL     1      73.375  88.254 112.179  1.00  0.00     0.211 HD
ENDBRANCH   8  30
BRANCH   8  32
HETATM   32  C10 UNL     1      75.206  89.713 113.690  1.00  0.00     0.218 C
HETATM   33  O4  UNL     1      75.722  90.341 114.637  1.00  0.00    -0.645 OA
HETATM   34  O5  UNL     1      75.705  90.030 112.414  1.00  0.00    -0.645 OA
ENDBRANCH   8  32
BRANCH  11  35
HETATM   35  N1  UNL     1      73.105  88.814 117.531  1.00  0.00    -0.387 N
HETATM   36  C13 UNL     1      73.552  89.004 118.731  1.00  0.00     0.083 C
ATOM     37  H1  UNL     1      72.097  88.770 117.376  1.00  0.00     0.159 HD
BRANCH  36  38
HETATM   38  C14 UNL     1      75.003  89.082 119.048  1.00  0.00     0.273 C
BRANCH  38  39
HETATM   39  N2  UNL     1      75.391  87.785 119.569  1.00  0.00    -0.075 N
ATOM     40  H23 UNL     1      76.064  87.299 118.975  1.00  0.00     0.274 HD
ATOM     41  H22 UNL     1      75.975  87.846 120.402  1.00  0.00     0.274 HD
ATOM     42  H21 UNL     1      74.533  87.256 119.718  1.00  0.00     0.274 HD
ENDBRANCH  38  39
ENDBRANCH  36  38
ENDBRANCH  11  35
BRANCH   6  43
HETATM   43  O2  UNL     1      73.435  86.558 111.227  1.00  0.00    -0.357 OA
ATOM     44  H2  UNL     1      72.870  87.009 111.842  1.00  0.00     0.217 HD
ENDBRANCH   6  43
BRANCH   1  45
HETATM   45  O1  UNL     1      75.034  86.029 109.164  1.00  0.00    -0.353 OA
HETATM   46  C1  UNL     1      75.071  84.693 108.693  1.00  0.00     0.210 C
ENDBRANCH   1  45
TORSDOF 15
ENDMDL