MODEL 3
REMARK VINA RESULT: -7.633647613      2.849      3.861
REMARK  13 active torsions:
REMARK  status: ('A' for Active; 'I' for Inactive)
REMARK       I    between atoms: N1_1  and  C1_4
REMARK       I    between atoms: C1_4  and  N2_5
REMARK       I    between atoms: C1_4  and  N14_47
REMARK    1  A    between atoms: N2_5  and  C2_7
REMARK    2  A    between atoms: N5_12  and  C3_13
REMARK    3  A    between atoms: C4_17  and  N7_18
REMARK    4  A    between atoms: C7_23  and  N9_24
REMARK    5  A    between atoms: C8_29  and  N11_30
REMARK    6  A    between atoms: N11_30  and  C9_32
REMARK    7  A    between atoms: C9_32  and  C10_33
REMARK    8  A    between atoms: C10_33  and  C11_34
REMARK    9  A    between atoms: C11_34  and  O1_35
REMARK   10  A    between atoms: C13_41  and  C14_42
REMARK   11  A    between atoms: C14_42  and  O3_43
REMARK   12  A    between atoms: N14_47  and  S1_49
REMARK   13  A    between atoms: S1_49  and  N15_50
ROOT
HETATM    1  C3  UNL     1      73.631  84.123 113.573  1.00  0.00     0.363 C
HETATM    2  N6  UNL     1      74.736  84.550 112.733  1.00  0.00    -0.003 N
ATOM      3  H61 UNL     1      74.542  84.597 111.733  1.00  0.00     0.285 HD
ATOM      4  H62 UNL     1      75.504  83.886 112.635  1.00  0.00     0.285 HD
HETATM    5  C4  UNL     1      75.067  85.814 113.378  1.00  0.00     0.440 C
HETATM    6  O2  UNL     1      75.080  85.474 114.716  1.00  0.00    -0.332 OA
HETATM    7  C13 UNL     1      74.102  84.499 114.922  1.00  0.00     0.203 C
ENDROOT
BRANCH   1   8
HETATM    8  N5  UNL     1      73.261  82.742 113.380  1.00  0.00    -0.170 N
HETATM    9  N4  UNL     1      73.790  81.852 112.565  1.00  0.00    -0.209 N
HETATM   10  N3  UNL     1      73.138  80.719 112.703  1.00  0.00    -0.114 N
ATOM     11  H4  UNL     1      74.575  82.015 111.933  1.00  0.00     0.210 HD
HETATM   12  C2  UNL     1      72.168  80.856 113.619  1.00  0.00     0.728 A
ATOM     13  H3  UNL     1      73.340  79.861 112.190  1.00  0.00     0.207 HD
HETATM   14  N13 UNL     1      72.275  82.131 114.020  1.00  0.00    -0.110 N
ATOM     15  H13 UNL     1      71.679  82.571 114.720  1.00  0.00     0.207 HD
BRANCH  12  16
HETATM   16  N2  UNL     1      71.323  79.973 114.026  1.00  0.00    -0.019 N
HETATM   17  C1  UNL     1      71.410  79.280 115.236  1.00  0.00     0.701 C
HETATM   18  N1  UNL     1      71.585  77.993 115.236  1.00  0.00    -0.233 N
HETATM   19  N14 UNL     1      71.301  80.014 116.453  1.00  0.00    -0.100 N
ATOM     20  H12 UNL     1      71.663  77.467 114.365  1.00  0.00     0.174 HD
ATOM     21  H11 UNL     1      71.648  77.486 116.119  1.00  0.00     0.174 HD
ATOM     22  H14 UNL     1      71.816  80.884 116.589  1.00  0.00     0.199 HD
ATOM     23  H2  UNL     1      70.530  79.764 113.419  1.00  0.00     0.203 HD
BRANCH  19  24
HETATM   24  S1  UNL     1      70.270  79.387 117.688  1.00  0.00     0.330 S
HETATM   25  O4  UNL     1      70.553  77.922 117.870  1.00  0.00    -0.182 OA
HETATM   26  O5  UNL     1      70.532  80.159 118.933  1.00  0.00    -0.182 OA
BRANCH  24  27
HETATM   27  N15 UNL     1      68.637  79.562 117.145  1.00  0.00    -0.311 N
ATOM     28 2H15 UNL     1      67.983  78.797 116.978  1.00  0.00     0.170 HD
ATOM     29 1H15 UNL     1      68.457  80.559 117.026  1.00  0.00     0.170 HD
ENDBRANCH  24  27
ENDBRANCH  19  24
ENDBRANCH  12  16
ENDBRANCH   1   8
BRANCH   7  30
HETATM   30  C14 UNL     1      74.676  83.416 115.766  1.00  0.00     0.200 C
BRANCH  30  31
HETATM   31  O3  UNL     1      75.038  83.881 117.011  1.00  0.00    -0.398 OA
ATOM     32  H3  UNL     1      75.352  84.777 116.971  1.00  0.00     0.209 HD
ENDBRANCH  30  31
ENDBRANCH   7  30
BRANCH   5  33
HETATM   33  N7  UNL     1      74.000  86.794 113.166  1.00  0.00    -0.276 N
HETATM   34  C5  UNL     1      73.285  87.018 112.059  1.00  0.00     0.189 A
HETATM   35  N8  UNL     1      72.430  88.009 112.348  1.00  0.00    -0.346 N
HETATM   36  C6  UNL     1      72.601  88.406 113.619  1.00  0.00     0.123 A
ATOM     37  H8  UNL     1      71.749  88.403 111.698  1.00  0.00     0.167 HD
HETATM   38  C7  UNL     1      72.013  89.361 114.429  1.00  0.00     0.145 A
HETATM   39  C12 UNL     1      73.606  87.629 114.144  1.00  0.00     0.158 A
HETATM   40  N10 UNL     1      72.445  89.492 115.695  1.00  0.00    -0.175 N
HETATM   41  C8  UNL     1      73.425  88.743 116.227  1.00  0.00     0.681 A
ATOM     42  H10 UNL     1      72.004  90.199 116.284  1.00  0.00     0.186 HD
HETATM   43  N12 UNL     1      73.984  87.820 115.425  1.00  0.00    -0.174 N
ATOM     44  H12 UNL     1      74.731  87.237 115.804  1.00  0.00     0.186 HD
BRANCH  38  45
HETATM   45  N9  UNL     1      71.084  90.090 113.962  1.00  0.00    -0.383 N
ATOM     46  H92 UNL     1      71.154  90.523 113.041  1.00  0.00     0.157 HD
ATOM     47  H91 UNL     1      70.243  90.247 114.517  1.00  0.00     0.157 HD
ENDBRANCH  38  45
BRANCH  41  48
HETATM   48  N11 UNL     1      73.828  88.883 117.451  1.00  0.00    -0.226 N
ATOM     49  H11 UNL     1      73.167  88.874 118.228  1.00  0.00     0.177 HD
BRANCH  48  50
HETATM   50  C9  UNL     1      75.241  89.051 117.677  1.00  0.00     0.140 C
BRANCH  50  51
HETATM   51  C10 UNL     1      75.699  88.366 118.945  1.00  0.00     0.046 C
BRANCH  51  52
HETATM   52  C11 UNL     1      76.411  87.067 118.588  1.00  0.00     0.165 C
BRANCH  52  53
HETATM   53  O1  UNL     1      75.705  86.465 117.529  1.00  0.00    -0.401 OA
ATOM     54  H1  UNL     1      76.055  86.807 116.715  1.00  0.00     0.209 HD
ENDBRANCH  52  53
ENDBRANCH  51  52
ENDBRANCH  50  51
ENDBRANCH  48  50
ENDBRANCH  41  48
ENDBRANCH   5  33
TORSDOF 13
ENDMDL