MODEL 1
REMARK VINA RESULT: -9.610017600      0.000      0.000
REMARK  8 active torsions:
REMARK  status: ('A' for Active; 'I' for Inactive)
REMARK       I    between atoms: C1_4  and  N3_6
REMARK    1  A    between atoms: N3_6  and  S1_8
REMARK    2  A    between atoms: S1_8  and  N4_10
REMARK    3  A    between atoms: S1_8  and  C8_30
REMARK       I    between atoms: N4_10  and  C2_12
REMARK       I    between atoms: C2_12  and  N5_14
REMARK    4  A    between atoms: N5_14  and  C3_16
REMARK    5  A    between atoms: C3_16  and  C4_17
REMARK    6  A    between atoms: C4_17  and  O3_18
REMARK    7  A    between atoms: C6_24  and  C7_25
REMARK    8  A    between atoms: C7_25  and  O5_26
REMARK       I    between atoms: N10_37  and  C11_39
REMARK       I    between atoms: C11_39  and  N11_40
REMARK       I    between atoms: C11_39  and  N12_44
ROOT
HETATM    1  S1  UNL     1      73.516  88.906 115.219  1.00  0.00     0.182 S
HETATM    2  O1  UNL     1      73.974  89.531 113.927  1.00  0.00    -0.220 OA
ENDROOT
BRANCH   1   3
HETATM    3  N3  UNL     1      72.204  89.671 115.624  1.00  0.00    -0.268 N
HETATM    4  C1  UNL     1      71.420  90.227 114.578  1.00  0.00     0.194 C
HETATM    5  N1  UNL     1      71.222  89.629 113.458  1.00  0.00    -0.373 N
HETATM    6  N2  UNL     1      70.825  91.501 114.769  1.00  0.00    -0.063 NA
ATOM      7  H12 UNL     1      70.660  90.028 112.706  1.00  0.00     0.158 HD
ATOM      8  H11 UNL     1      71.651  88.713 113.320  1.00  0.00     0.158 HD
ATOM      9  H3  UNL     1      71.925  89.764 116.601  1.00  0.00     0.180 HD
ENDBRANCH   1   3
BRANCH   1  10
HETATM   10  N4  UNL     1      74.641  89.093 116.475  1.00  0.00    -0.246 N
HETATM   11  C2  UNL     1      74.243  88.950 117.855  1.00  0.00     0.328 C
HETATM   12  O2  UNL     1      73.042  88.680 118.102  1.00  0.00    -0.246 OA
HETATM   13  N5  UNL     1      75.164  89.108 118.901  1.00  0.00    -0.338 N
ATOM     14  H5  UNL     1      76.124  89.315 118.623  1.00  0.00     0.164 HD
ATOM     15  H4  UNL     1      75.613  89.310 116.252  1.00  0.00     0.182 HD
BRANCH  13  16
HETATM   16  C3  UNL     1      74.928  89.017 120.300  1.00  0.00     0.187 C
BRANCH  16  17
HETATM   17  C4  UNL     1      75.914  88.245 121.126  1.00  0.00     0.173 C
HETATM   18  C5  UNL     1      75.191  87.351 122.137  1.00  0.00     0.264 C
HETATM   19  O4  UNL     1      75.843  87.468 123.407  1.00  0.00    -0.274 OA
HETATM   20  N6  UNL     1      75.997  88.723 123.978  1.00  0.00    -0.252 N
HETATM   21  C6  UNL     1      76.448  89.623 123.142  1.00  0.00     0.123 C
ATOM     22  H6  UNL     1      75.781  88.925 124.953  1.00  0.00     0.196 HD
HETATM   23  N7  UNL     1      76.718  89.245 121.829  1.00  0.00    -0.342 N
ATOM     24  H7  UNL     1      77.502  89.680 121.341  1.00  0.00     0.164 HD
BRANCH  17  25
HETATM   25  O3  UNL     1      76.719  87.424 120.374  1.00  0.00    -0.367 OA
ATOM     26  H3  UNL     1      76.353  86.556 120.251  1.00  0.00     0.212 HD
ENDBRANCH  17  25
BRANCH  21  27
HETATM   27  C7  UNL     1      76.653  91.013 123.648  1.00  0.00     0.242 C
BRANCH  27  28
HETATM   28  O5  UNL     1      75.916  91.932 122.942  1.00  0.00    -0.393 OA
ATOM     29  H5  UNL     1      76.243  92.046 122.057  1.00  0.00     0.209 HD
ENDBRANCH  27  28
ENDBRANCH  21  27
ENDBRANCH  16  17
ENDBRANCH  13  16
ENDBRANCH   1  10
BRANCH   1  30
HETATM   30  C8  UNL     1      73.141  87.220 114.957  1.00  0.00     0.205 A
HETATM   31  N8  UNL     1      73.009  86.224 115.848  1.00  0.00    -0.316 N
HETATM   32  C9  UNL     1      72.720  85.075 115.224  1.00  0.00     0.155 A
ATOM     33  H8  UNL     1      73.114  86.328 116.857  1.00  0.00     0.169 HD
HETATM   34  N9  UNL     1      72.484  83.796 115.585  1.00  0.00    -0.174 N
HETATM   35  C13 UNL     1      72.667  85.360 113.872  1.00  0.00     0.148 A
HETATM   36  C10 UNL     1      72.209  82.817 114.706  1.00  0.00     0.685 A
ATOM     37  H9  UNL     1      72.516  83.560 116.578  1.00  0.00     0.186 HD
HETATM   38  N10 UNL     1      71.981  81.607 114.968  1.00  0.00    -0.173 N
HETATM   39  N13 UNL     1      72.169  83.154 113.380  1.00  0.00    -0.154 N
HETATM   40  C11 UNL     1      71.939  80.909 116.199  1.00  0.00     0.494 C
ATOM     41  H10 UNL     1      71.794  81.027 114.150  1.00  0.00     0.181 HD
HETATM   42  N11 UNL     1      73.186  80.922 116.934  1.00  0.00    -0.032 N
HETATM   43  N12 UNL     1      70.824  81.289 117.047  1.00  0.00    -0.032 N
ATOM     44 3H11 UNL     1      73.947  80.572 116.350  1.00  0.00     0.278 HD
ATOM     45 2H11 UNL     1      73.505  81.881 117.077  1.00  0.00     0.278 HD
ATOM     46 1H11 UNL     1      73.156  80.420 117.820  1.00  0.00     0.278 HD
ATOM     47 3H12 UNL     1      70.818  82.297 117.205  1.00  0.00     0.278 HD
ATOM     48 2H12 UNL     1      69.940  81.190 116.547  1.00  0.00     0.278 HD
ATOM     49 1H12 UNL     1      70.793  80.787 117.934  1.00  0.00     0.278 HD
HETATM   50  C12 UNL     1      72.391  84.397 112.950  1.00  0.00     0.290 A
ATOM     51  H13 UNL     1      71.961  82.427 112.696  1.00  0.00     0.187 HD
HETATM   52  O6  UNL     1      72.348  84.687 111.714  1.00  0.00    -0.265 OA
HETATM   53  N14 UNL     1      72.926  86.657 113.759  1.00  0.00    -0.325 N
ATOM     54  H14 UNL     1      72.959  87.161 112.874  1.00  0.00     0.168 HD
ENDBRANCH   1  30
TORSDOF 8
ENDMDL