MODEL 3
REMARK VINA RESULT: -7.996378110      1.175      2.026
REMARK  12 active torsions:
REMARK  status: ('A' for Active; 'I' for Inactive)
REMARK    1  A    between atoms: C3_3  and  O1_4
REMARK    2  A    between atoms: N2_10  and  C5_11
REMARK    3  A    between atoms: C5_11  and  C6_12
REMARK    4  A    between atoms: C7_14  and  C8_15
REMARK    5  A    between atoms: C8_15  and  O4_16
REMARK    6  A    between atoms: C8_15  and  C9_18
REMARK    7  A    between atoms: C9_18  and  O5_19
REMARK    8  A    between atoms: C10_22  and  N3_23
REMARK    9  A    between atoms: C13_28  and  N5_29
REMARK   10  A    between atoms: N5_29  and  C14_31
REMARK   11  A    between atoms: C15_36  and  N9_37
REMARK   12  A    between atoms: C17_43  and  O7_44
ROOT
HETATM    1  C6  UNL     1      74.109  87.738 116.421  1.00  0.00     0.176 C
HETATM    2  O3  UNL     1      73.066  88.624 116.356  1.00  0.00    -0.349 OA
HETATM    3  C7  UNL     1      72.093  88.501 115.457  1.00  0.00     0.293 C
HETATM    4  O6  UNL     1      72.180  87.550 114.489  1.00  0.00    -0.331 OA
HETATM    5  C10 UNL     1      72.771  86.410 114.947  1.00  0.00     0.265 C
HETATM    6  C17 UNL     1      74.233  86.823 115.256  1.00  0.00     0.198 C
ENDROOT
BRANCH   5   7
HETATM    7  N3  UNL     1      72.734  85.285 114.062  1.00  0.00    -0.297 N
HETATM    8  C11 UNL     1      73.013  85.394 112.747  1.00  0.00     0.188 A
HETATM    9  N4  UNL     1      72.905  84.195 112.152  1.00  0.00    -0.346 N
HETATM   10  C12 UNL     1      72.549  83.283 113.096  1.00  0.00     0.123 A
ATOM     11  H4  UNL     1      73.064  84.002 111.164  1.00  0.00     0.167 HD
HETATM   12  C13 UNL     1      72.305  81.922 113.044  1.00  0.00     0.150 A
HETATM   13  C16 UNL     1      72.450  83.993 114.268  1.00  0.00     0.157 A
HETATM   14  N8  UNL     1      71.964  81.302 114.183  1.00  0.00    -0.175 N
HETATM   15  C15 UNL     1      71.871  82.006 115.324  1.00  0.00     0.679 A
ATOM     16  H8  UNL     1      71.776  80.300 114.183  1.00  0.00     0.186 HD
HETATM   17  N10 UNL     1      72.110  83.340 115.378  1.00  0.00    -0.174 N
ATOM     18  H10 UNL     1      72.029  83.841 116.263  1.00  0.00     0.186 HD
BRANCH  12  19
HETATM   19  N5  UNL     1      72.403  81.289 111.932  1.00  0.00    -0.341 N
ATOM     20  H5  UNL     1      73.032  80.486 111.890  1.00  0.00     0.164 HD
BRANCH  19  21
HETATM   21  C14 UNL     1      71.683  81.643 110.746  1.00  0.00     0.305 A
HETATM   22  N6  UNL     1      71.980  80.945 109.502  1.00  0.00    -0.101 NA
HETATM   23  N7  UNL     1      72.329  82.343 109.699  1.00  0.00    -0.101 NA
ENDBRANCH  19  21
ENDBRANCH  12  19
BRANCH  15  24
HETATM   24  N9  UNL     1      71.543  81.424 116.432  1.00  0.00    -0.234 N
ATOM     25  H92 UNL     1      70.912  80.626 116.366  1.00  0.00     0.174 HD
ATOM     26  H91 UNL     1      71.908  81.761 117.323  1.00  0.00     0.174 HD
ENDBRANCH  15  24
ENDBRANCH   5   7
BRANCH   6  27
HETATM   27  O7  UNL     1      74.975  85.667 115.527  1.00  0.00    -0.389 OA
ATOM     28  H7  UNL     1      74.665  84.898 115.064  1.00  0.00     0.210 HD
ENDBRANCH   6  27
BRANCH   3  29
HETATM   29  C8  UNL     1      71.855  89.850 114.765  1.00  0.00     0.197 C
BRANCH  29  30
HETATM   30  O4  UNL     1      70.511  90.157 114.666  1.00  0.00    -0.389 OA
ATOM     31  H4  UNL     1      70.344  90.831 114.018  1.00  0.00     0.210 HD
ENDBRANCH  29  30
BRANCH  29  32
HETATM   32  C9  UNL     1      72.470  89.848 113.383  1.00  0.00     0.200 C
BRANCH  32  33
HETATM   33  O5  UNL     1      73.843  89.883 113.400  1.00  0.00    -0.398 OA
ATOM     34  H5  UNL     1      74.223  90.122 112.563  1.00  0.00     0.209 HD
ENDBRANCH  32  33
ENDBRANCH  29  32
ENDBRANCH   3  29
BRANCH   1  35
HETATM   35  C5  UNL     1      75.371  88.401 116.892  1.00  0.00     0.171 C
BRANCH  35  36
HETATM   36  N2  UNL     1      75.772  88.050 118.234  1.00  0.00    -0.263 N
HETATM   37  C4  UNL     1      76.519  86.960 118.485  1.00  0.00     0.331 A
HETATM   38  N1  UNL     1      76.890  86.604 119.743  1.00  0.00    -0.288 N
HETATM   39  O2  UNL     1      76.918  86.204 117.562  1.00  0.00    -0.246 OA
HETATM   40  C3  UNL     1      76.489  87.379 120.751  1.00  0.00     0.155 A
ATOM     41  H1  UNL     1      77.457  85.772 119.910  1.00  0.00     0.172 HD
HETATM   42  C2  UNL     1      75.726  88.509 120.572  1.00  0.00     0.057 A
HETATM   43  C1  UNL     1      75.280  89.374 121.709  1.00  0.00     0.059 C
HETATM   44  C18 UNL     1      75.372  88.832 119.286  1.00  0.00     0.261 A
HETATM   45  O8  UNL     1      74.665  89.869 119.074  1.00  0.00    -0.267 OA
BRANCH  40  46
HETATM   46  O1  UNL     1      76.843  87.061 122.067  1.00  0.00    -0.345 OA
ATOM     47  H1  UNL     1      77.739  86.782 122.212  1.00  0.00     0.219 HD
ENDBRANCH  40  46
ENDBRANCH  35  36
ENDBRANCH   1  35
TORSDOF 12
ENDMDL