MODEL 5
REMARK VINA RESULT: -8.039271533      5.282      7.901
REMARK  10 active torsions:
REMARK  status: ('A' for Active; 'I' for Inactive)
REMARK    1  A    between atoms: C2_7  and  C3_8
REMARK    2  A    between atoms: C5_16  and  N6_17
REMARK    3  A    between atoms: C11_27  and  C12_28
REMARK    4  A    between atoms: C12_28  and  N9_29
REMARK    5  A    between atoms: N9_29  and  C13_31
REMARK    6  A    between atoms: C14_33  and  C15_34
REMARK    7  A    between atoms: C15_34  and  O4_35
REMARK    8  A    between atoms: C16_37  and  O5_38
REMARK    9  A    between atoms: C17_40  and  O6_41
REMARK   10  A    between atoms: C18_43  and  O7_44
ROOT
HETATM    1  C3  UNL     1      74.098  88.347 117.408  1.00  0.00     0.106 A
HETATM    2  N3  UNL     1      73.978  88.961 118.633  1.00  0.00    -0.284 N
ATOM      3  H3  UNL     1      73.196  89.559 118.899  1.00  0.00     0.188 HD
HETATM    4  N4  UNL     1      74.980  88.688 119.408  1.00  0.00    -0.187 N
HETATM    5  C4  UNL     1      75.343  89.022 120.681  1.00  0.00     0.361 A
HETATM    6  O2  UNL     1      74.558  89.781 121.303  1.00  0.00    -0.244 OA
HETATM    7  N5  UNL     1      76.489  88.543 121.198  1.00  0.00    -0.139 N
ATOM      8  H5  UNL     1      76.744  88.805 122.150  1.00  0.00     0.189 HD
HETATM    9  C5  UNL     1      77.310  87.733 120.511  1.00  0.00     0.686 A
HETATM   10  N8  UNL     1      76.951  87.405 119.260  1.00  0.00    -0.174 N
ATOM     11  H8  UNL     1      77.552  86.792 118.709  1.00  0.00     0.186 HD
HETATM   12  C10 UNL     1      75.806  87.875 118.720  1.00  0.00     0.158 A
HETATM   13  C11 UNL     1      75.276  87.643 117.458  1.00  0.00     0.038 A
ENDROOT
BRANCH  13  14
HETATM   14  C12 UNL     1      75.841  86.799 116.356  1.00  0.00     0.161 C
BRANCH  14  15
HETATM   15  N9  UNL     1      76.676  87.545 115.479  1.00  0.00    -0.391 N
ATOM     16  H9  UNL     1      77.591  87.889 115.772  1.00  0.00     0.156 HD
BRANCH  15  17
HETATM   17  C13 UNL     1      76.159  87.789 114.151  1.00  0.00     0.249 C
HETATM   18  O3  UNL     1      75.108  86.843 114.011  1.00  0.00    -0.354 OA
HETATM   19  C14 UNL     1      74.686  86.726 112.709  1.00  0.00     0.179 C
HETATM   20  C16 UNL     1      74.094  88.024 112.194  1.00  0.00     0.180 C
HETATM   21  C17 UNL     1      74.941  89.190 112.542  1.00  0.00     0.182 C
HETATM   22  C18 UNL     1      75.593  89.138 113.911  1.00  0.00     0.197 C
BRANCH  19  23
HETATM   23  C15 UNL     1      73.609  85.682 112.641  1.00  0.00     0.198 C
BRANCH  23  24
HETATM   24  O4  UNL     1      72.380  86.372 112.599  1.00  0.00    -0.398 OA
ATOM     25  H4  UNL     1      71.957  86.124 111.785  1.00  0.00     0.209 HD
ENDBRANCH  23  24
ENDBRANCH  19  23
BRANCH  20  26
HETATM   26  O5  UNL     1      74.049  87.907 110.785  1.00  0.00    -0.390 OA
ATOM     27  H5  UNL     1      73.471  88.597 110.479  1.00  0.00     0.210 HD
ENDBRANCH  20  26
BRANCH  21  28
HETATM   28  O6  UNL     1      75.921  89.422 111.579  1.00  0.00    -0.390 OA
ATOM     29  H6  UNL     1      76.057  88.662 111.024  1.00  0.00     0.210 HD
ENDBRANCH  21  28
BRANCH  22  30
HETATM   30  O7  UNL     1      76.547  90.170 113.878  1.00  0.00    -0.389 OA
ATOM     31  H7  UNL     1      76.960  90.350 114.714  1.00  0.00     0.210 HD
ENDBRANCH  22  30
ENDBRANCH  15  17
ENDBRANCH  14  15
ENDBRANCH  13  14
BRANCH   1  32
HETATM   32  C2  UNL     1      73.130  88.467 116.330  1.00  0.00     0.153 A
HETATM   33  N2  UNL     1      72.449  87.411 115.804  1.00  0.00    -0.280 N
HETATM   34  N1  UNL     1      71.661  87.865 114.857  1.00  0.00    -0.250 N
ATOM     35  H2  UNL     1      72.536  86.438 116.094  1.00  0.00     0.189 HD
HETATM   36  C1  UNL     1      71.797  89.196 114.737  1.00  0.00     0.340 A
ATOM     37  H1  UNL     1      71.035  87.290 114.293  1.00  0.00     0.192 HD
HETATM   38  O1  UNL     1      71.235  90.006 113.963  1.00  0.00    -0.245 OA
HETATM   39  N10 UNL     1      72.720  89.550 115.668  1.00  0.00    -0.290 N
ATOM     40  H10 UNL     1      73.051  90.500 115.835  1.00  0.00     0.172 HD
ENDBRANCH   1  32
BRANCH   9  41
HETATM   41  N6  UNL     1      78.507  87.262 121.118  1.00  0.00    -0.214 N
HETATM   42  C6  UNL     1      79.172  86.062 120.699  1.00  0.00     0.160 C
HETATM   43  C7  UNL     1      79.637  85.303 121.922  1.00  0.00     0.134 C
HETATM   44  N7  UNL     1      79.047  85.731 123.142  1.00  0.00    -0.418 N
HETATM   45  C8  UNL     1      79.109  87.123 123.416  1.00  0.00     0.134 C
ATOM     46  H7  UNL     1      78.603  85.074 123.785  1.00  0.00     0.153 HD
HETATM   47  C9  UNL     1      79.113  88.011 122.220  1.00  0.00     0.160 C
ENDBRANCH   9  41
TORSDOF 10
ENDMDL