MODEL 1
REMARK VINA RESULT: -7.684598011      0.000      0.000
REMARK  11 active torsions:
REMARK  status: ('A' for Active; 'I' for Inactive)
REMARK    1  A    between atoms: N1_1  and  C1_4
REMARK    2  A    between atoms: C2_7  and  C3_8
REMARK       I    between atoms: C3_8  and  N3_10
REMARK    3  A    between atoms: C4_12  and  C5_13
REMARK    4  A    between atoms: C5_13  and  N5_14
REMARK    5  A    between atoms: C6_19  and  N6_20
REMARK    6  A    between atoms: C9_26  and  N9_27
REMARK    7  A    between atoms: C12_36  and  N12_37
REMARK       I    between atoms: N12_37  and  C13_39
REMARK    8  A    between atoms: C13_39  and  C14_41
REMARK    9  A    between atoms: C14_41  and  N13_42
REMARK   10  A    between atoms: C14_41  and  C15_46
REMARK   11  A    between atoms: C15_46  and  N14_47
ROOT
HETATM    1  C3  UNL     1      73.264  85.412 112.454  1.00  0.00     0.288 C
HETATM    2  O1  UNL     1      72.778  85.874 111.354  1.00  0.00    -0.264 OA
HETATM    3  N3  UNL     1      74.229  86.215 113.055  1.00  0.00    -0.229 N
HETATM    4  N4  UNL     1      74.873  85.845 114.253  1.00  0.00    -0.100 NA
HETATM    5  C4  UNL     1      76.254  85.604 113.787  1.00  0.00     0.262 C
HETATM    6  O2  UNL     1      76.798  86.700 113.228  1.00  0.00    -0.337 OA
HETATM    7  C6  UNL     1      75.990  87.844 113.134  1.00  0.00     0.278 C
HETATM    8  C12 UNL     1      74.677  87.486 112.523  1.00  0.00     0.258 C
ENDROOT
BRANCH   7   9
HETATM    9  N6  UNL     1      76.693  88.937 112.542  1.00  0.00    -0.273 N
HETATM   10  C7  UNL     1      76.686  90.234 112.810  1.00  0.00     0.199 A
HETATM   11  N7  UNL     1      75.977  90.981 113.771  1.00  0.00    -0.063 NA
HETATM   12  N8  UNL     1      77.535  90.902 111.955  1.00  0.00    -0.324 N
HETATM   13  C8  UNL     1      78.078  90.011 111.144  1.00  0.00     0.123 A
ATOM     14  H8  UNL     1      77.713  91.906 111.950  1.00  0.00     0.169 HD
HETATM   15  C9  UNL     1      78.987  90.156 110.117  1.00  0.00     0.131 A
HETATM   16  C11 UNL     1      77.560  88.775 111.501  1.00  0.00     0.144 A
HETATM   17  N10 UNL     1      79.379  89.066 109.448  1.00  0.00    -0.337 N
HETATM   18  C10 UNL     1      78.885  87.854 109.784  1.00  0.00     0.183 A
ATOM     19  H10 UNL     1      80.051  89.150 108.685  1.00  0.00     0.168 HD
HETATM   20  N11 UNL     1      77.998  87.731 110.787  1.00  0.00    -0.336 N
ATOM     21  H11 UNL     1      77.644  86.802 111.013  1.00  0.00     0.168 HD
BRANCH  15  22
HETATM   22  N9  UNL     1      79.456  91.298 109.764  1.00  0.00    -0.383 N
ATOM     23  H92 UNL     1      80.465  91.404 109.664  1.00  0.00     0.157 HD
ATOM     24  H91 UNL     1      78.858  92.099 109.563  1.00  0.00     0.157 HD
ENDBRANCH  15  22
ENDBRANCH   7   9
BRANCH   8  25
HETATM   25  N12 UNL     1      73.626  88.429 112.641  1.00  0.00    -0.333 N
HETATM   26  C13 UNL     1      73.076  89.070 113.752  1.00  0.00     0.251 C
HETATM   27  O3  UNL     1      73.409  88.917 114.956  1.00  0.00    -0.271 OA
ATOM     28  H12 UNL     1      73.193  88.685 111.754  1.00  0.00     0.164 HD
BRANCH  26  29
HETATM   29  C14 UNL     1      71.963  90.074 113.566  1.00  0.00     0.299 C
BRANCH  29  30
HETATM   30  N13 UNL     1      71.221  89.681 112.373  1.00  0.00    -0.065 N
ATOM     31 3H13 UNL     1      70.408  90.271 112.195  1.00  0.00     0.275 HD
ATOM     32 2H13 UNL     1      71.721  89.883 111.507  1.00  0.00     0.275 HD
ATOM     33 1H13 UNL     1      70.984  88.695 112.476  1.00  0.00     0.275 HD
ENDBRANCH  29  30
BRANCH  29  34
HETATM   34  C15 UNL     1      71.000  89.958 114.740  1.00  0.00     0.272 C
BRANCH  34  35
HETATM   35  N14 UNL     1      70.540  91.245 115.148  1.00  0.00    -0.077 N
ATOM     36 3H14 UNL     1      71.151  91.988 114.810  1.00  0.00     0.274 HD
ATOM     37 2H14 UNL     1      69.686  91.512 114.659  1.00  0.00     0.274 HD
ATOM     38 1H14 UNL     1      70.422  91.284 116.160  1.00  0.00     0.274 HD
ENDBRANCH  34  35
ENDBRANCH  29  34
ENDBRANCH  26  29
ENDBRANCH   8  25
BRANCH   5  39
HETATM   39  C5  UNL     1      77.075  85.065 114.921  1.00  0.00     0.280 C
BRANCH  39  40
HETATM   40  N5  UNL     1      76.436  85.321 116.204  1.00  0.00    -0.076 N
ATOM     41  H53 UNL     1      76.203  86.307 116.317  1.00  0.00     0.274 HD
ATOM     42  H52 UNL     1      75.493  84.933 116.238  1.00  0.00     0.274 HD
ATOM     43  H51 UNL     1      77.008  84.981 116.977  1.00  0.00     0.274 HD
ENDBRANCH  39  40
ENDBRANCH   5  39
BRANCH   1  44
HETATM   44  C2  UNL     1      72.709  84.139 112.866  1.00  0.00     0.123 A
HETATM   45  N2  UNL     1      72.436  83.913 114.191  1.00  0.00    -0.186 N
HETATM   46  C1  UNL     1      71.939  82.768 114.660  1.00  0.00     0.679 A
ATOM     47  H2  UNL     1      72.623  84.664 114.856  1.00  0.00     0.184 HD
HETATM   48  N15 UNL     1      71.686  81.761 113.790  1.00  0.00    -0.156 N
HETATM   49  C17 UNL     1      71.929  81.913 112.492  1.00  0.00     0.261 A
ATOM     50  H15 UNL     1      71.306  80.878 114.134  1.00  0.00     0.187 HD
HETATM   51  C16 UNL     1      72.442  83.101 112.005  1.00  0.00     0.110 A
HETATM   52  O4  UNL     1      71.693  80.972 111.671  1.00  0.00    -0.268 OA
BRANCH  46  53
HETATM   53  N1  UNL     1      71.699  82.628 115.938  1.00  0.00    -0.234 N
ATOM     54  H12 UNL     1      71.659  83.439 116.555  1.00  0.00     0.174 HD
ATOM     55  H11 UNL     1      71.552  81.701 116.334  1.00  0.00     0.174 HD
ENDBRANCH  46  53
ENDBRANCH   1  44
TORSDOF 11
ENDMDL