MODEL 5
REMARK VINA RESULT: -7.032795635      2.124      2.957
REMARK  12 active torsions:
REMARK  status: ('A' for Active; 'I' for Inactive)
REMARK    1  A    between atoms: C3_3  and  C4_4
REMARK    2  A    between atoms: N2_7  and  C5_8
REMARK    3  A    between atoms: C5_8  and  O2_9
REMARK    4  A    between atoms: O2_9  and  C6_10
REMARK    5  A    between atoms: N3_15  and  N4_16
REMARK    6  A    between atoms: N4_16  and  C9_18
REMARK    7  A    between atoms: C9_18  and  C10_19
REMARK    8  A    between atoms: C11_21  and  O5_22
REMARK    9  A    between atoms: C11_21  and  O6_24
REMARK   10  A    between atoms: C12_26  and  O7_27
REMARK   11  A    between atoms: C15_37  and  N7_38
REMARK   12  A    between atoms: C15_37  and  N8_42
ROOT
HETATM    1  C10 UNL     1      75.486  88.723 117.687  1.00  0.00     0.173 C
HETATM    2  O4  UNL     1      75.806  89.772 116.829  1.00  0.00    -0.321 OA
HETATM    3  C11 UNL     1      76.307  89.172 115.688  1.00  0.00     0.319 C
HETATM    4  C12 UNL     1      75.676  87.800 115.569  1.00  0.00     0.235 C
HETATM    5  C13 UNL     1      74.756  87.774 116.727  1.00  0.00     0.162 C
HETATM    6  N5  UNL     1      73.417  88.236 116.507  1.00  0.00    -0.360 N
ATOM      7  H5  UNL     1      72.717  87.986 117.206  1.00  0.00     0.162 HD
HETATM    8  C14 UNL     1      72.985  89.005 115.408  1.00  0.00     0.138 C
HETATM    9  N6  UNL     1      72.001  89.807 115.487  1.00  0.00    -0.380 N
ATOM     10  H61 UNL     1      71.688  90.364 114.691  1.00  0.00     0.158 HD
ATOM     11  H62 UNL     1      71.494  89.909 116.365  1.00  0.00     0.158 HD
HETATM   12  S2  UNL     1      73.869  88.827 113.876  1.00  0.00    -0.023 SA
HETATM   13  C15 UNL     1      75.104  87.511 114.231  1.00  0.00     0.378 C
ENDROOT
BRANCH   1  14
HETATM   14  C9  UNL     1      74.559  89.153 118.809  1.00  0.00     0.174 C
BRANCH  14  15
HETATM   15  N4  UNL     1      74.589  88.203 119.863  1.00  0.00    -0.329 N
ATOM     16  H4  UNL     1      73.830  87.536 119.999  1.00  0.00     0.180 HD
BRANCH  15  17
HETATM   17  N3  UNL     1      75.692  88.220 120.701  1.00  0.00    -0.255 N
HETATM   18  C2  UNL     1      75.937  89.341 121.600  1.00  0.00     0.064 C
HETATM   19  C1  UNL     1      75.110  90.286 121.941  1.00  0.00     0.043 C
HETATM   20  C3  UNL     1      77.343  89.104 121.998  1.00  0.00     0.368 C
HETATM   21  N2  UNL     1      77.257  87.678 122.264  1.00  0.00     0.166 N
HETATM   22  C8  UNL     1      76.783  87.279 120.896  1.00  0.00     0.421 C
HETATM   23  S1  UNL     1      76.281  85.566 121.003  1.00  0.00    -0.035 SA
BRANCH  20  24
HETATM   24  C4  UNL     1      77.902  89.940 123.016  1.00  0.00     0.271 C
HETATM   25  N1  UNL     1      79.282  89.964 123.309  1.00  0.00    -0.060 NA
HETATM   26  O1  UNL     1      77.148  90.692 123.683  1.00  0.00    -0.274 OA
ENDBRANCH  20  24
BRANCH  21  27
HETATM   27  C5  UNL     1      76.149  87.294 123.097  1.00  0.00     0.456 C
BRANCH  27  28
HETATM   28  O2  UNL     1      76.449  86.691 124.303  1.00  0.00    -0.291 OA
BRANCH  28  29
HETATM   29  C6  UNL     1      77.474  87.061 125.130  1.00  0.00     0.256 C
HETATM   30  C7  UNL     1      78.812  86.378 125.120  1.00  0.00     0.126 C
HETATM   31  O3  UNL     1      77.304  88.004 125.929  1.00  0.00    -0.266 OA
ENDBRANCH  28  29
ENDBRANCH  27  28
ENDBRANCH  21  27
ENDBRANCH  15  17
ENDBRANCH  14  15
ENDBRANCH   1  14
BRANCH   3  32
HETATM   32  O5  UNL     1      77.701  89.085 115.857  1.00  0.00    -0.341 OA
ATOM     33  H5  UNL     1      77.932  89.709 116.534  1.00  0.00     0.215 HD
ENDBRANCH   3  32
BRANCH   3  34
HETATM   34  O6  UNL     1      76.105  89.947 114.548  1.00  0.00    -0.341 OA
ATOM     35  H6  UNL     1      75.891  89.421 113.786  1.00  0.00     0.215 HD
ENDBRANCH   3  34
BRANCH   4  36
HETATM   36  O7  UNL     1      76.707  86.854 115.786  1.00  0.00    -0.376 OA
ATOM     37  H7  UNL     1      76.335  86.159 116.318  1.00  0.00     0.211 HD
ENDBRANCH   4  36
BRANCH  13  38
HETATM   38  N7  UNL     1      74.399  86.257 114.284  1.00  0.00    -0.032 N
ATOM     39  H73 UNL     1      74.846  85.535 113.719  1.00  0.00     0.278 HD
ATOM     40  H72 UNL     1      74.484  85.801 115.193  1.00  0.00     0.278 HD
ATOM     41  H71 UNL     1      73.427  86.413 114.018  1.00  0.00     0.278 HD
ENDBRANCH  13  38
BRANCH  13  42
HETATM   42  N8  UNL     1      76.157  87.528 113.254  1.00  0.00    -0.032 N
ATOM     43  H83 UNL     1      76.150  88.379 112.692  1.00  0.00     0.278 HD
ATOM     44  H82 UNL     1      77.077  87.643 113.679  1.00  0.00     0.278 HD
ATOM     45  H81 UNL     1      76.098  86.685 112.683  1.00  0.00     0.278 HD
ENDBRANCH  13  42
TORSDOF 12
ENDMDL