MODEL 1
REMARK VINA RESULT: -8.872190109      0.000      0.000
REMARK  11 active torsions:
REMARK  status: ('A' for Active; 'I' for Inactive)
REMARK    1  A    between atoms: N1_1  and  C1_4
REMARK    2  A    between atoms: C3_8  and  C4_9
REMARK    3  A    between atoms: C5_14  and  N5_15
REMARK    4  A    between atoms: N5_15  and  C6_17
REMARK    5  A    between atoms: C9_25  and  N8_26
REMARK    6  A    between atoms: C11_28  and  N9_29
REMARK    7  A    between atoms: C12_33  and  C13_34
REMARK    8  A    between atoms: C13_34  and  O3_35
REMARK    9  A    between atoms: C13_34  and  C14_37
REMARK   10  A    between atoms: C14_37  and  O4_38
REMARK   11  A    between atoms: C14_37  and  C15_40
ROOT
HETATM    1  C6  UNL     1      74.073  88.182 117.864  1.00  0.00     0.688 A
HETATM    2  N6  UNL     1      75.203  87.476 117.857  1.00  0.00    -0.154 N
ATOM      3  H6  UNL     1      75.398  86.838 117.085  1.00  0.00     0.187 HD
HETATM    4  C7  UNL     1      76.100  87.604 118.881  1.00  0.00     0.290 A
HETATM    5  O2  UNL     1      77.153  86.921 118.832  1.00  0.00    -0.265 OA
HETATM    6  C8  UNL     1      75.872  88.459 119.948  1.00  0.00     0.148 A
HETATM    7  N7  UNL     1      76.768  88.576 120.971  1.00  0.00    -0.333 N
ATOM      8  H7  UNL     1      77.631  88.034 120.963  1.00  0.00     0.168 HD
HETATM    9  C9  UNL     1      76.500  89.420 122.000  1.00  0.00     0.135 A
HETATM   10  C16 UNL     1      75.325  90.132 121.972  1.00  0.00     0.139 A
HETATM   11  N11 UNL     1      74.448  90.012 120.963  1.00  0.00    -0.346 N
ATOM     12  H11 UNL     1      73.586  90.556 120.977  1.00  0.00     0.167 HD
HETATM   13  C17 UNL     1      74.695  89.178 119.931  1.00  0.00     0.153 A
HETATM   14  N12 UNL     1      73.833  89.039 118.923  1.00  0.00    -0.174 N
ATOM     15  H12 UNL     1      72.970  89.583 118.932  1.00  0.00     0.186 HD
ENDROOT
BRANCH   9  16
HETATM   16  N8  UNL     1      77.425  89.562 123.095  1.00  0.00    -0.277 N
HETATM   17  C10 UNL     1      78.855  89.750 122.993  1.00  0.00     0.181 C
HETATM   18  C11 UNL     1      79.355  89.638 124.413  1.00  0.00     0.226 C
HETATM   19  C12 UNL     1      78.167  89.313 125.260  1.00  0.00     0.163 C
HETATM   20  N10 UNL     1      77.030  89.532 124.424  1.00  0.00    -0.127 NA
BRANCH  18  21
HETATM   21  N9  UNL     1      79.899  90.899 124.822  1.00  0.00    -0.072 N
ATOM     22  H93 UNL     1      80.650  91.215 124.208  1.00  0.00     0.274 HD
ATOM     23  H92 UNL     1      79.250  91.670 124.665  1.00  0.00     0.274 HD
ATOM     24  H91 UNL     1      80.196  90.835 125.796  1.00  0.00     0.274 HD
ENDBRANCH  18  21
BRANCH  19  25
HETATM   25  C13 UNL     1      78.158  87.882 125.744  1.00  0.00     0.180 C
BRANCH  25  26
HETATM   26  O3  UNL     1      76.896  87.410 125.986  1.00  0.00    -0.391 OA
ATOM     27  H3  UNL     1      76.702  87.332 126.913  1.00  0.00     0.210 HD
ENDBRANCH  25  26
BRANCH  25  28
HETATM   28  C14 UNL     1      78.998  86.952 124.905  1.00  0.00     0.249 C
BRANCH  28  29
HETATM   29  O4  UNL     1      80.073  86.406 125.605  1.00  0.00    -0.382 OA
ATOM     30  H4  UNL     1      80.651  85.890 125.056  1.00  0.00     0.210 HD
ENDBRANCH  28  29
BRANCH  28  31
HETATM   31  C15 UNL     1      78.157  85.903 124.294  1.00  0.00     0.205 C
HETATM   32  O5  UNL     1      78.115  84.774 124.814  1.00  0.00    -0.646 OA
HETATM   33  O6  UNL     1      77.435  86.185 123.152  1.00  0.00    -0.646 OA
ENDBRANCH  28  31
ENDBRANCH  25  28
ENDBRANCH  19  25
ENDBRANCH   9  16
BRANCH   1  34
HETATM   34  N5  UNL     1      73.200  88.109 116.948  1.00  0.00    -0.172 N
ATOM     35  H5  UNL     1      72.296  87.737 117.240  1.00  0.00     0.186 HD
BRANCH  34  36
HETATM   36  C5  UNL     1      73.290  88.465 115.592  1.00  0.00     0.165 A
HETATM   37  C1  UNL     1      72.288  88.136 114.715  1.00  0.00     0.144 A
HETATM   38  N2  UNL     1      72.455  88.491 113.423  1.00  0.00    -0.347 N
HETATM   39  C2  UNL     1      73.535  89.136 112.979  1.00  0.00     0.124 A
ATOM     40  H2  UNL     1      71.721  88.255 112.754  1.00  0.00     0.167 HD
HETATM   41  C3  UNL     1      74.575  89.483 113.865  1.00  0.00     0.115 A
HETATM   42  N4  UNL     1      74.400  89.128 115.136  1.00  0.00    -0.334 N
ATOM     43  H4  UNL     1      75.131  89.362 115.808  1.00  0.00     0.168 HD
BRANCH  37  44
HETATM   44  N1  UNL     1      71.205  87.486 115.082  1.00  0.00    -0.382 N
ATOM     45  H12 UNL     1      70.282  87.691 114.701  1.00  0.00     0.157 HD
ATOM     46  H11 UNL     1      71.267  86.751 115.788  1.00  0.00     0.157 HD
ENDBRANCH  37  44
BRANCH  41  47
HETATM   47  C4  UNL     1      75.759  90.170 113.375  1.00  0.00     0.282 C
HETATM   48  N3  UNL     1      75.872  91.571 113.581  1.00  0.00    -0.056 NA
HETATM   49  O1  UNL     1      76.683  89.585 112.779  1.00  0.00    -0.269 OA
ENDBRANCH  41  47
ENDBRANCH  34  36
ENDBRANCH   1  34
TORSDOF 11
ENDMDL