MODEL 3
REMARK VINA RESULT: -7.028996189      1.344      1.639
REMARK  14 active torsions:
REMARK  status: ('A' for Active; 'I' for Inactive)
REMARK    1  A    between atoms: N1_1  and  C1_4
REMARK    2  A    between atoms: C1_4  and  O1_6
REMARK    3  A    between atoms: O1_6  and  C2_7
REMARK    4  A    between atoms: C2_7  and  N3_8
REMARK    5  A    between atoms: C3_12  and  C4_13
REMARK    6  A    between atoms: C4_13  and  N4_14
REMARK    7  A    between atoms: C5_19  and  N5_20
REMARK       I    between atoms: N7_24  and  C7_26
REMARK    8  A    between atoms: C7_26  and  C8_28
REMARK    9  A    between atoms: C8_28  and  N8_29
REMARK   10  A    between atoms: C8_28  and  C9_33
REMARK   11  A    between atoms: C9_33  and  C10_34
REMARK   12  A    between atoms: C14_42  and  N11_43
REMARK   13  A    between atoms: C17_52  and  O4_53
REMARK   14  A    between atoms: C18_55  and  O5_56
ROOT
HETATM    1  N5  UNL     1      75.845  87.004 117.556  1.00  0.00    -0.241 N
HETATM    2  N6  UNL     1      75.792  87.471 118.783  1.00  0.00    -0.278 N
ATOM      3  H6  UNL     1      75.311  88.331 119.044  1.00  0.00     0.189 HD
HETATM    4  C6  UNL     1      76.441  86.687 119.646  1.00  0.00     0.140 A
HETATM    5  N7  UNL     1      76.615  86.790 120.904  1.00  0.00    -0.309 N
ATOM      6  H7  UNL     1      77.156  86.056 121.361  1.00  0.00     0.170 HD
HETATM    7  C7  UNL     1      76.126  87.835 121.722  1.00  0.00     0.254 C
HETATM    8  O3  UNL     1      75.014  88.374 121.502  1.00  0.00    -0.271 OA
HETATM    9  C13 UNL     1      76.960  85.616 118.908  1.00  0.00     0.099 A
HETATM   10  C14 UNL     1      77.709  84.512 119.260  1.00  0.00     0.117 A
HETATM   11  N12 UNL     1      78.044  83.655 118.246  1.00  0.00    -0.338 N
ATOM     12  H12 UNL     1      78.598  82.824 118.452  1.00  0.00     0.168 HD
HETATM   13  C15 UNL     1      77.656  83.893 116.987  1.00  0.00     0.183 A
HETATM   14  N13 UNL     1      76.928  84.968 116.650  1.00  0.00    -0.336 N
ATOM     15  H13 UNL     1      76.651  85.116 115.680  1.00  0.00     0.168 HD
HETATM   16  C16 UNL     1      76.561  85.861 117.609  1.00  0.00     0.143 A
ENDROOT
BRANCH   1  17
HETATM   17  C5  UNL     1      75.291  87.520 116.319  1.00  0.00     0.278 C
HETATM   18  O2  UNL     1      74.026  87.969 116.559  1.00  0.00    -0.350 OA
HETATM   19  C3  UNL     1      73.297  88.293 115.443  1.00  0.00     0.216 C
HETATM   20  C2  UNL     1      74.151  88.873 114.305  1.00  0.00     0.287 C
HETATM   21  C18 UNL     1      75.279  89.583 115.005  1.00  0.00     0.217 C
HETATM   22  C17 UNL     1      76.151  88.529 115.650  1.00  0.00     0.202 C
BRANCH  19  23
HETATM   23  C4  UNL     1      72.357  87.239 114.982  1.00  0.00     0.266 C
BRANCH  23  24
HETATM   24  N4  UNL     1      70.976  87.520 115.110  1.00  0.00    -0.077 N
ATOM     25  H43 UNL     1      70.730  87.585 116.098  1.00  0.00     0.274 HD
ATOM     26  H42 UNL     1      70.791  88.477 114.809  1.00  0.00     0.274 HD
ATOM     27  H41 UNL     1      70.333  86.883 114.639  1.00  0.00     0.274 HD
ENDBRANCH  23  24
ENDBRANCH  19  23
BRANCH  20  28
HETATM   28  O1  UNL     1      74.623  87.912 113.468  1.00  0.00    -0.280 OA
BRANCH  28  29
HETATM   29  C1  UNL     1      74.861  87.933 112.139  1.00  0.00     0.227 C
HETATM   30  N2  UNL     1      75.960  88.747 111.617  1.00  0.00    -0.057 NA
BRANCH  29  31
HETATM   31  N1  UNL     1      74.151  87.262 111.345  1.00  0.00    -0.368 N
ATOM     32  H12 UNL     1      74.555  86.505 110.793  1.00  0.00     0.159 HD
ATOM     33  H11 UNL     1      73.159  87.479 111.248  1.00  0.00     0.159 HD
ENDBRANCH  29  31
ENDBRANCH  28  29
ENDBRANCH  20  28
BRANCH  20  34
HETATM   34  N3  UNL     1      73.359  89.877 113.597  1.00  0.00    -0.041 N
ATOM     35  H33 UNL     1      73.765  90.807 113.698  1.00  0.00     0.278 HD
ATOM     36  H32 UNL     1      73.447  89.772 112.586  1.00  0.00     0.278 HD
ATOM     37  H31 UNL     1      72.381  89.866 113.885  1.00  0.00     0.278 HD
ENDBRANCH  20  34
BRANCH  21  38
HETATM   38  O5  UNL     1      76.024  90.421 114.193  1.00  0.00    -0.388 OA
ATOM     39  H5  UNL     1      75.766  90.417 113.278  1.00  0.00     0.210 HD
ENDBRANCH  21  38
BRANCH  22  40
HETATM   40  O4  UNL     1      77.094  89.103 116.508  1.00  0.00    -0.388 OA
ATOM     41  H4  UNL     1      77.940  88.672 116.474  1.00  0.00     0.210 HD
ENDBRANCH  22  40
ENDBRANCH   1  17
BRANCH  10  42
HETATM   42  N11 UNL     1      78.084  84.276 120.453  1.00  0.00    -0.385 N
ATOM     43 2H11 UNL     1      78.893  84.758 120.843  1.00  0.00     0.157 HD
ATOM     44 1H11 UNL     1      77.611  83.612 121.067  1.00  0.00     0.157 HD
ENDBRANCH  10  42
BRANCH   7  45
HETATM   45  C8  UNL     1      76.919  88.314 122.863  1.00  0.00     0.280 C
BRANCH  45  46
HETATM   46  N8  UNL     1      76.235  88.096 124.132  1.00  0.00    -0.066 N
ATOM     47  H83 UNL     1      76.413  87.158 124.492  1.00  0.00     0.275 HD
ATOM     48  H82 UNL     1      76.661  88.639 124.882  1.00  0.00     0.275 HD
ATOM     49  H81 UNL     1      75.234  88.281 124.061  1.00  0.00     0.275 HD
ENDBRANCH  45  46
BRANCH  45  50
HETATM   50  C9  UNL     1      77.215  89.798 122.796  1.00  0.00     0.101 C
BRANCH  50  51
HETATM   51  C10 UNL     1      78.617  89.961 123.260  1.00  0.00     0.028 A
HETATM   52  C11 UNL     1      79.614  89.020 123.400  1.00  0.00     0.114 A
HETATM   53  N9  UNL     1      80.723  89.641 123.855  1.00  0.00    -0.360 N
HETATM   54  C12 UNL     1      80.457  90.929 124.003  1.00  0.00     0.180 A
ATOM     55  H9  UNL     1      81.617  89.193 124.051  1.00  0.00     0.166 HD
HETATM   56  N10 UNL     1      79.189  91.136 123.648  1.00  0.00    -0.355 N
ATOM     57  H10 UNL     1      78.717  92.041 123.664  1.00  0.00     0.166 HD
ENDBRANCH  50  51
ENDBRANCH  45  50
ENDBRANCH   7  45
TORSDOF 14
ENDMDL