MODEL 3
REMARK VINA RESULT: -7.341235295      5.657     10.532
REMARK  14 active torsions:
REMARK  status: ('A' for Active; 'I' for Inactive)
REMARK       I    between atoms: C1_4  and  N2_5
REMARK       I    between atoms: C1_4  and  N5_18
REMARK    1  A    between atoms: N2_5  and  C2_7
REMARK    2  A    between atoms: N5_18  and  C6_20
REMARK    3  A    between atoms: C6_20  and  C7_21
REMARK    4  A    between atoms: C7_21  and  O1_22
REMARK    5  A    between atoms: O1_22  and  C8_23
REMARK    6  A    between atoms: C8_23  and  C9_24
REMARK    7  A    between atoms: C9_24  and  O2_25
REMARK    8  A    between atoms: O2_25  and  C10_26
REMARK    9  A    between atoms: C10_26  and  C11_27
REMARK   10  A    between atoms: C11_27  and  O3_28
REMARK   11  A    between atoms: O3_28  and  C12_29
REMARK   12  A    between atoms: C12_29  and  C13_30
REMARK   13  A    between atoms: C13_30  and  C14_31
REMARK   14  A    between atoms: C16_36  and  N7_37
ROOT
HETATM    1  O1  UNL     1      69.289  19.284  29.264  1.00  0.00    -0.387 OA
ENDROOT
BRANCH   1   2
HETATM    2  C7  UNL     1      69.788  20.504  28.801  1.00  0.00     0.188 C
BRANCH   2   3
HETATM    3  C6  UNL     1      71.229  20.608  29.178  1.00  0.00     0.164 C
BRANCH   3   4
HETATM    4  N5  UNL     1      71.400  21.506  30.291  1.00  0.00    -0.224 N
HETATM    5  C1  UNL     1      71.985  22.790  30.210  1.00  0.00     0.686 C
HETATM    6  N1  UNL     1      72.200  23.429  31.331  1.00  0.00    -0.234 N
HETATM    7  N2  UNL     1      72.321  23.369  28.971  1.00  0.00    -0.023 N
ATOM      8  H12 UNL     1      72.623  24.356  31.272  1.00  0.00     0.174 HD
ATOM      9  H11 UNL     1      71.957  23.010  32.229  1.00  0.00     0.174 HD
ATOM     10  H2  UNL     1      71.601  23.770  28.370  1.00  0.00     0.203 HD
ATOM     11  H5  UNL     1      71.074  21.193  31.205  1.00  0.00     0.177 HD
BRANCH   7  12
HETATM   12  C2  UNL     1      73.582  23.380  28.607  1.00  0.00     0.699 A
HETATM   13  N3  UNL     1      74.094  24.543  28.118  1.00  0.00    -0.179 N
HETATM   14  C3  UNL     1      75.371  24.596  27.740  1.00  0.00     0.144 A
ATOM     15  H3  UNL     1      73.502  25.370  28.041  1.00  0.00     0.185 HD
HETATM   16 CL1  UNL     1      76.088  26.077  27.095  1.00  0.00    -0.062 Cl
HETATM   17  C4  UNL     1      76.215  23.509  27.823  1.00  0.00     0.112 A
HETATM   18 CL2  UNL     1      77.889  23.547  27.337  1.00  0.00    -0.077 Cl
HETATM   19  C5  UNL     1      75.675  22.343  28.322  1.00  0.00     0.144 A
HETATM   20 CL3  UNL     1      76.664  20.881  28.477  1.00  0.00    -0.062 Cl
HETATM   21  N4  UNL     1      74.384  22.315  28.696  1.00  0.00    -0.179 N
ATOM     22  H4  UNL     1      74.001  21.443  29.062  1.00  0.00     0.185 HD
ENDBRANCH   7  12
ENDBRANCH   3   4
ENDBRANCH   2   3
ENDBRANCH   1   2
BRANCH   1  23
HETATM   23  C8  UNL     1      68.398  19.652  30.311  1.00  0.00     0.193 C
BRANCH  23  24
HETATM   24  C9  UNL     1      67.916  18.390  30.934  1.00  0.00     0.193 C
BRANCH  24  25
HETATM   25  O2  UNL     1      66.547  18.223  30.916  1.00  0.00    -0.387 OA
BRANCH  25  26
HETATM   26  C10 UNL     1      66.132  17.521  32.008  1.00  0.00     0.193 C
BRANCH  26  27
HETATM   27  C11 UNL     1      64.880  16.718  31.843  1.00  0.00     0.193 C
BRANCH  27  28
HETATM   28  O3  UNL     1      65.001  15.403  31.586  1.00  0.00    -0.389 OA
BRANCH  28  29
HETATM   29  C12 UNL     1      66.185  14.820  31.365  1.00  0.00     0.172 C
BRANCH  29  30
HETATM   30  C13 UNL     1      66.285  14.235  29.983  1.00  0.00     0.073 C
BRANCH  30  31
HETATM   31  C14 UNL     1      66.840  15.206  29.019  1.00  0.00     0.047 A
HETATM   32  C15 UNL     1      66.076  15.981  28.200  1.00  0.00     0.109 A
HETATM   33  S1  UNL     1      64.314  15.801  28.168  1.00  0.00    -0.032 SA
HETATM   34  N6  UNL     1      66.677  16.867  27.373  1.00  0.00    -0.184 N
HETATM   35  C16 UNL     1      68.013  16.973  27.367  1.00  0.00     0.679 A
ATOM     36  H6  UNL     1      66.115  17.452  26.755  1.00  0.00     0.185 HD
HETATM   37  N8  UNL     1      68.785  16.219  28.164  1.00  0.00    -0.156 N
HETATM   38  C17 UNL     1      68.228  15.348  28.983  1.00  0.00     0.268 A
ATOM     39  H8  UNL     1      69.799  16.320  28.137  1.00  0.00     0.187 HD
HETATM   40  O4  UNL     1      68.935  14.641  29.730  1.00  0.00    -0.267 OA
BRANCH  35  41
HETATM   41  N7  UNL     1      68.588  17.813  26.579  1.00  0.00    -0.234 N
ATOM     42  H72 UNL     1      69.341  18.390  26.954  1.00  0.00     0.174 HD
ATOM     43  H71 UNL     1      68.289  17.886  25.608  1.00  0.00     0.174 HD
ENDBRANCH  35  41
ENDBRANCH  30  31
ENDBRANCH  29  30
ENDBRANCH  28  29
ENDBRANCH  27  28
ENDBRANCH  26  27
ENDBRANCH  25  26
ENDBRANCH  24  25
ENDBRANCH  23  24
ENDBRANCH   1  23
TORSDOF 14
ENDMDL