MODEL 4
REMARK VINA RESULT: -7.381560218      1.272      1.583
REMARK  19 active torsions:
REMARK  status: ('A' for Active; 'I' for Inactive)
REMARK       I    between atoms: C1_2  and  N4_24
REMARK    1  A    between atoms: N2_3  and  C2_5
REMARK    2  A    between atoms: C2_5  and  C3_6
REMARK    3  A    between atoms: C3_6  and  C4_7
REMARK    4  A    between atoms: C4_7  and  C5_8
REMARK    5  A    between atoms: C5_8  and  C6_9
REMARK    6  A    between atoms: C6_9  and  N3_10
REMARK    7  A    between atoms: N3_10  and  C7_11
REMARK    8  A    between atoms: N3_10  and  C9_14
REMARK    9  A    between atoms: C7_11  and  C8_12
REMARK   10  A    between atoms: C12_17  and  O1_18
REMARK   11  A    between atoms: C14_21  and  O2_22
REMARK   12  A    between atoms: N4_24  and  C15_26
REMARK   13  A    between atoms: C15_26  and  C16_27
REMARK   14  A    between atoms: C16_27  and  N5_28
REMARK   15  A    between atoms: C17_29  and  O3_30
REMARK   16  A    between atoms: C18_32  and  O4_33
REMARK   17  A    between atoms: C19_35  and  O5_36
REMARK   18  A    between atoms: C20_38  and  O6_39
REMARK   19  A    between atoms: C21_41  and  C22_42
ROOT
HETATM    1  N1  UNL     1      68.990  15.626  26.362  1.00  0.00    -0.064 NA
HETATM    2  C1  UNL     1      68.525  16.775  27.112  1.00  0.00     0.187 C
HETATM    3  N2  UNL     1      69.369  17.609  27.514  1.00  0.00    -0.344 N
ATOM      4  H2  UNL     1      70.307  17.327  27.231  1.00  0.00     0.167 HD
HETATM    5  N4  UNL     1      67.163  16.913  27.361  1.00  0.00    -0.363 N
ATOM      6  H4  UNL     1      66.766  17.816  27.100  1.00  0.00     0.162 HD
ENDROOT
BRANCH   3   7
HETATM    7  C2  UNL     1      69.416  18.798  28.225  1.00  0.00     0.063 C
BRANCH   7   8
HETATM    8  C3  UNL     1      70.697  19.552  28.299  1.00  0.00     0.045 C
BRANCH   8   9
HETATM    9  C4  UNL     1      70.381  20.850  29.124  1.00  0.00     0.010 C
BRANCH   9  10
HETATM   10  C5  UNL     1      70.984  21.996  28.400  1.00  0.00     0.045 C
BRANCH  10  11
HETATM   11  C6  UNL     1      72.431  22.135  28.410  1.00  0.00     0.069 C
BRANCH  11  12
HETATM   12  N3  UNL     1      73.224  22.951  29.213  1.00  0.00    -0.337 N
BRANCH  12  13
HETATM   13  C7  UNL     1      73.012  23.591  30.444  1.00  0.00     0.084 C
BRANCH  13  14
HETATM   14  C8  UNL     1      72.646  22.869  31.671  1.00  0.00     0.159 C
HETATM   15 CL1  UNL     1      73.617  21.328  31.709  1.00  0.00    -0.125 Cl
ENDBRANCH  13  14
ENDBRANCH  12  13
BRANCH  12  16
HETATM   16  C9  UNL     1      74.575  23.192  28.655  1.00  0.00     0.071 A
HETATM   17  C10 UNL     1      75.545  22.300  28.946  1.00  0.00     0.035 A
HETATM   18  C11 UNL     1      76.826  22.478  28.425  1.00  0.00     0.039 A
HETATM   19  C12 UNL     1      77.116  23.543  27.623  1.00  0.00     0.068 A
HETATM   20  C13 UNL     1      76.136  24.445  27.327  1.00  0.00     0.075 A
HETATM   21  C14 UNL     1      74.851  24.264  27.852  1.00  0.00     0.095 A
BRANCH  19  22
HETATM   22  O1  UNL     1      78.419  23.676  27.128  1.00  0.00    -0.361 OA
ATOM     23  H1  UNL     1      79.105  23.966  27.718  1.00  0.00     0.217 HD
ENDBRANCH  19  22
BRANCH  21  24
HETATM   24  O2  UNL     1      73.866  25.190  27.542  1.00  0.00    -0.358 OA
ATOM     25  H2  UNL     1      74.016  25.855  26.881  1.00  0.00     0.217 HD
ENDBRANCH  21  24
ENDBRANCH  12  16
ENDBRANCH  11  12
ENDBRANCH  10  11
ENDBRANCH   9  10
ENDBRANCH   8   9
ENDBRANCH   7   8
ENDBRANCH   3   7
BRANCH   5  26
HETATM   26  C15 UNL     1      66.227  15.981  27.927  1.00  0.00     0.152 C
BRANCH  26  27
HETATM   27  C16 UNL     1      66.908  15.155  28.970  1.00  0.00     0.296 C
BRANCH  27  28
HETATM   28  N5  UNL     1      66.407  15.334  30.320  1.00  0.00     0.134 N
HETATM   29  C17 UNL     1      67.055  14.343  31.155  1.00  0.00     0.389 C
HETATM   30  C18 UNL     1      68.484  14.581  31.450  1.00  0.00     0.208 C
HETATM   31  C19 UNL     1      68.683  15.920  32.070  1.00  0.00     0.182 C
HETATM   32  C20 UNL     1      67.988  16.983  31.304  1.00  0.00     0.188 C
HETATM   33  C21 UNL     1      66.628  16.668  30.773  1.00  0.00     0.321 C
BRANCH  29  34
HETATM   34  O3  UNL     1      66.957  13.134  30.451  1.00  0.00    -0.366 OA
ATOM     35  H3  UNL     1      67.401  12.488  30.988  1.00  0.00     0.212 HD
ENDBRANCH  29  34
BRANCH  30  36
HETATM   36  O4  UNL     1      69.365  14.300  30.406  1.00  0.00    -0.388 OA
ATOM     37  H4  UNL     1      69.891  15.033  30.109  1.00  0.00     0.210 HD
ENDBRANCH  30  36
BRANCH  31  38
HETATM   38  O5  UNL     1      68.232  15.883  33.382  1.00  0.00    -0.390 OA
ATOM     39  H5  UNL     1      67.331  15.582  33.391  1.00  0.00     0.210 HD
ENDBRANCH  31  38
BRANCH  32  40
HETATM   40  O6  UNL     1      67.830  18.161  32.081  1.00  0.00    -0.391 OA
ATOM     41  H6  UNL     1      67.975  18.942  31.559  1.00  0.00     0.210 HD
ENDBRANCH  32  40
BRANCH  33  42
HETATM   42  C22 UNL     1      65.529  17.127  31.740  1.00  0.00     0.389 C
HETATM   43  F1  UNL     1      64.919  18.276  31.227  1.00  0.00    -0.212 F
HETATM   44  F2  UNL     1      64.544  16.203  31.909  1.00  0.00    -0.212 F
ENDBRANCH  33  42
ENDBRANCH  27  28
ENDBRANCH  26  27
ENDBRANCH   5  26
TORSDOF 19
ENDMDL