MODEL 4
REMARK VINA RESULT: -7.695570056      6.170      8.360
REMARK  17 active torsions:
REMARK  status: ('A' for Active; 'I' for Inactive)
REMARK    1  A    between atoms: C2_2  and  C4_5
REMARK    2  A    between atoms: C4_5  and  N1_6
REMARK    3  A    between atoms: N1_6  and  C5_9
REMARK    4  A    between atoms: C5_9  and  C6_10
REMARK    5  A    between atoms: C6_10  and  N2_11
REMARK    6  A    between atoms: N2_11  and  C7_13
REMARK    7  A    between atoms: C7_13  and  C8_14
REMARK    8  A    between atoms: C8_14  and  N3_15
REMARK    9  A    between atoms: N3_15  and  C9_17
REMARK   10  A    between atoms: C13_22  and  O1_23
REMARK   11  A    between atoms: O1_23  and  C14_24
REMARK   12  A    between atoms: C15_26  and  C16_27
REMARK   13  A    between atoms: C16_27  and  O3_28
REMARK   14  A    between atoms: C17_30  and  O4_31
REMARK   15  A    between atoms: C18_33  and  O5_34
REMARK   16  A    between atoms: C19_36  and  O6_37
REMARK   17  A    between atoms: C24_44  and  N4_45
ROOT
HETATM    1  C9  UNL     1      73.609  21.676  31.195  1.00  0.00     0.072 A
HETATM    2  C10 UNL     1      72.278  21.831  30.819  1.00  0.00     0.074 A
HETATM    3  C11 UNL     1      71.915  22.241  29.568  1.00  0.00     0.121 A
HETATM    4  F1  UNL     1      70.615  22.397  29.187  1.00  0.00    -0.206 F
HETATM    5  C12 UNL     1      72.900  22.520  28.617  1.00  0.00     0.082 A
HETATM    6  C13 UNL     1      74.229  22.381  28.945  1.00  0.00     0.116 A
HETATM    7  C20 UNL     1      74.554  21.957  30.243  1.00  0.00     0.176 A
HETATM    8  F2  UNL     1      75.857  21.815  30.579  1.00  0.00    -0.201 F
ENDROOT
BRANCH   1   9
HETATM    9  N3  UNL     1      73.968  21.247  32.499  1.00  0.00    -0.385 N
ATOM     10  H3  UNL     1      74.819  20.697  32.614  1.00  0.00     0.159 HD
BRANCH   9  11
HETATM   11  C8  UNL     1      73.183  21.553  33.665  1.00  0.00     0.152 C
BRANCH  11  12
HETATM   12  C7  UNL     1      73.854  22.494  34.614  1.00  0.00     0.070 C
HETATM   13  C21 UNL     1      75.397  22.376  34.487  1.00  0.00     0.034 C
HETATM   14  C22 UNL     1      75.779  23.233  35.693  1.00  0.00     0.005 C
HETATM   15  C23 UNL     1      74.670  23.003  36.730  1.00  0.00     0.035 C
HETATM   16  C24 UNL     1      73.760  22.019  36.052  1.00  0.00     0.212 C
BRANCH  12  17
HETATM   17  N2  UNL     1      73.605  23.876  34.416  1.00  0.00    -0.408 N
ATOM     18  H2  UNL     1      74.297  24.576  34.685  1.00  0.00     0.154 HD
BRANCH  17  19
HETATM   19  C6  UNL     1      72.370  24.264  33.835  1.00  0.00     0.142 C
BRANCH  19  20
HETATM   20  C5  UNL     1      71.596  25.019  34.903  1.00  0.00     0.251 C
BRANCH  20  21
HETATM   21  N1  UNL     1      72.243  26.208  35.364  1.00  0.00    -0.072 N
ATOM     22  H12 UNL     1      73.179  26.008  35.715  1.00  0.00     0.277 HD
ATOM     23  H11 UNL     1      71.818  26.551  36.225  1.00  0.00     0.277 HD
BRANCH  21  24
HETATM   24  C4  UNL     1      72.271  27.222  34.361  1.00  0.00     0.257 C
BRANCH  24  25
HETATM   25  C2  UNL     1      73.496  28.112  34.467  1.00  0.00     0.053 C
HETATM   26  C1  UNL     1      73.555  28.580  35.925  1.00  0.00     0.034 C
HETATM   27  C3  UNL     1      74.743  27.260  34.244  1.00  0.00     0.034 C
HETATM   28 CL1  UNL     1      73.428  29.498  33.378  1.00  0.00    -0.118 Cl
ENDBRANCH  24  25
ENDBRANCH  21  24
ENDBRANCH  20  21
ENDBRANCH  19  20
ENDBRANCH  17  19
ENDBRANCH  12  17
BRANCH  16  29
HETATM   29  N4  UNL     1      72.447  21.917  36.574  1.00  0.00    -0.073 N
ATOM     30  H43 UNL     1      72.483  21.699  37.570  1.00  0.00     0.274 HD
ATOM     31  H42 UNL     1      72.012  22.838  36.607  1.00  0.00     0.274 HD
ATOM     32  H41 UNL     1      71.835  21.258  36.093  1.00  0.00     0.274 HD
ENDBRANCH  16  29
ENDBRANCH  11  12
ENDBRANCH   9  11
ENDBRANCH   1   9
BRANCH   6  33
HETATM   33  O1  UNL     1      75.285  22.628  28.089  1.00  0.00    -0.314 OA
BRANCH  33  34
HETATM   34  C14 UNL     1      75.924  23.840  27.904  1.00  0.00     0.298 C
HETATM   35  O2  UNL     1      76.059  24.162  26.552  1.00  0.00    -0.348 OA
HETATM   36  C15 UNL     1      76.391  25.478  26.389  1.00  0.00     0.179 C
HETATM   37  C17 UNL     1      76.932  26.147  27.610  1.00  0.00     0.180 C
HETATM   38  C18 UNL     1      77.798  25.277  28.461  1.00  0.00     0.183 C
HETATM   39  C19 UNL     1      77.366  23.820  28.441  1.00  0.00     0.205 C
BRANCH  36  40
HETATM   40  C16 UNL     1      75.161  26.239  25.938  1.00  0.00     0.198 C
BRANCH  40  41
HETATM   41  O3  UNL     1      75.467  27.403  25.265  1.00  0.00    -0.398 OA
ATOM     42  H3  UNL     1      75.933  28.031  25.805  1.00  0.00     0.209 HD
ENDBRANCH  40  41
ENDBRANCH  36  40
BRANCH  37  43
HETATM   43  O4  UNL     1      77.686  27.259  27.170  1.00  0.00    -0.390 OA
ATOM     44  H4  UNL     1      77.728  27.870  27.897  1.00  0.00     0.210 HD
ENDBRANCH  37  43
BRANCH  38  45
HETATM   45  O5  UNL     1      79.154  25.401  28.153  1.00  0.00    -0.390 OA
ATOM     46  H5  UNL     1      79.677  24.690  28.505  1.00  0.00     0.210 HD
ENDBRANCH  38  45
BRANCH  39  47
HETATM   47  O6  UNL     1      78.123  23.148  27.499  1.00  0.00    -0.388 OA
ATOM     48  H6  UNL     1      78.686  22.555  27.983  1.00  0.00     0.210 HD
ENDBRANCH  39  47
ENDBRANCH  33  34
ENDBRANCH   6  33
TORSDOF 17
ENDMDL