MODEL 1
REMARK VINA RESULT: -6.109219183      0.000      0.000
REMARK  20 active torsions:
REMARK  status: ('A' for Active; 'I' for Inactive)
REMARK    1  A    between atoms: C4_4  and  C5_5
REMARK    2  A    between atoms: C5_5  and  O1_6
REMARK    3  A    between atoms: C6_8  and  O2_9
REMARK    4  A    between atoms: N1_12  and  N2_13
REMARK    5  A    between atoms: C8_16  and  O3_17
REMARK    6  A    between atoms: C9_19  and  O4_20
REMARK    7  A    between atoms: C12_26  and  O5_27
REMARK    8  A    between atoms: C14_30  and  O6_31
REMARK    9  A    between atoms: C14_30  and  C15_33
REMARK   10  A    between atoms: C15_33  and  O8_35
REMARK   11  A    between atoms: O8_35  and  C16_36
REMARK   12  A    between atoms: C16_36  and  C17_37
REMARK   13  A    between atoms: C17_37  and  C18_38
REMARK   14  A    between atoms: C18_38  and  C19_39
REMARK   15  A    between atoms: C19_39  and  C20_40
REMARK   16  A    between atoms: C20_40  and  C21_41
REMARK   17  A    between atoms: C21_41  and  C22_42
REMARK   18  A    between atoms: C22_42  and  C23_43
REMARK   19  A    between atoms: C23_43  and  C24_44
REMARK   20  A    between atoms: C24_44  and  C25_45
ROOT
HETATM    1  C1  UNL     1      73.953  26.131  34.023  1.00  0.00     0.024 C
HETATM    2  C2  UNL     1      73.771  25.201  35.167  1.00  0.00     0.027 C
HETATM    3  C3  UNL     1      75.054  24.457  35.337  1.00  0.00    -0.003 C
HETATM    4  C4  UNL     1      75.840  24.486  36.400  1.00  0.00     0.002 C
HETATM    5  C8  UNL     1      75.437  25.318  37.556  1.00  0.00     0.180 C
HETATM    6  C9  UNL     1      74.498  26.450  37.194  1.00  0.00     0.162 C
HETATM    7  C10 UNL     1      73.368  25.841  36.449  1.00  0.00     0.107 C
HETATM    8  C11 UNL     1      72.154  26.715  36.289  1.00  0.00     0.276 C
HETATM    9  F1  UNL     1      71.710  27.047  37.555  1.00  0.00    -0.203 F
HETATM   10  F2  UNL     1      72.495  27.903  35.674  1.00  0.00    -0.203 F
HETATM   11  C12 UNL     1      71.066  26.033  35.507  1.00  0.00     0.194 C
HETATM   12  C13 UNL     1      71.318  24.584  35.263  1.00  0.00     0.087 C
HETATM   13  C14 UNL     1      72.676  24.186  34.831  1.00  0.00     0.159 C
ENDROOT
BRANCH  13  14
HETATM   14  O6  UNL     1      73.036  23.058  35.627  1.00  0.00    -0.378 OA
ATOM     15  H6  UNL     1      72.199  22.756  35.956  1.00  0.00     0.211 HD
ENDBRANCH  13  14
BRANCH  13  16
HETATM   16  C15 UNL     1      72.704  23.760  33.412  1.00  0.00     0.294 C
HETATM   17  O7  UNL     1      71.871  24.214  32.594  1.00  0.00    -0.262 OA
BRANCH  16  18
HETATM   18  O8  UNL     1      73.636  22.863  32.947  1.00  0.00    -0.319 OA
BRANCH  18  19
HETATM   19  C16 UNL     1      73.419  21.740  32.159  1.00  0.00     0.178 C
BRANCH  19  20
HETATM   20  C17 UNL     1      74.215  21.700  30.897  1.00  0.00     0.027 C
BRANCH  20  21
HETATM   21  C18 UNL     1      73.369  21.655  29.644  1.00  0.00     0.002 C
BRANCH  21  22
HETATM   22  C19 UNL     1      72.878  23.032  29.239  1.00  0.00     0.000 C
BRANCH  22  23
HETATM   23  C20 UNL     1      73.979  23.928  28.852  1.00  0.00     0.000 C
BRANCH  23  24
HETATM   24  C21 UNL     1      74.324  24.139  27.443  1.00  0.00     0.000 C
BRANCH  24  25
HETATM   25  C22 UNL     1      75.554  24.816  27.015  1.00  0.00     0.000 C
BRANCH  25  26
HETATM   26  C23 UNL     1      76.416  25.475  28.026  1.00  0.00     0.002 C
BRANCH  26  27
HETATM   27  C24 UNL     1      77.852  24.934  27.818  1.00  0.00     0.031 C
BRANCH  27  28
HETATM   28  C25 UNL     1      77.796  23.434  27.778  1.00  0.00     0.222 C
HETATM   29  F3  UNL     1      77.190  22.910  28.910  1.00  0.00    -0.255 F
ENDBRANCH  27  28
ENDBRANCH  26  27
ENDBRANCH  25  26
ENDBRANCH  24  25
ENDBRANCH  23  24
ENDBRANCH  22  23
ENDBRANCH  21  22
ENDBRANCH  20  21
ENDBRANCH  19  20
ENDBRANCH  18  19
ENDBRANCH  16  18
ENDBRANCH  13  16
BRANCH  11  30
HETATM   30  O5  UNL     1      69.893  26.107  36.287  1.00  0.00    -0.389 OA
ATOM     31  H5  UNL     1      69.411  26.870  35.989  1.00  0.00     0.210 HD
ENDBRANCH  11  30
BRANCH   4  32
HETATM   32  C5  UNL     1      77.068  23.671  36.360  1.00  0.00     0.184 C
HETATM   33  C6  UNL     1      77.029  22.359  35.668  1.00  0.00     0.189 C
HETATM   34  C7  UNL     1      76.408  21.884  36.937  1.00  0.00     0.153 C
HETATM   35  N1  UNL     1      77.181  22.923  37.598  1.00  0.00    -0.194 NA
BRANCH  32  36
HETATM   36  O1  UNL     1      78.223  24.398  36.049  1.00  0.00    -0.368 OA
ATOM     37  H1  UNL     1      78.566  24.226  35.180  1.00  0.00     0.212 HD
ENDBRANCH  32  36
BRANCH  33  38
HETATM   38  O2  UNL     1      76.381  22.177  34.504  1.00  0.00    -0.390 OA
ATOM     39  H2  UNL     1      76.159  21.314  34.175  1.00  0.00     0.210 HD
ENDBRANCH  33  38
BRANCH  35  40
HETATM   40  N2  UNL     1      78.495  22.451  37.810  1.00  0.00    -0.360 NA
ATOM     41  H22 UNL     1      78.493  21.816  38.609  1.00  0.00     0.171 HD
ATOM     42  H21 UNL     1      78.701  21.632  37.239  1.00  0.00     0.171 HD
ENDBRANCH  35  40
ENDBRANCH   4  32
BRANCH   6  43
HETATM   43  O4  UNL     1      75.165  27.471  36.564  1.00  0.00    -0.392 OA
ATOM     44  H4  UNL     1      74.606  28.231  36.451  1.00  0.00     0.210 HD
ENDBRANCH   6  43
BRANCH   5  45
HETATM   45  O3  UNL     1      74.730  24.494  38.450  1.00  0.00    -0.388 OA
ATOM     46  H3  UNL     1      73.803  24.633  38.297  1.00  0.00     0.210 HD
ENDBRANCH   5  45
TORSDOF 20
ENDMDL