MODEL 3
REMARK VINA RESULT: -8.081144910      0.050      1.359
REMARK  18 active torsions:
REMARK  status: ('A' for Active; 'I' for Inactive)
REMARK    1  A    between atoms: C2_2  and  C4_5
REMARK    2  A    between atoms: C2_2  and  C10_21
REMARK    3  A    between atoms: C4_5  and  C5_6
REMARK    4  A    between atoms: C5_6  and  O1_7
REMARK    5  A    between atoms: C5_6  and  C6_9
REMARK    6  A    between atoms: C6_9  and  O2_10
REMARK    7  A    between atoms: C6_9  and  C7_12
REMARK    8  A    between atoms: C7_12  and  O3_13
REMARK    9  A    between atoms: C7_12  and  C8_15
REMARK   10  A    between atoms: C8_15  and  O4_16
REMARK   11  A    between atoms: C8_15  and  C9_18
REMARK   12  A    between atoms: C9_18  and  O5_19
REMARK   13  A    between atoms: C10_21  and  N2_22
REMARK   14  A    between atoms: C10_21  and  C18_32
REMARK       I    between atoms: N2_22  and  C11_24
REMARK   15  A    between atoms: C11_24  and  C12_26
REMARK   16  A    between atoms: C18_32  and  O7_33
REMARK   17  A    between atoms: C18_32  and  N3_35
REMARK   18  A    between atoms: N3_35  and  C19_37
ROOT
HETATM    1  C1  UNL     1      72.036  21.324  31.691  1.00  0.00     0.038 C
HETATM    2  C2  UNL     1      72.887  22.411  31.068  1.00  0.00     0.090 C
HETATM    3  C3  UNL     1      74.233  21.889  31.043  1.00  0.00     0.075 C
HETATM    4  N1  UNL     1      75.330  21.442  31.003  1.00  0.00    -0.196 NA
ENDROOT
BRANCH   2   5
HETATM    5  C4  UNL     1      72.780  23.723  31.693  1.00  0.00     0.034 C
BRANCH   5   6
HETATM    6  C5  UNL     1      72.827  23.957  33.133  1.00  0.00     0.072 C
BRANCH   6   7
HETATM    7  O1  UNL     1      73.865  23.389  33.859  1.00  0.00    -0.362 OA
ATOM      8  H1  UNL     1      73.669  23.016  34.710  1.00  0.00     0.217 HD
ENDBRANCH   6   7
BRANCH   6   9
HETATM    9  C6  UNL     1      72.355  25.269  33.690  1.00  0.00     0.205 C
BRANCH   9  10
HETATM   10  O2  UNL     1      73.265  26.294  33.649  1.00  0.00    -0.386 OA
ATOM     11  H2  UNL     1      74.023  26.194  34.212  1.00  0.00     0.210 HD
ENDBRANCH   9  10
BRANCH   9  12
HETATM   12  C7  UNL     1      71.836  25.113  35.091  1.00  0.00     0.184 C
BRANCH  12  13
HETATM   13  O3  UNL     1      71.472  23.767  35.290  1.00  0.00    -0.390 OA
ATOM     14  H3  UNL     1      72.151  23.340  35.799  1.00  0.00     0.210 HD
ENDBRANCH  12  13
BRANCH  12  15
HETATM   15  C8  UNL     1      70.671  25.956  35.480  1.00  0.00     0.173 C
BRANCH  15  16
HETATM   16  O4  UNL     1      71.237  27.146  36.036  1.00  0.00    -0.391 OA
ATOM     17  H4  UNL     1      71.512  26.905  36.913  1.00  0.00     0.210 HD
ENDBRANCH  15  16
BRANCH  15  18
HETATM   18  C9  UNL     1      69.867  25.367  36.620  1.00  0.00     0.198 C
BRANCH  18  19
HETATM   19  O5  UNL     1      68.830  24.565  36.071  1.00  0.00    -0.398 OA
ATOM     20  H5  UNL     1      68.725  23.795  36.617  1.00  0.00     0.209 HD
ENDBRANCH  18  19
ENDBRANCH  15  18
ENDBRANCH  12  15
ENDBRANCH   9  12
ENDBRANCH   6   9
ENDBRANCH   5   6
ENDBRANCH   2   5
BRANCH   2  21
HETATM   21  C10 UNL     1      72.467  22.439  29.593  1.00  0.00     0.159 C
BRANCH  21  22
HETATM   22  N2  UNL     1      71.509  21.344  29.424  1.00  0.00    -0.350 N
HETATM   23  C11 UNL     1      70.520  21.261  28.444  1.00  0.00     0.222 C
HETATM   24  O6  UNL     1      70.307  22.129  27.562  1.00  0.00    -0.273 OA
ATOM     25  H2  UNL     1      71.571  20.569  30.085  1.00  0.00     0.163 HD
BRANCH  23  26
HETATM   26  C12 UNL     1      69.618  20.087  28.383  1.00  0.00     0.078 C
HETATM   27  C13 UNL     1      69.046  19.826  29.792  1.00  0.00     0.014 C
HETATM   28  C14 UNL     1      68.383  18.489  29.821  1.00  0.00     0.001 C
HETATM   29  C15 UNL     1      68.271  17.855  28.457  1.00  0.00     0.000 C
HETATM   30  C16 UNL     1      69.657  17.625  27.866  1.00  0.00     0.001 C
HETATM   31  C17 UNL     1      70.453  18.866  28.080  1.00  0.00     0.014 C
ENDBRANCH  23  26
ENDBRANCH  21  22
BRANCH  21  32
HETATM   32  C18 UNL     1      73.512  22.260  28.580  1.00  0.00     0.242 C
BRANCH  32  33
HETATM   33  O7  UNL     1      73.003  21.152  27.793  1.00  0.00    -0.375 OA
ATOM     34  H7  UNL     1      73.797  20.698  27.537  1.00  0.00     0.212 HD
ENDBRANCH  32  33
BRANCH  32  35
HETATM   35  N3  UNL     1      73.794  23.228  27.597  1.00  0.00    -0.362 N
ATOM     36  H3  UNL     1      73.099  23.478  26.893  1.00  0.00     0.162 HD
BRANCH  35  37
HETATM   37  C19 UNL     1      75.090  23.856  27.613  1.00  0.00     0.035 A
HETATM   38  C20 UNL     1      75.210  25.198  27.443  1.00  0.00     0.073 A
HETATM   39  C21 UNL     1      76.462  25.779  27.427  1.00  0.00     0.143 A
HETATM   40  F1  UNL     1      76.556  27.127  27.257  1.00  0.00    -0.204 F
HETATM   41  C22 UNL     1      77.581  24.980  27.585  1.00  0.00     0.111 A
HETATM   42 CL1  UNL     1      79.160  25.742  27.558  1.00  0.00    -0.078 Cl
HETATM   43  C23 UNL     1      77.462  23.635  27.755  1.00  0.00     0.143 A
HETATM   44  F2  UNL     1      78.580  22.869  27.907  1.00  0.00    -0.204 F
HETATM   45  C24 UNL     1      76.219  23.042  27.773  1.00  0.00     0.073 A
ENDBRANCH  35  37
ENDBRANCH  32  35
ENDBRANCH  21  32
ENDBRANCH   2  21
TORSDOF 18
ENDMDL