MODEL 4
REMARK VINA RESULT: -7.284298944      2.336      3.341
REMARK  15 active torsions:
REMARK  status: ('A' for Active; 'I' for Inactive)
REMARK    1  A    between atoms: N5_17  and  C6_19
REMARK    2  A    between atoms: C6_19  and  C7_20
REMARK    3  A    between atoms: C7_20  and  C8_21
REMARK    4  A    between atoms: C8_21  and  C9_22
REMARK    5  A    between atoms: C9_22  and  C10_23
REMARK    6  A    between atoms: C10_23  and  C11_24
REMARK    7  A    between atoms: C11_24  and  N6_25
REMARK       I    between atoms: N6_25  and  C12_27
REMARK    8  A    between atoms: C12_27  and  C13_29
REMARK    9  A    between atoms: C13_29  and  C14_30
REMARK   10  A    between atoms: C14_30  and  C15_31
REMARK   11  A    between atoms: C15_31  and  C16_32
REMARK   12  A    between atoms: C16_32  and  N7_33
REMARK   13  A    between atoms: C17_39  and  C18_40
REMARK   14  A    between atoms: C18_40  and  O2_41
REMARK   15  A    between atoms: C21_47  and  O4_48
ROOT
HETATM    1  N1  UNL     1      65.155  18.397  31.841  1.00  0.00    -0.386 N
ATOM      2  H11 UNL     1      65.802  19.006  32.342  1.00  0.00     0.157 HD
ATOM      3  H12 UNL     1      64.170  18.399  32.105  1.00  0.00     0.157 HD
HETATM    4  C1  UNL     1      65.615  17.639  30.880  1.00  0.00     0.118 C
HETATM    5  N2  UNL     1      64.715  16.793  30.182  1.00  0.00    -0.320 N
ATOM      6  H2  UNL     1      63.811  16.572  30.598  1.00  0.00     0.169 HD
HETATM    7  C2  UNL     1      65.052  16.248  28.918  1.00  0.00     0.180 C
HETATM    8 CL1  UNL     1      63.882  15.210  28.130  1.00  0.00    -0.045 Cl
HETATM    9  N3  UNL     1      66.186  16.536  28.405  1.00  0.00    -0.331 N
ATOM     10  H3  UNL     1      66.424  16.139  27.496  1.00  0.00     0.168 HD
HETATM   11  C3  UNL     1      67.155  17.403  29.060  1.00  0.00     0.093 C
HETATM   12  C4  UNL     1      68.167  17.887  28.376  1.00  0.00     0.145 C
HETATM   13 CL2  UNL     1      68.290  17.410  26.665  1.00  0.00    -0.062 Cl
HETATM   14  N4  UNL     1      69.078  18.888  28.800  1.00  0.00    -0.179 N
ATOM     15  H4  UNL     1      69.854  19.208  28.220  1.00  0.00     0.185 HD
HETATM   16  C5  UNL     1      68.821  19.417  30.112  1.00  0.00     0.676 C
HETATM   17  N5  UNL     1      69.591  20.321  30.602  1.00  0.00    -0.226 N
ATOM     18  H5  UNL     1      69.396  20.687  31.534  1.00  0.00     0.177 HD
HETATM   19  N8  UNL     1      67.705  18.905  30.826  1.00  0.00    -0.198 N
ATOM     20  H8  UNL     1      67.346  19.449  31.610  1.00  0.00     0.179 HD
HETATM   21  C17 UNL     1      67.039  17.638  30.499  1.00  0.00     0.209 C
ENDROOT
BRANCH  17  22
HETATM   22  C6  UNL     1      70.725  20.834  29.871  1.00  0.00     0.138 C
BRANCH  22  23
HETATM   23  C7  UNL     1      70.724  22.349  29.938  1.00  0.00     0.020 C
BRANCH  23  24
HETATM   24  C8  UNL     1      71.723  22.868  30.930  1.00  0.00     0.002 C
BRANCH  24  25
HETATM   25  C9  UNL     1      72.817  23.671  30.243  1.00  0.00     0.002 C
BRANCH  25  26
HETATM   26  C10 UNL     1      73.788  22.728  29.584  1.00  0.00     0.020 C
BRANCH  26  27
HETATM   27  C11 UNL     1      73.899  23.046  28.130  1.00  0.00     0.122 C
BRANCH  27  28
HETATM   28  N6  UNL     1      74.618  24.269  27.939  1.00  0.00    -0.361 N
HETATM   29  C12 UNL     1      75.257  24.613  26.693  1.00  0.00     0.217 C
HETATM   30  O1  UNL     1      75.141  23.761  25.779  1.00  0.00    -0.274 OA
ATOM     31  H6  UNL     1      74.681  24.926  28.718  1.00  0.00     0.162 HD
BRANCH  29  32
HETATM   32  C13 UNL     1      75.988  25.867  26.517  1.00  0.00     0.103 C
BRANCH  32  33
HETATM   33  C14 UNL     1      76.737  26.349  27.705  1.00  0.00     0.011 C
BRANCH  33  34
HETATM   34  C15 UNL     1      77.865  25.464  28.161  1.00  0.00     0.028 C
BRANCH  34  35
HETATM   35  C16 UNL     1      79.102  25.939  27.385  1.00  0.00     0.229 C
BRANCH  35  36
HETATM   36  N7  UNL     1      79.536  27.193  27.934  1.00  0.00    -0.079 N
ATOM     37  H73 UNL     1      78.820  27.636  28.510  1.00  0.00     0.274 HD
ATOM     38  H72 UNL     1      80.246  27.077  28.657  1.00  0.00     0.274 HD
ATOM     39  H71 UNL     1      79.850  27.793  27.171  1.00  0.00     0.274 HD
ENDBRANCH  35  36
ENDBRANCH  34  35
ENDBRANCH  33  34
ENDBRANCH  32  33
ENDBRANCH  29  32
ENDBRANCH  27  28
ENDBRANCH  26  27
ENDBRANCH  25  26
ENDBRANCH  24  25
ENDBRANCH  23  24
ENDBRANCH  22  23
ENDBRANCH  17  22
BRANCH  21  40
HETATM   40  C18 UNL     1      67.799  16.623  31.353  1.00  0.00     0.231 C
HETATM   41  O3  UNL     1      68.262  17.298  32.485  1.00  0.00    -0.347 OA
HETATM   42  C19 UNL     1      68.542  16.354  33.443  1.00  0.00     0.211 C
HETATM   43  C20 UNL     1      67.968  15.042  33.035  1.00  0.00     0.228 C
HETATM   44  F1  UNL     1      68.973  14.235  32.547  1.00  0.00    -0.244 F
HETATM   45  C21 UNL     1      67.061  15.456  31.844  1.00  0.00     0.220 C
BRANCH  40  46
HETATM   46  O2  UNL     1      68.954  16.197  30.690  1.00  0.00    -0.361 OA
ATOM     47  H2  UNL     1      69.471  15.633  31.253  1.00  0.00     0.213 HD
ENDBRANCH  40  46
BRANCH  45  48
HETATM   48  O4  UNL     1      67.032  14.368  30.948  1.00  0.00    -0.387 OA
ATOM     49  H4  UNL     1      66.334  14.411  30.304  1.00  0.00     0.210 HD
ENDBRANCH  45  48
ENDBRANCH  21  40
TORSDOF 15
ENDMDL