MODEL 2
REMARK VINA RESULT: -7.292910030      3.166      4.185
REMARK  19 active torsions:
REMARK  status: ('A' for Active; 'I' for Inactive)
REMARK    1  A    between atoms: C3_6  and  O1_7
REMARK    2  A    between atoms: O1_7  and  C4_8
REMARK    3  A    between atoms: C4_8  and  C5_9
REMARK    4  A    between atoms: C8_12  and  O2_13
REMARK    5  A    between atoms: O2_13  and  C9_14
REMARK    6  A    between atoms: C9_14  and  C10_15
REMARK    7  A    between atoms: C10_15  and  C11_16
REMARK    8  A    between atoms: C11_16  and  C12_17
REMARK    9  A    between atoms: C12_17  and  C13_18
REMARK   10  A    between atoms: C13_18  and  C14_19
REMARK   11  A    between atoms: C14_19  and  N2_20
REMARK   12  A    between atoms: N2_20  and  C15_23
REMARK   13  A    between atoms: C15_23  and  C17_25
REMARK   14  A    between atoms: C19_29  and  O3_30
REMARK   15  A    between atoms: C20_32  and  O4_33
REMARK   16  A    between atoms: C21_35  and  O5_36
REMARK   17  A    between atoms: C22_38  and  O6_39
REMARK   18  A    between atoms: C23_41  and  O7_42
REMARK   19  A    between atoms: C24_44  and  O8_45
ROOT
HETATM    1  C5  UNL     1      73.143  21.373  29.173  1.00  0.00     0.047 C
HETATM    2  C6  UNL     1      72.891  21.932  30.515  1.00  0.00     0.022 C
HETATM    3  C7  UNL     1      73.619  21.091  31.564  1.00  0.00     0.013 C
HETATM    4  C8  UNL     1      71.480  22.195  30.920  1.00  0.00     0.157 C
HETATM    5  C19 UNL     1      70.433  21.504  30.140  1.00  0.00     0.178 C
HETATM    6  C20 UNL     1      70.793  21.404  28.652  1.00  0.00     0.178 C
HETATM    7  C21 UNL     1      72.024  20.529  28.620  1.00  0.00     0.156 C
ENDROOT
BRANCH   1   8
HETATM    8  C4  UNL     1      73.550  22.452  28.158  1.00  0.00     0.178 C
BRANCH   8   9
HETATM    9  O1  UNL     1      74.465  21.890  27.307  1.00  0.00    -0.357 OA
BRANCH   9  10
HETATM   10  C3  UNL     1      75.547  22.677  26.997  1.00  0.00     0.353 C
HETATM   11  N1  UNL     1      75.008  23.967  26.571  1.00  0.00    -0.040 N
HETATM   12  C2  UNL     1      76.091  24.893  26.282  1.00  0.00     0.216 C
ATOM     13  H12 UNL     1      74.350  24.349  27.250  1.00  0.00     0.280 HD
ATOM     14  H11 UNL     1      74.368  23.871  25.782  1.00  0.00     0.280 HD
HETATM   15  C1  UNL     1      75.480  26.191  25.822  1.00  0.00     0.043 C
HETATM   16  C24 UNL     1      76.949  25.143  27.477  1.00  0.00     0.179 C
HETATM   17  C23 UNL     1      77.453  23.895  28.128  1.00  0.00     0.181 C
HETATM   18  C22 UNL     1      76.360  22.890  28.250  1.00  0.00     0.205 C
BRANCH  16  19
HETATM   19  O8  UNL     1      76.273  25.918  28.438  1.00  0.00    -0.391 OA
ATOM     20  H8  UNL     1      76.860  26.195  29.132  1.00  0.00     0.210 HD
ENDBRANCH  16  19
BRANCH  17  21
HETATM   21  O7  UNL     1      78.599  23.379  27.522  1.00  0.00    -0.390 OA
ATOM     22  H7  UNL     1      79.071  24.028  27.014  1.00  0.00     0.210 HD
ENDBRANCH  17  21
BRANCH  18  23
HETATM   23  O6  UNL     1      76.848  21.674  28.737  1.00  0.00    -0.388 OA
ATOM     24  H6  UNL     1      76.179  21.001  28.695  1.00  0.00     0.210 HD
ENDBRANCH  18  23
ENDBRANCH   9  10
ENDBRANCH   8   9
ENDBRANCH   1   8
BRANCH   7  25
HETATM   25  O5  UNL     1      72.329  20.005  27.400  1.00  0.00    -0.392 OA
ATOM     26  H5  UNL     1      71.717  19.328  27.138  1.00  0.00     0.210 HD
ENDBRANCH   7  25
BRANCH   4  27
HETATM   27  O2  UNL     1      71.200  23.559  31.017  1.00  0.00    -0.383 OA
BRANCH  27  28
HETATM   28  C9  UNL     1      72.174  24.299  31.630  1.00  0.00     0.168 C
BRANCH  28  29
HETATM   29  C10 UNL     1      72.251  24.216  33.116  1.00  0.00     0.026 C
BRANCH  29  30
HETATM   30  C11 UNL     1      73.180  25.334  33.597  1.00  0.00     0.002 C
BRANCH  30  31
HETATM   31  C12 UNL     1      72.796  25.853  34.959  1.00  0.00     0.002 C
BRANCH  31  32
HETATM   32  C13 UNL     1      71.618  25.146  35.545  1.00  0.00     0.027 C
BRANCH  32  33
HETATM   33  C14 UNL     1      72.035  24.443  36.823  1.00  0.00     0.233 C
BRANCH  33  34
HETATM   34  N2  UNL     1      72.156  23.023  36.644  1.00  0.00    -0.066 N
ATOM     35  H22 UNL     1      71.438  22.527  37.172  1.00  0.00     0.277 HD
ATOM     36  H21 UNL     1      71.884  22.751  35.699  1.00  0.00     0.277 HD
BRANCH  34  37
HETATM   37  C15 UNL     1      73.472  22.524  36.965  1.00  0.00     0.253 C
HETATM   38  C16 UNL     1      74.412  23.608  37.389  1.00  0.00     0.046 C
BRANCH  37  39
HETATM   39  C17 UNL     1      74.043  21.809  35.761  1.00  0.00     0.267 C
HETATM   40  C18 UNL     1      75.160  22.643  35.134  1.00  0.00     0.092 C
HETATM   41  F1  UNL     1      74.627  20.596  36.137  1.00  0.00    -0.204 F
HETATM   42  F2  UNL     1      73.073  21.525  34.825  1.00  0.00    -0.204 F
ENDBRANCH  37  39
ENDBRANCH  34  37
ENDBRANCH  33  34
ENDBRANCH  32  33
ENDBRANCH  31  32
ENDBRANCH  30  31
ENDBRANCH  29  30
ENDBRANCH  28  29
ENDBRANCH  27  28
ENDBRANCH   4  27
BRANCH   6  43
HETATM   43  O4  UNL     1      69.755  20.924  27.896  1.00  0.00    -0.390 OA
ATOM     44  H4  UNL     1      69.982  20.123  27.439  1.00  0.00     0.210 HD
ENDBRANCH   6  43
BRANCH   5  45
HETATM   45  O3  UNL     1      69.208  22.117  30.213  1.00  0.00    -0.390 OA
ATOM     46  H3  UNL     1      68.958  22.553  29.407  1.00  0.00     0.210 HD
ENDBRANCH   5  45
TORSDOF 19
ENDMDL