MODEL 1
REMARK VINA RESULT: -7.605486933      0.000      0.000
REMARK  21 active torsions:
REMARK  status: ('A' for Active; 'I' for Inactive)
REMARK    1  A    between atoms: C1_2  and  C2_3
REMARK    2  A    between atoms: C1_2  and  C11_14
REMARK    3  A    between atoms: C3_4  and  C4_5
REMARK    4  A    between atoms: C4_5  and  C5_6
REMARK    5  A    between atoms: C5_6  and  C6_7
REMARK    6  A    between atoms: C6_7  and  C7_8
REMARK    7  A    between atoms: C7_8  and  C8_9
REMARK    8  A    between atoms: C8_9  and  C9_10
REMARK    9  A    between atoms: C9_10  and  C10_11
REMARK   10  A    between atoms: C10_11  and  O1_12
REMARK   11  A    between atoms: C11_14  and  C12_15
REMARK   12  A    between atoms: C13_16  and  N2_17
REMARK   13  A    between atoms: C14_21  and  O2_22
REMARK   14  A    between atoms: O2_22  and  C15_23
REMARK   15  A    between atoms: C17_25  and  C18_26
REMARK   16  A    between atoms: C19_27  and  C20_28
REMARK   17  A    between atoms: C20_28  and  O3_29
REMARK   18  A    between atoms: C20_28  and  O4_31
REMARK   19  A    between atoms: C24_38  and  O5_39
REMARK   20  A    between atoms: C25_41  and  O6_42
REMARK   21  A    between atoms: C26_44  and  O7_45
ROOT
HETATM    1  C12 UNL     1      72.559  21.345  29.945  1.00  0.00     0.055 C
HETATM    2  C13 UNL     1      72.107  20.182  29.118  1.00  0.00     0.222 C
HETATM    3  C14 UNL     1      70.577  20.124  29.060  1.00  0.00     0.191 C
HETATM    4  C24 UNL     1      69.969  21.370  28.479  1.00  0.00     0.180 C
HETATM    5  C25 UNL     1      70.418  22.524  29.382  1.00  0.00     0.178 C
HETATM    6  C26 UNL     1      71.904  22.610  29.373  1.00  0.00     0.156 C
ENDROOT
BRANCH   3   7
HETATM    7  O2  UNL     1      70.205  18.955  28.432  1.00  0.00    -0.338 OA
BRANCH   7   8
HETATM    8  C15 UNL     1      69.088  18.198  28.540  1.00  0.00     0.109 A
HETATM    9  C16 UNL     1      68.185  18.313  29.577  1.00  0.00     0.063 A
HETATM   10  C17 UNL     1      67.046  17.546  29.694  1.00  0.00     0.059 A
HETATM   11  C21 UNL     1      66.802  16.603  28.700  1.00  0.00     0.138 A
HETATM   12  F1  UNL     1      65.693  15.839  28.789  1.00  0.00    -0.204 F
HETATM   13  C22 UNL     1      67.669  16.444  27.638  1.00  0.00     0.089 A
HETATM   14  C23 UNL     1      68.792  17.236  27.572  1.00  0.00     0.152 A
HETATM   15  F2  UNL     1      69.641  17.077  26.529  1.00  0.00    -0.203 F
BRANCH  10  16
HETATM   16  C18 UNL     1      66.144  17.716  30.803  1.00  0.00    -0.059 C
HETATM   17  C19 UNL     1      65.396  17.868  31.746  1.00  0.00    -0.041 C
BRANCH  17  18
HETATM   18  C20 UNL     1      64.495  18.073  32.897  1.00  0.00     0.338 C
BRANCH  18  19
HETATM   19  O3  UNL     1      65.221  18.042  34.106  1.00  0.00    -0.361 OA
ATOM     20  H3  UNL     1      64.707  18.413  34.813  1.00  0.00     0.213 HD
ENDBRANCH  18  19
BRANCH  18  21
HETATM   21  O4  UNL     1      63.902  19.344  32.847  1.00  0.00    -0.361 OA
ATOM     22  H4  UNL     1      64.137  19.795  32.044  1.00  0.00     0.213 HD
ENDBRANCH  18  21
ENDBRANCH  17  18
ENDBRANCH  10  16
ENDBRANCH   7   8
ENDBRANCH   3   7
BRANCH   2  23
HETATM   23  N2  UNL     1      72.676  20.146  27.795  1.00  0.00    -0.072 N
ATOM     24  H23 UNL     1      71.941  20.103  27.090  1.00  0.00     0.274 HD
ATOM     25  H22 UNL     1      73.089  21.048  27.559  1.00  0.00     0.274 HD
ATOM     26  H21 UNL     1      73.352  19.395  27.654  1.00  0.00     0.274 HD
ENDBRANCH   2  23
BRANCH   4  27
HETATM   27  O5  UNL     1      70.257  21.585  27.160  1.00  0.00    -0.390 OA
ATOM     28  H5  UNL     1      70.035  20.865  26.582  1.00  0.00     0.210 HD
ENDBRANCH   4  27
BRANCH   1  29
HETATM   29  C11 UNL     1      74.005  21.605  29.964  1.00  0.00     0.063 C
BRANCH  29  30
HETATM   30  C1  UNL     1      74.709  21.987  28.700  1.00  0.00     0.024 C
HETATM   31  N1  UNL     1      75.759  21.106  28.372  1.00  0.00    -0.107 NA
BRANCH  30  32
HETATM   32  C2  UNL     1      74.918  23.444  28.575  1.00  0.00     0.018 C
HETATM   33  C3  UNL     1      74.520  24.263  27.462  1.00  0.00    -0.025 C
BRANCH  33  34
HETATM   34  C4  UNL     1      74.920  24.211  26.070  1.00  0.00     0.027 C
BRANCH  34  35
HETATM   35  C5  UNL     1      75.426  25.410  25.382  1.00  0.00     0.004 C
BRANCH  35  36
HETATM   36  C6  UNL     1      75.595  26.555  26.412  1.00  0.00     0.000 C
BRANCH  36  37
HETATM   37  C7  UNL     1      77.037  26.616  26.716  1.00  0.00     0.000 C
BRANCH  37  38
HETATM   38  C8  UNL     1      77.538  26.237  28.039  1.00  0.00     0.002 C
BRANCH  38  39
HETATM   39  C9  UNL     1      78.489  25.138  28.234  1.00  0.00     0.026 C
BRANCH  39  40
HETATM   40  C10 UNL     1      78.348  23.918  27.382  1.00  0.00     0.164 C
BRANCH  40  41
HETATM   41  O1  UNL     1      78.332  22.764  28.162  1.00  0.00    -0.401 OA
ATOM     42  H1  UNL     1      77.463  22.378  28.180  1.00  0.00     0.209 HD
ENDBRANCH  40  41
ENDBRANCH  39  40
ENDBRANCH  38  39
ENDBRANCH  37  38
ENDBRANCH  36  37
ENDBRANCH  35  36
ENDBRANCH  34  35
ENDBRANCH  33  34
ENDBRANCH  30  32
ENDBRANCH  29  30
ENDBRANCH   1  29
BRANCH   5  43
HETATM   43  O6  UNL     1      69.896  22.250  30.643  1.00  0.00    -0.390 OA
ATOM     44  H6  UNL     1      69.110  21.736  30.495  1.00  0.00     0.210 HD
ENDBRANCH   5  43
BRANCH   6  45
HETATM   45  O7  UNL     1      72.332  23.729  30.073  1.00  0.00    -0.392 OA
ATOM     46  H7  UNL     1      72.179  24.514  29.561  1.00  0.00     0.210 HD
ENDBRANCH   6  45
TORSDOF 21
ENDMDL