MODEL 5
REMARK VINA RESULT: -5.944337824      7.099      8.873
REMARK  18 active torsions:
REMARK  status: ('A' for Active; 'I' for Inactive)
REMARK    1  A    between atoms: C8_8  and  O1_9
REMARK    2  A    between atoms: O1_9  and  C9_10
REMARK    3  A    between atoms: C9_10  and  C10_11
REMARK    4  A    between atoms: C10_11  and  O2_12
REMARK    5  A    between atoms: C10_11  and  C11_14
REMARK    6  A    between atoms: C11_14  and  O3_15
REMARK    7  A    between atoms: C15_21  and  C16_22
REMARK    8  A    between atoms: C16_22  and  O4_23
REMARK    9  A    between atoms: C16_22  and  N1_25
REMARK   10  A    between atoms: N1_25  and  C17_28
REMARK   11  A    between atoms: C17_28  and  O5_29
REMARK   12  A    between atoms: C17_28  and  C18_31
REMARK   13  A    between atoms: C18_31  and  O6_32
REMARK   14  A    between atoms: C18_31  and  C19_34
REMARK   15  A    between atoms: C19_34  and  O7_35
REMARK   16  A    between atoms: C19_34  and  C20_37
REMARK   17  A    between atoms: C20_37  and  O8_38
REMARK   18  A    between atoms: C20_37  and  C21_40
ROOT
HETATM    1  C1  UNL     1      76.113  18.513  37.593  1.00  0.00     0.048 C
HETATM    2  C2  UNL     1      74.840  19.034  37.037  1.00  0.00    -0.061 A
HETATM    3  C3  UNL     1      73.827  18.122  36.867  1.00  0.00     0.007 A
HETATM    4  C4  UNL     1      72.626  18.545  36.352  1.00  0.00     0.001 A
HETATM    5  C5  UNL     1      72.472  19.853  36.022  1.00  0.00     0.012 A
HETATM    6  C6  UNL     1      73.472  20.822  36.175  1.00  0.00    -0.022 A
HETATM    7  C7  UNL     1      73.146  22.175  35.814  1.00  0.00     0.018 A
HETATM    8  C8  UNL     1      72.765  23.074  36.849  1.00  0.00     0.082 A
HETATM    9  C12 UNL     1      72.374  24.344  36.500  1.00  0.00     0.056 A
HETATM   10  C13 UNL     1      72.336  24.779  35.194  1.00  0.00     0.014 A
HETATM   11 BR1  UNL     1      71.778  26.557  34.739  1.00  0.00    -0.051 Br
HETATM   12  C14 UNL     1      72.707  23.907  34.201  1.00  0.00     0.031 A
HETATM   13  C15 UNL     1      73.111  22.615  34.527  1.00  0.00     0.013 A
HETATM   14  C22 UNL     1      74.654  20.359  36.693  1.00  0.00     0.019 A
ENDROOT
BRANCH  13  15
HETATM   15  C16 UNL     1      73.611  21.704  33.438  1.00  0.00     0.357 C
BRANCH  15  16
HETATM   16  O4  UNL     1      74.929  21.966  33.084  1.00  0.00    -0.366 OA
ATOM     17  H4  UNL     1      75.000  22.443  32.266  1.00  0.00     0.212 HD
ENDBRANCH  15  16
BRANCH  15  18
HETATM   18  N1  UNL     1      72.738  22.004  32.297  1.00  0.00    -0.016 N
ATOM     19  H12 UNL     1      71.968  21.338  32.234  1.00  0.00     0.283 HD
ATOM     20  H11 UNL     1      72.201  22.856  32.455  1.00  0.00     0.283 HD
BRANCH  18  21
HETATM   21  C17 UNL     1      73.494  22.073  31.024  1.00  0.00     0.353 C
BRANCH  21  22
HETATM   22  O5  UNL     1      73.937  20.801  30.699  1.00  0.00    -0.368 OA
ATOM     23  H5  UNL     1      73.653  20.595  29.815  1.00  0.00     0.212 HD
ENDBRANCH  21  22
BRANCH  21  24
HETATM   24  C18 UNL     1      72.406  22.451  30.022  1.00  0.00     0.205 C
BRANCH  24  25
HETATM   25  O6  UNL     1      72.358  23.875  30.053  1.00  0.00    -0.389 OA
ATOM     26  H6  UNL     1      71.493  24.082  30.386  1.00  0.00     0.210 HD
ENDBRANCH  24  25
BRANCH  24  27
HETATM   27  C19 UNL     1      72.738  22.075  28.599  1.00  0.00     0.185 C
BRANCH  27  28
HETATM   28  O7  UNL     1      71.640  22.186  27.774  1.00  0.00    -0.390 OA
ATOM     29  H7  UNL     1      71.800  21.797  26.922  1.00  0.00     0.210 HD
ENDBRANCH  27  28
BRANCH  27  30
HETATM   30  C20 UNL     1      73.874  22.982  28.163  1.00  0.00     0.214 C
BRANCH  30  31
HETATM   31  O8  UNL     1      73.417  23.902  27.210  1.00  0.00    -0.387 OA
ATOM     32  H8  UNL     1      73.699  23.641  26.341  1.00  0.00     0.210 HD
ENDBRANCH  30  31
BRANCH  30  33
HETATM   33  C21 UNL     1      75.063  22.269  27.600  1.00  0.00     0.384 C
HETATM   34  F1  UNL     1      74.935  20.919  27.530  1.00  0.00    -0.212 F
HETATM   35  F2  UNL     1      75.301  22.844  26.342  1.00  0.00    -0.212 F
ENDBRANCH  30  33
ENDBRANCH  27  30
ENDBRANCH  24  27
ENDBRANCH  21  24
ENDBRANCH  18  21
ENDBRANCH  15  18
ENDBRANCH  13  15
BRANCH   8  36
HETATM   36  O1  UNL     1      72.818  22.617  38.079  1.00  0.00    -0.348 OA
BRANCH  36  37
HETATM   37  C9  UNL     1      72.221  22.407  39.255  1.00  0.00     0.209 C
BRANCH  37  38
HETATM   38  C10 UNL     1      71.225  21.301  39.418  1.00  0.00     0.166 C
BRANCH  38  39
HETATM   39  O2  UNL     1      70.269  21.281  38.381  1.00  0.00    -0.391 OA
ATOM     40  H2  UNL     1      69.818  22.112  38.287  1.00  0.00     0.210 HD
ENDBRANCH  38  39
BRANCH  38  41
HETATM   41  C11 UNL     1      71.732  19.937  39.705  1.00  0.00     0.198 C
BRANCH  41  42
HETATM   42  O3  UNL     1      73.120  19.985  39.861  1.00  0.00    -0.398 OA
ATOM     43  H3  UNL     1      73.331  19.969  40.787  1.00  0.00     0.209 HD
ENDBRANCH  41  42
ENDBRANCH  38  41
ENDBRANCH  37  38
ENDBRANCH  36  37
ENDBRANCH   8  36
TORSDOF 18
ENDMDL