MODEL 4
REMARK VINA RESULT: -5.578334313      3.014      6.570
REMARK  15 active torsions:
REMARK  status: ('A' for Active; 'I' for Inactive)
REMARK    1  A    between atoms: C2_2  and  C3_3
REMARK       I    between atoms: C3_3  and  N1_5
REMARK    2  A    between atoms: N1_5  and  C4_7
REMARK    3  A    between atoms: C5_8  and  S1_9
REMARK    4  A    between atoms: S1_9  and  C6_10
REMARK    5  A    between atoms: C6_10  and  C7_11
REMARK    6  A    between atoms: C7_11  and  C8_12
REMARK    7  A    between atoms: C9_16  and  C10_17
REMARK    8  A    between atoms: C12_20  and  N3_21
REMARK    9  A    between atoms: N3_21  and  N4_23
REMARK       I    between atoms: N4_23  and  C13_25
REMARK   10  A    between atoms: C14_28  and  N6_29
REMARK   11  A    between atoms: N6_29  and  C15_30
REMARK   12  A    between atoms: N6_29  and  C17_33
REMARK   13  A    between atoms: C15_30  and  C16_31
REMARK   14  A    between atoms: C18_34  and  O4_35
REMARK   15  A    between atoms: C20_40  and  O5_41
ROOT
HETATM    1  C4  UNL     1      67.732  16.608  31.157  1.00  0.00     0.169 C
HETATM    2  C5  UNL     1      68.742  15.463  31.304  1.00  0.00     0.172 C
HETATM    3  N2  UNL     1      68.222  14.450  32.143  1.00  0.00    -0.372 N
ATOM      4  H2  UNL     1      67.575  13.746  31.786  1.00  0.00     0.161 HD
HETATM    5  C9  UNL     1      68.625  14.450  33.466  1.00  0.00     0.069 C
HETATM    6  C11 UNL     1      67.910  15.475  34.247  1.00  0.00     0.065 C
HETATM    7  C12 UNL     1      67.460  16.740  33.709  1.00  0.00     0.075 C
HETATM    8  C14 UNL     1      66.951  16.951  32.326  1.00  0.00     0.066 C
ENDROOT
BRANCH   8   9
HETATM    9  N6  UNL     1      65.501  16.880  32.146  1.00  0.00    -0.340 N
BRANCH   9  10
HETATM   10  C15 UNL     1      64.800  16.164  31.141  1.00  0.00     0.144 C
BRANCH  10  11
HETATM   11  C16 UNL     1      64.781  16.800  29.788  1.00  0.00     0.135 C
HETATM   12 CL1  UNL     1      64.096  15.671  28.570  1.00  0.00    -0.129 Cl
ENDBRANCH  10  11
ENDBRANCH   9  10
BRANCH   9  13
HETATM   13  C17 UNL     1      64.662  17.523  33.115  1.00  0.00     0.121 A
HETATM   14  C18 UNL     1      64.160  18.801  33.128  1.00  0.00     0.112 A
HETATM   15  C19 UNL     1      63.391  18.986  34.251  1.00  0.00     0.129 A
HETATM   16  N7  UNL     1      63.390  17.850  34.948  1.00  0.00    -0.342 N
HETATM   17  C20 UNL     1      64.155  16.940  34.282  1.00  0.00     0.170 A
ATOM     18  H7  UNL     1      62.901  17.689  35.828  1.00  0.00     0.167 HD
BRANCH  14  19
HETATM   19  O4  UNL     1      64.395  19.750  32.162  1.00  0.00    -0.357 OA
ATOM     20  H4  UNL     1      64.505  20.680  32.325  1.00  0.00     0.217 HD
ENDBRANCH  14  19
BRANCH  17  21
HETATM   21  O5  UNL     1      64.358  15.681  34.725  1.00  0.00    -0.344 OA
ATOM     22  H5  UNL     1      64.791  15.414  35.527  1.00  0.00     0.219 HD
ENDBRANCH  17  21
ENDBRANCH   9  13
ENDBRANCH   8   9
BRANCH   1  23
HETATM   23  N1  UNL     1      68.585  17.740  30.695  1.00  0.00    -0.348 N
HETATM   24  C3  UNL     1      68.143  19.050  30.490  1.00  0.00     0.217 C
HETATM   25  O1  UNL     1      66.951  19.426  30.690  1.00  0.00    -0.274 OA
ATOM     26  H1  UNL     1      69.568  17.542  30.513  1.00  0.00     0.163 HD
BRANCH  24  27
HETATM   27  C2  UNL     1      69.092  20.094  30.010  1.00  0.00     0.098 C
HETATM   28  C1  UNL     1      69.710  19.736  28.678  1.00  0.00     0.014 C
ENDBRANCH  24  27
ENDBRANCH   1  23
BRANCH   7  29
HETATM   29  N3  UNL     1      68.344  17.804  34.082  1.00  0.00    -0.295 N
ATOM     30  H3  UNL     1      68.877  18.305  33.372  1.00  0.00     0.187 HD
BRANCH  29  31
HETATM   31  N4  UNL     1      68.463  18.139  35.400  1.00  0.00    -0.254 N
HETATM   32  C13 UNL     1      67.541  18.515  36.373  1.00  0.00     0.347 C
HETATM   33  N5  UNL     1      68.029  18.817  37.706  1.00  0.00    -0.038 NA
HETATM   34  O3  UNL     1      66.297  18.640  36.282  1.00  0.00    -0.249 OA
ATOM     35  H4  UNL     1      69.424  18.108  35.742  1.00  0.00     0.191 HD
ENDBRANCH  29  31
ENDBRANCH   7  29
BRANCH   2  36
HETATM   36  S1  UNL     1      69.078  14.600  29.732  1.00  0.00    -0.141 SA
BRANCH  36  37
HETATM   37  C6  UNL     1      67.463  14.368  28.929  1.00  0.00     0.078 C
BRANCH  37  38
HETATM   38  C7  UNL     1      67.405  14.799  27.494  1.00  0.00     0.041 C
BRANCH  38  39
HETATM   39  C8  UNL     1      68.149  16.146  27.446  1.00  0.00     0.222 C
HETATM   40  F1  UNL     1      67.343  17.205  27.744  1.00  0.00    -0.255 F
ENDBRANCH  38  39
ENDBRANCH  37  38
ENDBRANCH  36  37
ENDBRANCH   2  36
BRANCH   5  41
HETATM   41  C10 UNL     1      70.086  14.316  33.746  1.00  0.00     0.287 C
HETATM   42  O2  UNL     1      70.685  13.334  33.373  1.00  0.00    -0.300 OA
ENDBRANCH   5  41
TORSDOF 15
ENDMDL