MODEL 5
REMARK VINA RESULT: -5.412545980      1.414      4.442
REMARK  3 active torsions:
REMARK  status: ('A' for Active; 'I' for Inactive)
REMARK    1  A    between atoms: C4_5  and  C5_6
REMARK    2  A    between atoms: C5_6  and  N2_7
REMARK    3  A    between atoms: C5_6  and  N3_11
ROOT
HETATM    1  C5  UNL     1      36.658  38.023  16.818  1.00  0.00     0.412 C
ENDROOT
BRANCH   1   2
HETATM    2  C4  UNL     1      36.899  37.020  17.904  1.00  0.00     0.014 A
HETATM    3  C3  UNL     1      37.430  37.403  19.118  1.00  0.00     0.015 A
HETATM    4  C2  UNL     1      37.618  36.413  20.062  1.00  0.00     0.046 A
HETATM    5  C1  UNL     1      37.302  35.090  19.837  1.00  0.00     0.116 A
HETATM    6  N1  UNL     1      37.525  34.112  20.865  1.00  0.00    -0.083 NA
HETATM    7  N4  UNL     1      36.786  34.756  18.638  1.00  0.00    -0.354 N
HETATM    8  C6  UNL     1      36.588  35.691  17.695  1.00  0.00     0.100 A
ATOM      9  H4  UNL     1      36.542  33.784  18.445  1.00  0.00     0.166 HD
ENDBRANCH   1   2
BRANCH   1  10
HETATM   10  N2  UNL     1      36.693  37.384  15.516  1.00  0.00    -0.046 N
ATOM     11  H23 UNL     1      36.476  38.040  14.765  1.00  0.00     0.277 HD
ATOM     12  H22 UNL     1      37.644  37.141  15.238  1.00  0.00     0.277 HD
ATOM     13  H21 UNL     1      36.075  36.573  15.499  1.00  0.00     0.277 HD
ENDBRANCH   1  10
BRANCH   1  14
HETATM   14  N3  UNL     1      35.355  38.637  16.969  1.00  0.00    -0.046 N
ATOM     15  H33 UNL     1      34.786  38.149  17.661  1.00  0.00     0.277 HD
ATOM     16  H32 UNL     1      35.415  39.544  17.431  1.00  0.00     0.277 HD
ATOM     17  H31 UNL     1      34.881  38.701  16.068  1.00  0.00     0.277 HD
ENDBRANCH   1  14
TORSDOF 3
ENDMDL