MODEL 3
REMARK VINA RESULT: -5.161673295      2.344      3.063
REMARK  2 active torsions:
REMARK  status: ('A' for Active; 'I' for Inactive)
REMARK    1  A    between atoms: N1_1  and  C1_5
REMARK    2  A    between atoms: C1_5  and  C2_6
ROOT
HETATM    1  C2  UNL     1      36.494  37.954  18.691  1.00  0.00     0.122 C
HETATM    2  C3  UNL     1      36.965  36.603  19.051  1.00  0.00     0.029 C
HETATM    3  C4  UNL     1      38.019  36.003  18.215  1.00  0.00     0.020 C
HETATM    4  C5  UNL     1      37.456  35.347  16.947  1.00  0.00     0.132 C
HETATM    5  N2  UNL     1      36.756  36.381  16.185  1.00  0.00    -0.127 NA
HETATM    6  N3  UNL     1      37.346  37.591  16.510  1.00  0.00    -0.036 NA
HETATM    7  N4  UNL     1      36.607  38.363  17.347  1.00  0.00    -0.317 N
ATOM      8  H4  UNL     1      36.149  39.211  17.015  1.00  0.00     0.177 HD
ENDROOT
BRANCH   1   9
HETATM    9  C1  UNL     1      37.167  39.027  19.561  1.00  0.00     0.255 C
BRANCH   9  10
HETATM   10  N1  UNL     1      38.547  39.237  19.115  1.00  0.00    -0.077 N
ATOM     11  H13 UNL     1      39.225  38.927  19.811  1.00  0.00     0.274 HD
ATOM     12  H12 UNL     1      38.807  38.601  18.361  1.00  0.00     0.274 HD
ATOM     13  H11 UNL     1      38.683  40.215  18.857  1.00  0.00     0.274 HD
ENDBRANCH   9  10
ENDBRANCH   1   9
TORSDOF 2
ENDMDL