MODEL 1
REMARK VINA RESULT: -5.011196270      0.000      0.000
REMARK  2 active torsions:
REMARK  status: ('A' for Active; 'I' for Inactive)
REMARK    1  A    between atoms: N1_1  and  C1_4
REMARK    2  A    between atoms: N4_10  and  N5_12
ROOT
HETATM    1  C1  UNL     1      37.531  35.542  19.280  1.00  0.00     0.160 A
HETATM    2  N2  UNL     1      37.087  34.806  18.258  1.00  0.00    -0.278 N
ATOM      3  H2  UNL     1      37.289  33.806  18.214  1.00  0.00     0.189 HD
HETATM    4  N3  UNL     1      36.410  35.369  17.342  1.00  0.00    -0.277 N
ATOM      5  H3  UNL     1      36.061  34.825  16.553  1.00  0.00     0.189 HD
HETATM    6  C2  UNL     1      36.159  36.675  17.418  1.00  0.00     0.181 A
HETATM    7  N4  UNL     1      35.482  37.425  16.574  1.00  0.00    -0.285 N
ATOM      8  H4  UNL     1      35.059  37.049  15.726  1.00  0.00     0.188 HD
HETATM    9  S1  UNL     1      36.942  37.095  18.885  1.00  0.00    -0.014 SA
ENDROOT
BRANCH   7  10
HETATM   10  N5  UNL     1      35.386  38.764  16.923  1.00  0.00    -0.343 N
ATOM     11  H52 UNL     1      35.942  39.159  17.683  1.00  0.00     0.176 HD
ATOM     12  H51 UNL     1      34.728  39.310  16.368  1.00  0.00     0.176 HD
ENDBRANCH   7  10
BRANCH   1  13
HETATM   13  N1  UNL     1      38.234  35.197  20.320  1.00  0.00    -0.378 N
ATOM     14  H12 UNL     1      38.126  34.364  20.898  1.00  0.00     0.158 HD
ATOM     15  H11 UNL     1      39.018  35.669  20.768  1.00  0.00     0.158 HD
ENDBRANCH   1  13
TORSDOF 2
ENDMDL