MODEL 1
REMARK VINA RESULT: -4.136989231      0.000      0.000
REMARK  3 active torsions:
REMARK  status: ('A' for Active; 'I' for Inactive)
REMARK    1  A    between atoms: N1_1  and  C1_5
REMARK    2  A    between atoms: C1_5  and  N2_6
REMARK    3  A    between atoms: C1_5  and  C2_10
ROOT
HETATM    1  C1  UNL     1      35.830  37.248  16.432  1.00  0.00     0.428 C
ENDROOT
BRANCH   1   2
HETATM    2  N1  UNL     1      35.446  38.476  16.983  1.00  0.00    -0.045 N
ATOM      3  H13 UNL     1      35.783  39.266  16.432  1.00  0.00     0.277 HD
ATOM      4  H12 UNL     1      34.445  38.643  16.886  1.00  0.00     0.277 HD
ATOM      5  H11 UNL     1      35.750  38.531  17.956  1.00  0.00     0.277 HD
ENDBRANCH   1   2
BRANCH   1   6
HETATM    6  N2  UNL     1      36.864  37.460  15.411  1.00  0.00    -0.045 N
ATOM      7  H23 UNL     1      36.507  37.974  14.606  1.00  0.00     0.277 HD
ATOM      8  H22 UNL     1      37.570  38.131  15.715  1.00  0.00     0.277 HD
ATOM      9  H21 UNL     1      37.276  36.566  15.143  1.00  0.00     0.277 HD
ENDBRANCH   1   6
BRANCH   1  10
HETATM   10  C2  UNL     1      36.503  36.418  17.489  1.00  0.00     0.081 A
HETATM   11  C3  UNL     1      37.122  36.879  18.638  1.00  0.00     0.097 A
HETATM   12  S1  UNL     1      37.471  35.288  19.022  1.00  0.00    -0.024 SA
HETATM   13  N3  UNL     1      36.661  35.073  17.574  1.00  0.00    -0.326 N
ATOM     14  H3  UNL     1      36.398  34.272  17.000  1.00  0.00     0.174 HD
ENDBRANCH   1  10
TORSDOF 3
ENDMDL