MODEL 3
REMARK VINA RESULT: -4.674534209      2.951      3.139
REMARK  0 active torsions:
REMARK  status: ('A' for Active; 'I' for Inactive)
ROOT
HETATM    1  N1  UNL     1      38.517  35.927  15.780  1.00  0.00    -0.062 NA
HETATM    2  C1  UNL     1      37.906  35.577  17.036  1.00  0.00     0.209 A
HETATM    3  N2  UNL     1      36.860  34.758  17.240  1.00  0.00    -0.271 N
ATOM      4  H2  UNL     1      36.346  34.262  16.512  1.00  0.00     0.189 HD
HETATM    5  N3  UNL     1      36.609  34.699  18.518  1.00  0.00    -0.274 N
ATOM      6  H3  UNL     1      35.863  34.147  18.941  1.00  0.00     0.189 HD
HETATM    7  C2  UNL     1      37.484  35.482  19.210  1.00  0.00     0.193 A
HETATM    8  S1  UNL     1      37.552  35.718  20.827  1.00  0.00    -0.039 SA
HETATM    9  N4  UNL     1      38.272  36.009  18.251  1.00  0.00    -0.305 N
ATOM     10  H4  UNL     1      39.044  36.651  18.428  1.00  0.00     0.171 HD
ENDROOT
TORSDOF 0
ENDMDL