MODEL 1
REMARK VINA RESULT: -5.179965940      0.000      0.000
REMARK  3 active torsions:
REMARK  status: ('A' for Active; 'I' for Inactive)
REMARK    1  A    between atoms: N1_1  and  C1_4
REMARK    2  A    between atoms: C4_9  and  N3_10
REMARK    3  A    between atoms: N4_13  and  N5_14
ROOT
HETATM    1  C1  UNL     1      36.391  37.565  18.403  1.00  0.00     0.139 A
HETATM    2  C2  UNL     1      37.255  36.516  18.656  1.00  0.00     0.068 A
HETATM    3  C3  UNL     1      37.864  35.815  17.635  1.00  0.00     0.110 A
HETATM    4  N2  UNL     1      37.591  36.186  16.375  1.00  0.00    -0.200 N
ATOM      5  H2  UNL     1      38.023  35.690  15.595  1.00  0.00     0.183 HD
HETATM    6  C4  UNL     1      36.751  37.206  16.136  1.00  0.00     0.698 A
HETATM    7  N4  UNL     1      36.161  37.885  17.123  1.00  0.00    -0.077 N
ENDROOT
BRANCH   1   8
HETATM    8  N1  UNL     1      35.825  38.216  19.390  1.00  0.00    -0.383 N
ATOM      9  H12 UNL     1      35.542  37.747  20.251  1.00  0.00     0.157 HD
ATOM     10  H11 UNL     1      35.650  39.218  19.319  1.00  0.00     0.157 HD
ENDBRANCH   1   8
BRANCH   7  11
HETATM   11  N5  UNL     1      35.287  38.947  16.821  1.00  0.00    -0.323 N
ATOM     12  H52 UNL     1      35.123  39.682  17.509  1.00  0.00     0.178 HD
ATOM     13  H51 UNL     1      34.824  38.973  15.912  1.00  0.00     0.178 HD
ENDBRANCH   7  11
BRANCH   6  14
HETATM   14  N3  UNL     1      36.477  37.576  14.905  1.00  0.00    -0.233 N
ATOM     15  H32 UNL     1      36.383  38.577  14.729  1.00  0.00     0.174 HD
ATOM     16  H31 UNL     1      36.366  36.883  14.164  1.00  0.00     0.174 HD
ENDBRANCH   6  14
TORSDOF 3
ENDMDL