MODEL 3
REMARK VINA RESULT: -4.942592734      1.320      3.452
REMARK  3 active torsions:
REMARK  status: ('A' for Active; 'I' for Inactive)
REMARK    1  A    between atoms: N1_1  and  C1_4
REMARK    2  A    between atoms: C2_10  and  C3_11
REMARK    3  A    between atoms: C3_11  and  N5_12
ROOT
HETATM    1  C1  UNL     1      36.255  37.758  16.711  1.00  0.00     0.137 A
HETATM    2  N2  UNL     1      36.600  37.545  15.409  1.00  0.00    -0.268 N
ATOM      3  H2  UNL     1      36.245  38.068  14.609  1.00  0.00     0.186 HD
HETATM    4  N3  UNL     1      37.474  36.547  15.349  1.00  0.00    -0.021 NA
HETATM    5  N4  UNL     1      37.682  36.131  16.596  1.00  0.00    -0.283 N
ATOM      6  H4  UNL     1      38.307  35.371  16.861  1.00  0.00     0.184 HD
HETATM    7  C2  UNL     1      36.962  36.846  17.441  1.00  0.00     0.093 A
ENDROOT
BRANCH   7   8
HETATM    8  C3  UNL     1      36.925  36.752  18.935  1.00  0.00     0.291 C
BRANCH   8   9
HETATM    9  N5  UNL     1      38.380  36.969  19.340  1.00  0.00    -0.074 N
ATOM     10  H53 UNL     1      38.935  37.488  18.660  1.00  0.00     0.274 HD
ATOM     11  H52 UNL     1      38.511  37.627  20.109  1.00  0.00     0.274 HD
ATOM     12  H51 UNL     1      38.717  36.025  19.529  1.00  0.00     0.274 HD
ENDBRANCH   8   9
ENDBRANCH   7   8
BRANCH   1  13
HETATM   13  N1  UNL     1      35.523  38.688  17.212  1.00  0.00    -0.383 N
ATOM     14  H12 UNL     1      35.788  39.273  18.004  1.00  0.00     0.157 HD
ATOM     15  H11 UNL     1      34.638  39.064  16.871  1.00  0.00     0.157 HD
ENDBRANCH   1  13
TORSDOF 3
ENDMDL