MODEL 1
REMARK VINA RESULT: -5.309559432      0.000      0.000
REMARK  0 active torsions:
REMARK  status: ('A' for Active; 'I' for Inactive)
REMARK       I    between atoms: N1_1  and  C1_5
REMARK       I    between atoms: C1_5  and  N2_6
REMARK       I    between atoms: C1_5  and  N3_10
ROOT
HETATM    1  N1  UNL     1      36.857  37.576  15.146  1.00  0.00    -0.032 N
ATOM      2  H11 UNL     1      37.564  38.296  14.999  1.00  0.00     0.278 HD
ATOM      3  H12 UNL     1      36.244  37.470  14.337  1.00  0.00     0.278 HD
ATOM      4  H13 UNL     1      37.260  36.639  15.150  1.00  0.00     0.278 HD
HETATM    5  C1  UNL     1      36.103  37.862  16.379  1.00  0.00     0.494 C
HETATM    6  N2  UNL     1      35.113  36.854  16.585  1.00  0.00    -0.032 N
ATOM      7  H21 UNL     1      34.592  37.052  17.439  1.00  0.00     0.278 HD
ATOM      8  H22 UNL     1      35.516  35.917  16.590  1.00  0.00     0.278 HD
ATOM      9  H23 UNL     1      34.500  36.748  15.777  1.00  0.00     0.278 HD
HETATM   10  N3  UNL     1      36.980  38.170  17.390  1.00  0.00    -0.172 N
ATOM     11  H3  UNL     1      37.292  39.138  17.320  1.00  0.00     0.181 HD
HETATM   12  C2  UNL     1      37.502  37.599  18.371  1.00  0.00     0.696 A
HETATM   13  N4  UNL     1      37.386  36.362  18.835  1.00  0.00    -0.185 N
ATOM     14  H4  UNL     1      36.804  35.630  18.427  1.00  0.00     0.185 HD
HETATM   15  C3  UNL     1      38.149  36.226  19.918  1.00  0.00     0.215 A
HETATM   16  N5  UNL     1      38.749  37.413  20.120  1.00  0.00    -0.281 N
ATOM     17  H5  UNL     1      39.398  37.620  20.878  1.00  0.00     0.188 HD
HETATM   18  N6  UNL     1      38.373  38.262  19.196  1.00  0.00    -0.131 N
ATOM     19  H6  UNL     1      38.673  39.233  19.106  1.00  0.00     0.205 HD
ENDROOT
TORSDOF 0
ENDMDL