MODEL 1
REMARK VINA RESULT: -5.419115208      0.000      0.000
REMARK  3 active torsions:
REMARK  status: ('A' for Active; 'I' for Inactive)
REMARK    1  A    between atoms: C3_10  and  C4_11
REMARK    2  A    between atoms: C4_11  and  O1_12
REMARK    3  A    between atoms: O1_12  and  N4_13
ROOT
HETATM    1  N1  UNL     1      35.375  38.951  17.316  1.00  0.00    -0.387 N
ATOM      2  H11 UNL     1      34.738  38.529  16.640  1.00  0.00     0.157 HD
ATOM      3  H12 UNL     1      35.050  39.910  17.443  1.00  0.00     0.157 HD
HETATM    4  C1  UNL     1      36.368  38.307  17.848  1.00  0.00     0.100 A
HETATM    5  N2  UNL     1      37.251  38.891  18.784  1.00  0.00    -0.289 N
ATOM      6  H2  UNL     1      37.210  39.847  19.135  1.00  0.00     0.188 HD
HETATM    7  N3  UNL     1      38.187  37.921  19.139  1.00  0.00    -0.314 N
ATOM      8  H3  UNL     1      38.942  38.083  19.805  1.00  0.00     0.185 HD
HETATM    9  C2  UNL     1      38.000  36.815  18.546  1.00  0.00     0.094 A
HETATM   10  C3  UNL     1      36.834  36.932  17.667  1.00  0.00     0.120 A
ENDROOT
BRANCH  10  11
HETATM   11  C4  UNL     1      37.136  36.577  16.236  1.00  0.00     0.218 C
BRANCH  11  12
HETATM   12  O1  UNL     1      37.366  37.757  15.533  1.00  0.00    -0.286 OA
BRANCH  12  13
HETATM   13  N4  UNL     1      36.783  37.699  14.321  1.00  0.00    -0.311 N
ATOM     14  H42 UNL     1      36.689  36.844  13.773  1.00  0.00     0.184 HD
ATOM     15  H41 UNL     1      36.458  38.623  14.040  1.00  0.00     0.184 HD
ENDBRANCH  12  13
ENDBRANCH  11  12
ENDBRANCH  10  11
TORSDOF 3
ENDMDL