MODEL 5
REMARK VINA RESULT: -5.430289971      1.825      2.335
REMARK  4 active torsions:
REMARK  status: ('A' for Active; 'I' for Inactive)
REMARK    1  A    between atoms: N1_1  and  C1_4
REMARK    2  A    between atoms: C3_9  and  O2_10
REMARK    3  A    between atoms: O2_10  and  N3_11
REMARK    4  A    between atoms: N3_11  and  N4_12
ROOT
HETATM    1  C1  UNL     1      37.323  36.008  17.778  1.00  0.00     0.157 A
HETATM    2  N2  UNL     1      38.230  36.204  18.750  1.00  0.00    -0.243 N
ATOM      3  H2  UNL     1      38.701  35.456  19.259  1.00  0.00     0.196 HD
HETATM    4  O1  UNL     1      38.426  37.471  18.953  1.00  0.00    -0.245 OA
HETATM    5  C2  UNL     1      37.669  38.180  18.137  1.00  0.00     0.210 A
HETATM    6  C3  UNL     1      36.949  37.286  17.369  1.00  0.00     0.165 A
ENDROOT
BRANCH   6   7
HETATM    7  O2  UNL     1      36.032  37.542  16.385  1.00  0.00    -0.218 OA
BRANCH   7   8
HETATM    8  N3  UNL     1      36.054  37.015  15.138  1.00  0.00     0.020 NA
BRANCH   8   9
HETATM    9  N4  UNL     1      36.760  37.843  14.265  1.00  0.00    -0.322 N
ATOM     10  H42 UNL     1      37.332  38.631  14.568  1.00  0.00     0.174 HD
ATOM     11  H41 UNL     1      36.622  37.548  13.298  1.00  0.00     0.174 HD
ENDBRANCH   8   9
ENDBRANCH   7   8
ENDBRANCH   6   7
BRANCH   1  12
HETATM   12  N1  UNL     1      36.923  34.876  17.354  1.00  0.00    -0.382 N
ATOM     13  H12 UNL     1      36.339  34.659  16.547  1.00  0.00     0.157 HD
ATOM     14  H11 UNL     1      37.139  33.973  17.777  1.00  0.00     0.157 HD
ENDBRANCH   1  12
TORSDOF 4
ENDMDL