MODEL 3
REMARK VINA RESULT: -7.129847991      1.798      2.574
REMARK  13 active torsions:
REMARK  status: ('A' for Active; 'I' for Inactive)
REMARK    1  A    between atoms: C2_2  and  C4_4
REMARK    2  A    between atoms: C4_4  and  C5_5
REMARK    3  A    between atoms: C4_4  and  O3_32
REMARK    4  A    between atoms: C5_5  and  N1_6
REMARK    5  A    between atoms: N1_6  and  C6_8
REMARK    6  A    between atoms: C6_8  and  O1_9
REMARK    7  A    between atoms: C6_8  and  C7_11
REMARK    8  A    between atoms: C10_14  and  N2_15
REMARK    9  A    between atoms: C18_23  and  C19_24
REMARK       I    between atoms: C19_24  and  N3_26
REMARK   10  A    between atoms: N3_26  and  C20_28
REMARK   11  A    between atoms: O3_32  and  C24_33
REMARK   12  A    between atoms: C24_33  and  C25_34
REMARK   13  A    between atoms: C29_38  and  C30_39
ROOT
HETATM    1  C6  UNL     1      39.168  26.815  20.304  1.00  0.00     0.116 C
ENDROOT
BRANCH   1   2
HETATM    2  N1  UNL     1      39.624  25.710  19.563  1.00  0.00    -0.372 N
ATOM      3  H1  UNL     1      40.083  25.890  18.671  1.00  0.00     0.161 HD
BRANCH   2   4
HETATM    4  C5  UNL     1      39.484  24.357  19.979  1.00  0.00     0.153 C
BRANCH   4   5
HETATM    5  C4  UNL     1      38.125  23.754  20.048  1.00  0.00     0.143 C
BRANCH   5   6
HETATM    6  C2  UNL     1      37.602  23.181  18.773  1.00  0.00     0.008 C
HETATM    7  C1  UNL     1      37.990  21.697  18.748  1.00  0.00     0.012 C
HETATM    8  C3  UNL     1      36.125  23.243  18.593  1.00  0.00     0.012 C
ENDBRANCH   5   6
BRANCH   5   9
HETATM    9  O3  UNL     1      38.160  22.657  20.974  1.00  0.00    -0.379 OA
BRANCH   9  10
HETATM   10  C24 UNL     1      38.066  23.104  22.282  1.00  0.00     0.207 C
BRANCH  10  11
HETATM   11  C25 UNL     1      36.896  23.983  22.489  1.00  0.00    -0.034 A
HETATM   12  C26 UNL     1      35.595  23.661  22.188  1.00  0.00     0.009 A
HETATM   13  C27 UNL     1      34.542  24.513  22.395  1.00  0.00     0.002 A
HETATM   14  C28 UNL     1      34.791  25.778  22.941  1.00  0.00     0.015 A
HETATM   15  C29 UNL     1      36.082  26.137  23.257  1.00  0.00     0.005 A
HETATM   16  C31 UNL     1      37.120  25.255  23.036  1.00  0.00     0.024 A
BRANCH  15  17
HETATM   17  C30 UNL     1      36.308  27.471  23.825  1.00  0.00     0.120 C
HETATM   18  N4  UNL     1      37.440  28.072  23.806  1.00  0.00    -0.387 N
ATOM     19  H42 UNL     1      38.209  27.564  23.368  1.00  0.00     0.157 HD
ATOM     20  H41 UNL     1      37.597  28.999  24.201  1.00  0.00     0.157 HD
HETATM   21  N5  UNL     1      35.234  28.181  24.438  1.00  0.00    -0.082 NA
ENDBRANCH  15  17
ENDBRANCH  10  11
ENDBRANCH   9  10
ENDBRANCH   5   9
ENDBRANCH   4   5
ENDBRANCH   2   4
ENDBRANCH   1   2
BRANCH   1  22
HETATM   22  O1  UNL     1      40.109  27.322  21.057  1.00  0.00    -0.349 OA
ATOM     23  H1  UNL     1      39.767  27.960  21.673  1.00  0.00     0.219 HD
ENDBRANCH   1  22
BRANCH   1  24
HETATM   24  C7  UNL     1      37.842  27.417  20.304  1.00  0.00     0.073 C
HETATM   25  C8  UNL     1      37.966  28.920  20.257  1.00  0.00     0.016 C
HETATM   26  C9  UNL     1      36.655  29.651  20.234  1.00  0.00     0.036 C
HETATM   27  C10 UNL     1      35.590  28.673  20.630  1.00  0.00     0.224 C
HETATM   28  C17 UNL     1      35.470  27.572  19.630  1.00  0.00     0.050 C
HETATM   29  C18 UNL     1      36.817  26.898  19.359  1.00  0.00     0.091 C
BRANCH  27  30
HETATM   30  N2  UNL     1      34.306  29.348  20.781  1.00  0.00     0.093 N
HETATM   31  C11 UNL     1      33.304  28.580  21.419  1.00  0.00     0.273 C
HETATM   32  C12 UNL     1      31.980  28.549  20.688  1.00  0.00     0.030 C
HETATM   33  C13 UNL     1      31.267  29.886  20.744  1.00  0.00     0.002 C
HETATM   34  C14 UNL     1      31.572  30.631  19.463  1.00  0.00     0.002 C
HETATM   35  C15 UNL     1      33.025  31.072  19.559  1.00  0.00     0.030 C
HETATM   36  C16 UNL     1      33.967  29.900  19.506  1.00  0.00     0.273 C
ENDBRANCH  27  30
BRANCH  29  37
HETATM   37  C19 UNL     1      37.083  27.136  17.931  1.00  0.00     0.223 C
HETATM   38  O2  UNL     1      38.010  26.572  17.265  1.00  0.00    -0.273 OA
HETATM   39  N3  UNL     1      36.304  28.051  17.146  1.00  0.00    -0.356 N
ATOM     40  H3  UNL     1      35.543  28.544  17.613  1.00  0.00     0.162 HD
BRANCH  39  41
HETATM   41  C20 UNL     1      36.516  28.323  15.753  1.00  0.00     0.088 A
HETATM   42  C21 UNL     1      35.413  28.869  14.921  1.00  0.00     0.031 A
HETATM   43  C22 UNL     1      36.540  29.796  15.382  1.00  0.00     0.006 A
HETATM   44  C23 UNL     1      37.495  30.276  14.313  1.00  0.00     0.012 C
ENDBRANCH  39  41
ENDBRANCH  29  37
ENDBRANCH   1  24
TORSDOF 13
ENDMDL