MODEL 4
REMARK VINA RESULT: -6.081172853      2.358      5.610
REMARK  13 active torsions:
REMARK  status: ('A' for Active; 'I' for Inactive)
REMARK    1  A    between atoms: C2_2  and  C3_3
REMARK    2  A    between atoms: C2_2  and  C16_22
REMARK    3  A    between atoms: C3_3  and  N1_4
REMARK    4  A    between atoms: N1_4  and  C4_6
REMARK    5  A    between atoms: C4_6  and  C5_7
REMARK    6  A    between atoms: C4_6  and  C9_12
REMARK    7  A    between atoms: C5_7  and  N2_8
REMARK       I    between atoms: C9_12  and  N3_14
REMARK    8  A    between atoms: N3_14  and  C10_16
REMARK    9  A    between atoms: C16_22  and  C17_23
REMARK   10  A    between atoms: C16_22  and  N4_30
REMARK   11  A    between atoms: C17_23  and  C18_24
REMARK       I    between atoms: N4_30  and  C24_32
REMARK   12  A    between atoms: C24_32  and  O3_34
REMARK   13  A    between atoms: O3_34  and  C25_35
ROOT
HETATM    1  C1  UNL     1      34.606  28.147  23.581  1.00  0.00     0.018 C
HETATM    2  C2  UNL     1      34.096  27.120  22.873  1.00  0.00    -0.049 C
ENDROOT
BRANCH   2   3
HETATM    3  C3  UNL     1      34.496  25.742  23.471  1.00  0.00     0.150 C
BRANCH   3   4
HETATM    4  N1  UNL     1      35.880  25.843  23.716  1.00  0.00    -0.404 N
ATOM      5  H1  UNL     1      36.182  26.353  24.546  1.00  0.00     0.154 HD
BRANCH   4   6
HETATM    6  C4  UNL     1      36.859  25.293  22.899  1.00  0.00     0.196 C
BRANCH   6   7
HETATM    7  C5  UNL     1      36.489  24.051  22.181  1.00  0.00     0.270 C
BRANCH   7   8
HETATM    8  N2  UNL     1      37.193  22.871  22.122  1.00  0.00    -0.076 N
HETATM    9  C6  UNL     1      36.438  21.614  22.181  1.00  0.00     0.271 C
HETATM   10  C7  UNL     1      38.283  22.626  21.258  1.00  0.00     0.271 C
HETATM   11  C8  UNL     1      37.868  22.812  23.501  1.00  0.00     0.271 C
ENDBRANCH   7   8
ENDBRANCH   6   7
BRANCH   6  12
HETATM   12  C9  UNL     1      37.545  26.344  22.089  1.00  0.00     0.242 C
HETATM   13  O1  UNL     1      38.617  26.865  22.543  1.00  0.00    -0.271 OA
HETATM   14  N3  UNL     1      37.097  26.800  20.818  1.00  0.00    -0.355 N
ATOM     15  H3  UNL     1      36.244  26.397  20.430  1.00  0.00     0.162 HD
BRANCH  14  16
HETATM   16  C10 UNL     1      37.790  27.804  20.052  1.00  0.00     0.084 C
HETATM   17  C11 UNL     1      37.830  27.380  18.588  1.00  0.00     0.025 C
HETATM   18  C12 UNL     1      36.674  27.917  17.822  1.00  0.00     0.002 C
HETATM   19  C13 UNL     1      36.657  29.425  17.690  1.00  0.00     0.000 C
HETATM   20  C14 UNL     1      37.537  29.948  18.813  1.00  0.00     0.002 C
HETATM   21  C15 UNL     1      37.203  29.175  20.092  1.00  0.00     0.025 C
ENDBRANCH  14  16
ENDBRANCH   6  12
ENDBRANCH   4   6
ENDBRANCH   3   4
ENDBRANCH   2   3
BRANCH   2  22
HETATM   22  C16 UNL     1      33.370  27.355  21.667  1.00  0.00     0.117 C
BRANCH  22  23
HETATM   23  C17 UNL     1      33.106  28.654  21.101  1.00  0.00     0.034 C
BRANCH  23  24
HETATM   24  C18 UNL     1      33.460  29.136  19.787  1.00  0.00    -0.012 C
HETATM   25  C19 UNL     1      33.774  30.674  20.006  1.00  0.00     0.005 C
HETATM   26  C20 UNL     1      32.606  31.451  19.493  1.00  0.00     0.000 C
HETATM   27  C21 UNL     1      32.628  31.441  17.952  1.00  0.00     0.000 C
HETATM   28  C22 UNL     1      33.042  30.047  17.517  1.00  0.00     0.000 C
HETATM   29  C23 UNL     1      32.580  29.019  18.607  1.00  0.00     0.005 C
ENDBRANCH  23  24
ENDBRANCH  22  23
BRANCH  22  30
HETATM   30  N4  UNL     1      33.925  26.435  20.624  1.00  0.00    -0.328 N
HETATM   31  C24 UNL     1      33.111  25.467  19.989  1.00  0.00     0.361 C
HETATM   32  O2  UNL     1      31.864  25.383  20.308  1.00  0.00    -0.238 OA
ATOM     33  H4  UNL     1      34.909  26.508  20.366  1.00  0.00     0.165 HD
BRANCH  31  34
HETATM   34  O3  UNL     1      33.535  24.579  19.029  1.00  0.00    -0.298 OA
BRANCH  34  35
HETATM   35  C25 UNL     1      34.605  23.690  19.292  1.00  0.00     0.142 C
HETATM   36  C26 UNL     1      35.840  24.149  18.557  1.00  0.00     0.065 C
HETATM   37  C27 UNL     1      36.315  22.966  17.728  1.00  0.00     0.124 C
HETATM   38  C28 UNL     1      35.744  21.815  18.579  1.00  0.00     0.041 C
HETATM   39  O4  UNL     1      35.483  22.849  16.618  1.00  0.00    -0.385 OA
HETATM   40  C29 UNL     1      34.339  22.359  18.578  1.00  0.00     0.042 C
HETATM   41  C30 UNL     1      34.182  22.725  17.139  1.00  0.00     0.175 C
ENDBRANCH  34  35
ENDBRANCH  31  34
ENDBRANCH  22  30
ENDBRANCH   2  22
TORSDOF 13
ENDMDL