MODEL 4
REMARK VINA RESULT: -7.310357503      1.920      2.809
REMARK  14 active torsions:
REMARK  status: ('A' for Active; 'I' for Inactive)
REMARK    1  A    between atoms: C5_5  and  C6_6
REMARK    2  A    between atoms: C6_6  and  C7_7
REMARK    3  A    between atoms: C7_7  and  C8_8
REMARK    4  A    between atoms: C8_8  and  O1_9
REMARK    5  A    between atoms: C8_8  and  C9_11
REMARK    6  A    between atoms: C9_11  and  O2_12
REMARK    7  A    between atoms: C9_11  and  C10_14
REMARK    8  A    between atoms: C11_15  and  C12_16
REMARK    9  A    between atoms: N1_18  and  C14_19
REMARK   10  A    between atoms: C14_19  and  C15_20
REMARK       I    between atoms: C15_20  and  N2_22
REMARK   11  A    between atoms: N2_22  and  C16_24
REMARK   12  A    between atoms: C23_32  and  C24_33
REMARK   13  A    between atoms: C24_33  and  O5_34
REMARK   14  A    between atoms: C24_33  and  C25_36
ROOT
HETATM    1  C12 UNL     1      36.318  26.396  22.319  1.00  0.00     0.033 C
HETATM    2  C13 UNL     1      34.903  26.399  22.786  1.00  0.00     0.135 C
HETATM    3  N1  UNL     1      34.434  27.653  23.310  1.00  0.00    -0.343 N
HETATM    4  C21 UNL     1      35.304  28.378  24.154  1.00  0.00     0.220 C
HETATM    5  O4  UNL     1      34.910  29.319  24.872  1.00  0.00    -0.273 OA
HETATM    6  C22 UNL     1      36.751  27.931  24.128  1.00  0.00     0.110 C
HETATM    7  C23 UNL     1      37.079  27.675  22.684  1.00  0.00     0.033 C
ENDROOT
BRANCH   1   8
HETATM    8  C11 UNL     1      37.002  25.200  22.842  1.00  0.00    -0.021 C
HETATM    9  C10 UNL     1      37.101  24.046  22.182  1.00  0.00     0.003 C
BRANCH   9  10
HETATM   10  C9  UNL     1      37.792  22.890  22.749  1.00  0.00     0.169 C
BRANCH  10  11
HETATM   11  C8  UNL     1      37.059  21.592  22.440  1.00  0.00     0.151 C
BRANCH  11  12
HETATM   12  C7  UNL     1      35.866  21.803  21.592  1.00  0.00     0.039 C
BRANCH  12  13
HETATM   13  C6  UNL     1      36.013  21.291  20.210  1.00  0.00     0.041 C
BRANCH  13  14
HETATM   14  C5  UNL     1      35.102  20.236  19.814  1.00  0.00    -0.058 A
HETATM   15  C4  UNL     1      34.980  19.066  20.569  1.00  0.00     0.007 A
HETATM   16  C3  UNL     1      34.099  18.057  20.263  1.00  0.00     0.007 A
HETATM   17  C2  UNL     1      33.280  18.174  19.165  1.00  0.00    -0.062 A
HETATM   18  C1  UNL     1      32.343  17.067  18.864  1.00  0.00     0.048 C
HETATM   19  C32 UNL     1      33.367  19.308  18.396  1.00  0.00     0.007 A
HETATM   20  C31 UNL     1      34.249  20.303  18.713  1.00  0.00     0.007 A
ENDBRANCH  13  14
ENDBRANCH  12  13
ENDBRANCH  11  12
BRANCH  11  21
HETATM   21  O1  UNL     1      36.718  21.022  23.654  1.00  0.00    -0.393 OA
ATOM     22  H1  UNL     1      36.413  21.677  24.270  1.00  0.00     0.210 HD
ENDBRANCH  11  21
ENDBRANCH  10  11
BRANCH  10  23
HETATM   23  O2  UNL     1      37.920  22.926  24.134  1.00  0.00    -0.389 OA
ATOM     24  H2  UNL     1      37.108  22.571  24.476  1.00  0.00     0.210 HD
ENDBRANCH  10  23
ENDBRANCH   9  10
ENDBRANCH   1   8
BRANCH   7  25
HETATM   25  C24 UNL     1      38.511  27.497  22.358  1.00  0.00     0.127 C
BRANCH  25  26
HETATM   26  O5  UNL     1      39.399  27.947  23.313  1.00  0.00    -0.395 OA
ATOM     27  H5  UNL     1      39.296  28.856  23.570  1.00  0.00     0.210 HD
ENDBRANCH  25  26
BRANCH  25  28
HETATM   28  C25 UNL     1      38.982  27.780  20.977  1.00  0.00     0.015 C
HETATM   29  C26 UNL     1      37.900  28.605  20.309  1.00  0.00     0.007 C
HETATM   30  C27 UNL     1      37.982  28.627  18.833  1.00  0.00     0.000 C
HETATM   31  C28 UNL     1      38.344  27.351  18.159  1.00  0.00     0.000 C
HETATM   32  C29 UNL     1      39.655  26.872  18.750  1.00  0.00     0.000 C
HETATM   33  C30 UNL     1      39.348  26.568  20.225  1.00  0.00     0.007 C
ENDBRANCH  25  28
ENDBRANCH   7  25
BRANCH   3  34
HETATM   34  C14 UNL     1      33.119  28.145  22.995  1.00  0.00     0.228 C
BRANCH  34  35
HETATM   35  C15 UNL     1      32.942  28.450  21.575  1.00  0.00     0.235 C
HETATM   36  O3  UNL     1      32.203  27.724  20.870  1.00  0.00    -0.272 OA
HETATM   37  N2  UNL     1      33.592  29.553  20.979  1.00  0.00    -0.355 N
ATOM     38  H2  UNL     1      34.191  30.140  21.560  1.00  0.00     0.162 HD
BRANCH  37  39
HETATM   39  C16 UNL     1      33.445  29.883  19.588  1.00  0.00     0.084 C
HETATM   40  C17 UNL     1      32.557  31.105  19.423  1.00  0.00     0.025 C
HETATM   41  C18 UNL     1      32.768  31.420  17.957  1.00  0.00     0.002 C
HETATM   42  C19 UNL     1      34.124  30.866  17.581  1.00  0.00     0.002 C
HETATM   43  C20 UNL     1      34.691  30.295  18.889  1.00  0.00     0.025 C
ENDBRANCH  37  39
ENDBRANCH  34  35
ENDBRANCH   3  34
TORSDOF 14
ENDMDL