MODEL 4
REMARK VINA RESULT: -7.148570138      1.167      1.643
REMARK  14 active torsions:
REMARK  status: ('A' for Active; 'I' for Inactive)
REMARK    1  A    between atoms: C2_2  and  C4_4
REMARK    2  A    between atoms: C2_2  and  N3_33
REMARK    3  A    between atoms: C4_4  and  C5_5
REMARK    4  A    between atoms: C5_5  and  N1_6
REMARK    5  A    between atoms: C5_5  and  C22_27
REMARK    6  A    between atoms: N1_6  and  C6_8
REMARK    7  A    between atoms: C6_8  and  C7_9
REMARK    8  A    between atoms: C6_8  and  C14_16
REMARK    9  A    between atoms: C7_9  and  C8_10
REMARK   10  A    between atoms: C14_16  and  O1_17
REMARK   11  A    between atoms: C14_16  and  N2_19
REMARK   12  A    between atoms: N3_33  and  C28_35
REMARK   13  A    between atoms: C28_35  and  C29_36
REMARK   14  A    between atoms: C28_35  and  C30_39
ROOT
HETATM    1  N1  UNL     1      33.825  25.847  21.941  1.00  0.00    -0.406 N
ATOM      2  H1  UNL     1      33.418  25.697  22.865  1.00  0.00     0.154 HD
ENDROOT
BRANCH   1   3
HETATM    3  C5  UNL     1      34.023  24.744  21.005  1.00  0.00     0.083 C
BRANCH   3   4
HETATM    4  C4  UNL     1      34.328  23.531  21.692  1.00  0.00     0.054 C
BRANCH   4   5
HETATM    5  C2  UNL     1      35.291  22.474  21.265  1.00  0.00     0.021 C
HETATM    6  C1  UNL     1      34.965  21.878  19.919  1.00  0.00     0.037 C
HETATM    7  C3  UNL     1      35.618  21.396  22.218  1.00  0.00     0.037 C
BRANCH   5   8
HETATM    8  N3  UNL     1      36.557  23.232  21.080  1.00  0.00    -0.392 N
ATOM      9  H3  UNL     1      36.552  24.252  21.055  1.00  0.00     0.155 HD
BRANCH   8  10
HETATM   10  C28 UNL     1      37.739  22.534  20.941  1.00  0.00     0.281 C
BRANCH  10  11
HETATM   11  C29 UNL     1      38.421  23.022  19.662  1.00  0.00     0.207 C
HETATM   12  O2  UNL     1      38.756  24.221  19.626  1.00  0.00    -0.646 OA
HETATM   13  O3  UNL     1      38.666  22.214  18.596  1.00  0.00    -0.646 OA
ENDBRANCH  10  11
BRANCH  10  14
HETATM   14  C30 UNL     1      38.809  22.699  21.947  1.00  0.00     0.207 C
HETATM   15  O4  UNL     1      39.967  22.285  21.802  1.00  0.00    -0.646 OA
HETATM   16  O5  UNL     1      38.515  23.357  23.139  1.00  0.00    -0.646 OA
ENDBRANCH  10  14
ENDBRANCH   8  10
ENDBRANCH   5   8
ENDBRANCH   4   5
ENDBRANCH   3   4
BRANCH   3  17
HETATM   17  C22 UNL     1      33.017  24.927  19.940  1.00  0.00     0.008 C
HETATM   18  C23 UNL     1      31.682  24.318  20.061  1.00  0.00     0.007 C
HETATM   19  C24 UNL     1      30.906  24.619  18.768  1.00  0.00     0.000 C
HETATM   20  C25 UNL     1      31.266  25.972  18.233  1.00  0.00     0.000 C
HETATM   21  C26 UNL     1      32.681  26.096  17.764  1.00  0.00     0.000 C
HETATM   22  C27 UNL     1      33.533  25.063  18.523  1.00  0.00     0.007 C
ENDBRANCH   3  17
ENDBRANCH   1   3
BRANCH   1  23
HETATM   23  C6  UNL     1      34.237  27.167  21.496  1.00  0.00     0.152 C
BRANCH  23  24
HETATM   24  C7  UNL     1      33.180  28.168  21.495  1.00  0.00     0.037 C
BRANCH  24  25
HETATM   25  C8  UNL     1      32.891  28.902  20.211  1.00  0.00    -0.012 C
HETATM   26  C9  UNL     1      33.529  30.286  20.384  1.00  0.00     0.005 C
HETATM   27  C10 UNL     1      33.445  30.958  19.052  1.00  0.00     0.000 C
HETATM   28  C11 UNL     1      32.006  31.164  18.706  1.00  0.00     0.000 C
HETATM   29  C12 UNL     1      31.088  30.621  19.769  1.00  0.00     0.000 C
HETATM   30  C13 UNL     1      31.396  29.184  20.086  1.00  0.00     0.005 C
ENDBRANCH  24  25
ENDBRANCH  23  24
BRANCH  23  31
HETATM   31  C14 UNL     1      35.531  27.382  22.119  1.00  0.00     0.137 C
BRANCH  31  32
HETATM   32  O1  UNL     1      35.336  27.670  23.422  1.00  0.00    -0.348 OA
ATOM     33  H1  UNL     1      36.150  27.518  23.888  1.00  0.00     0.219 HD
ENDBRANCH  31  32
BRANCH  31  34
HETATM   34  N2  UNL     1      36.874  27.391  21.791  1.00  0.00    -0.354 N
HETATM   35  C15 UNL     1      38.060  27.049  22.535  1.00  0.00     0.130 C
HETATM   36  C16 UNL     1      39.015  28.051  21.996  1.00  0.00     0.010 A
HETATM   37  C17 UNL     1      40.008  28.054  20.997  1.00  0.00     0.014 A
HETATM   38  C18 UNL     1      38.807  27.469  20.535  1.00  0.00     0.019 A
HETATM   39  C19 UNL     1      37.414  27.869  20.465  1.00  0.00     0.031 C
HETATM   40  C20 UNL     1      37.137  29.322  20.293  1.00  0.00     0.038 C
HETATM   41  C21 UNL     1      36.663  27.102  19.410  1.00  0.00     0.038 C
ENDBRANCH  31  34
ENDBRANCH  23  31
ENDBRANCH   1  23
TORSDOF 14
ENDMDL