MODEL 4
REMARK VINA RESULT: -7.011276044      1.352      1.987
REMARK  14 active torsions:
REMARK  status: ('A' for Active; 'I' for Inactive)
REMARK       I    between atoms: C2_2  and  N1_4
REMARK    1  A    between atoms: N1_4  and  C4_6
REMARK    2  A    between atoms: C4_6  and  C5_7
REMARK    3  A    between atoms: C4_6  and  C26_38
REMARK       I    between atoms: C5_7  and  N2_9
REMARK    4  A    between atoms: N2_9  and  C6_11
REMARK    5  A    between atoms: C6_11  and  C7_12
REMARK    6  A    between atoms: C6_11  and  C14_19
REMARK    7  A    between atoms: C7_12  and  C8_13
REMARK    8  A    between atoms: C14_19  and  O3_20
REMARK    9  A    between atoms: C14_19  and  C15_22
REMARK   10  A    between atoms: C15_22  and  O4_23
REMARK   11  A    between atoms: C15_22  and  C16_25
REMARK       I    between atoms: C16_25  and  N3_27
REMARK   12  A    between atoms: N3_27  and  C17_29
REMARK   13  A    between atoms: C17_29  and  C19_31
REMARK   14  A    between atoms: C19_31  and  C20_32
ROOT
HETATM    1  C6  UNL     1      38.840  26.682  21.340  1.00  0.00     0.116 C
ENDROOT
BRANCH   1   2
HETATM    2  N2  UNL     1      38.011  25.668  20.797  1.00  0.00    -0.352 N
HETATM    3  C5  UNL     1      37.940  24.328  21.130  1.00  0.00     0.241 C
HETATM    4  O2  UNL     1      38.701  23.898  22.088  1.00  0.00    -0.271 OA
ATOM      5  H2  UNL     1      37.377  25.970  20.056  1.00  0.00     0.163 HD
BRANCH   3   6
HETATM    6  C4  UNL     1      37.123  23.233  20.583  1.00  0.00     0.182 C
BRANCH   6   7
HETATM    7  N1  UNL     1      35.769  23.490  21.090  1.00  0.00    -0.343 N
HETATM    8  C2  UNL     1      35.262  22.615  22.067  1.00  0.00     0.216 C
HETATM    9  C1  UNL     1      36.049  21.460  22.592  1.00  0.00     0.117 C
HETATM   10  O1  UNL     1      34.084  22.830  22.511  1.00  0.00    -0.274 OA
HETATM   11  C3  UNL     1      34.932  24.564  20.656  1.00  0.00     0.153 C
ENDBRANCH   6   7
BRANCH   6  12
HETATM   12  C26 UNL     1      37.214  23.093  19.136  1.00  0.00     0.018 C
HETATM   13  C27 UNL     1      38.417  22.274  18.754  1.00  0.00     0.007 C
HETATM   14  C28 UNL     1      37.868  20.924  18.265  1.00  0.00     0.000 C
HETATM   15  C29 UNL     1      36.651  21.403  17.502  1.00  0.00     0.000 C
HETATM   16  C30 UNL     1      36.061  22.423  18.457  1.00  0.00     0.007 C
ENDBRANCH   6  12
ENDBRANCH   3   6
ENDBRANCH   1   2
BRANCH   1  17
HETATM   17  C7  UNL     1      38.254  27.523  22.448  1.00  0.00     0.032 C
BRANCH  17  18
HETATM   18  C8  UNL     1      36.759  27.367  22.569  1.00  0.00    -0.013 C
HETATM   19  C9  UNL     1      36.464  26.253  23.551  1.00  0.00     0.005 C
HETATM   20  C10 UNL     1      35.045  26.273  24.049  1.00  0.00     0.000 C
HETATM   21  C11 UNL     1      34.157  27.203  23.247  1.00  0.00     0.000 C
HETATM   22  C12 UNL     1      34.717  28.588  23.423  1.00  0.00     0.000 C
HETATM   23  C13 UNL     1      36.122  28.683  22.957  1.00  0.00     0.005 C
ENDBRANCH  17  18
ENDBRANCH   1  17
BRANCH   1  24
HETATM   24  C14 UNL     1      39.477  27.544  20.297  1.00  0.00     0.178 C
BRANCH  24  25
HETATM   25  O3  UNL     1      40.729  27.022  19.909  1.00  0.00    -0.390 OA
ATOM     26  H3  UNL     1      41.405  27.688  19.959  1.00  0.00     0.210 HD
ENDBRANCH  24  25
BRANCH  24  27
HETATM   27  C15 UNL     1      38.668  27.742  19.061  1.00  0.00     0.240 C
BRANCH  27  28
HETATM   28  O4  UNL     1      37.895  26.658  18.682  1.00  0.00    -0.383 OA
ATOM     29  H4  UNL     1      37.601  26.667  17.780  1.00  0.00     0.210 HD
ENDBRANCH  27  28
BRANCH  27  30
HETATM   30  C16 UNL     1      37.773  28.930  19.172  1.00  0.00     0.249 C
HETATM   31  O5  UNL     1      38.222  29.969  19.702  1.00  0.00    -0.271 OA
HETATM   32  N3  UNL     1      36.449  28.910  18.699  1.00  0.00    -0.355 N
ATOM     33  H3  UNL     1      36.085  28.062  18.265  1.00  0.00     0.162 HD
BRANCH  32  34
HETATM   34  C17 UNL     1      35.600  30.065  18.815  1.00  0.00     0.080 C
HETATM   35  C18 UNL     1      34.985  30.453  17.490  1.00  0.00     0.032 C
BRANCH  34  36
HETATM   36  C19 UNL     1      34.678  30.076  19.971  1.00  0.00     0.029 C
BRANCH  36  37
HETATM   37  C20 UNL     1      33.378  29.411  19.909  1.00  0.00    -0.013 C
HETATM   38  C21 UNL     1      33.375  27.914  19.792  1.00  0.00     0.005 C
HETATM   39  C22 UNL     1      31.948  27.362  19.958  1.00  0.00     0.000 C
HETATM   40  C23 UNL     1      30.975  28.355  19.410  1.00  0.00     0.000 C
HETATM   41  C24 UNL     1      30.978  29.624  20.238  1.00  0.00     0.000 C
HETATM   42  C25 UNL     1      32.343  29.823  20.924  1.00  0.00     0.005 C
ENDBRANCH  36  37
ENDBRANCH  34  36
ENDBRANCH  32  34
ENDBRANCH  27  30
ENDBRANCH  24  27
ENDBRANCH   1  24
TORSDOF 14
ENDMDL