MODEL 3
REMARK VINA RESULT: -6.652032628      2.845     10.170
REMARK  13 active torsions:
REMARK  status: ('A' for Active; 'I' for Inactive)
REMARK    1  A    between atoms: C2_2  and  C4_4
REMARK    2  A    between atoms: C4_4  and  C5_5
REMARK    3  A    between atoms: C5_5  and  O1_6
REMARK    4  A    between atoms: O1_6  and  C6_7
REMARK       I    between atoms: C6_7  and  N1_9
REMARK    5  A    between atoms: N1_9  and  C7_11
REMARK    6  A    between atoms: C7_11  and  C8_12
REMARK    7  A    between atoms: C7_11  and  C26_38
REMARK       I    between atoms: C8_12  and  N2_14
REMARK    8  A    between atoms: N2_14  and  C9_16
REMARK    9  A    between atoms: C17_24  and  C18_25
REMARK       I    between atoms: C18_25  and  N3_27
REMARK   10  A    between atoms: N3_27  and  C19_29
REMARK   11  A    between atoms: C19_29  and  C20_30
REMARK   12  A    between atoms: C19_29  and  C24_34
REMARK   13  A    between atoms: C20_30  and  C21_31
ROOT
HETATM    1  C9  UNL     1      30.440  28.635  18.745  1.00  0.00     0.084 C
HETATM    2  C10 UNL     1      31.283  27.420  19.043  1.00  0.00     0.026 C
HETATM    3  C11 UNL     1      31.875  27.549  20.397  1.00  0.00     0.012 C
HETATM    4  C12 UNL     1      32.741  28.775  20.591  1.00  0.00    -0.028 C
HETATM    5  C13 UNL     1      32.974  28.916  22.074  1.00  0.00     0.016 C
HETATM    6  C14 UNL     1      32.028  30.030  20.133  1.00  0.00    -0.004 C
HETATM    7  C15 UNL     1      33.180  31.001  19.830  1.00  0.00     0.006 C
HETATM    8  C16 UNL     1      34.230  30.093  19.237  1.00  0.00     0.015 C
HETATM    9  C17 UNL     1      34.011  28.708  19.822  1.00  0.00     0.086 C
HETATM   10  C25 UNL     1      31.267  29.855  18.874  1.00  0.00     0.030 C
ENDROOT
BRANCH   1  11
HETATM   11  N2  UNL     1      29.199  28.669  19.502  1.00  0.00    -0.355 N
HETATM   12  C8  UNL     1      27.943  28.802  18.894  1.00  0.00     0.241 C
HETATM   13  O3  UNL     1      27.968  28.897  17.609  1.00  0.00    -0.271 OA
ATOM     14  H2  UNL     1      29.245  28.593  20.518  1.00  0.00     0.162 HD
BRANCH  12  15
HETATM   15  C7  UNL     1      26.624  28.847  19.548  1.00  0.00     0.186 C
BRANCH  15  16
HETATM   16  N1  UNL     1      26.696  27.885  20.653  1.00  0.00    -0.323 N
HETATM   17  C6  UNL     1      25.742  26.909  20.918  1.00  0.00     0.361 C
HETATM   18  O2  UNL     1      24.728  26.793  20.198  1.00  0.00    -0.238 OA
ATOM     19  H1  UNL     1      27.505  27.935  21.271  1.00  0.00     0.165 HD
BRANCH  17  20
HETATM   20  O1  UNL     1      25.902  26.051  21.983  1.00  0.00    -0.304 OA
BRANCH  20  21
HETATM   21  C5  UNL     1      24.992  25.905  23.029  1.00  0.00     0.181 C
BRANCH  21  22
HETATM   22  C4  UNL     1      24.864  27.281  23.688  1.00  0.00     0.031 C
BRANCH  22  23
HETATM   23  C2  UNL     1      23.475  27.818  23.493  1.00  0.00    -0.021 C
HETATM   24  C1  UNL     1      23.198  28.932  24.485  1.00  0.00     0.009 C
HETATM   25  C3  UNL     1      22.484  26.694  23.590  1.00  0.00     0.009 C
ENDBRANCH  22  23
ENDBRANCH  21  22
ENDBRANCH  20  21
ENDBRANCH  17  20
ENDBRANCH  15  16
BRANCH  15  26
HETATM   26  C26 UNL     1      26.360  30.227  20.104  1.00  0.00    -0.022 C
HETATM   27  C27 UNL     1      27.567  30.896  20.659  1.00  0.00     0.017 C
HETATM   28  C28 UNL     1      25.672  31.066  19.076  1.00  0.00     0.017 C
HETATM   29  C29 UNL     1      25.360  30.120  21.278  1.00  0.00     0.017 C
ENDBRANCH  15  26
ENDBRANCH  12  15
ENDBRANCH   1  11
BRANCH   9  30
HETATM   30  C18 UNL     1      35.199  28.242  20.526  1.00  0.00     0.223 C
HETATM   31  O4  UNL     1      36.052  29.098  20.975  1.00  0.00    -0.273 OA
HETATM   32  N3  UNL     1      35.542  26.899  20.787  1.00  0.00    -0.348 N
ATOM     33  H3  UNL     1      34.918  26.161  20.462  1.00  0.00     0.163 HD
BRANCH  32  34
HETATM   34  C19 UNL     1      36.782  26.520  21.521  1.00  0.00     0.174 C
BRANCH  34  35
HETATM   35  C20 UNL     1      36.421  26.085  22.887  1.00  0.00     0.038 C
BRANCH  35  36
HETATM   36  C21 UNL     1      36.679  26.949  24.051  1.00  0.00    -0.020 C
HETATM   37  C22 UNL     1      37.972  27.740  23.702  1.00  0.00     0.009 C
HETATM   38  C23 UNL     1      35.662  28.024  24.304  1.00  0.00     0.009 C
ENDBRANCH  35  36
ENDBRANCH  34  35
BRANCH  34  39
HETATM   39  C24 UNL     1      37.387  25.454  20.718  1.00  0.00     0.254 C
HETATM   40  N4  UNL     1      38.613  24.838  21.077  1.00  0.00    -0.060 NA
HETATM   41  O5  UNL     1      36.818  25.065  19.667  1.00  0.00    -0.275 OA
ENDBRANCH  34  39
ENDBRANCH  32  34
ENDBRANCH   9  30
TORSDOF 13
ENDMDL