MODEL 3
REMARK VINA RESULT: -6.623199569      1.963      4.160
REMARK  13 active torsions:
REMARK  status: ('A' for Active; 'I' for Inactive)
REMARK    1  A    between atoms: C2_2  and  C3_3
REMARK    2  A    between atoms: C3_3  and  C5_5
REMARK    3  A    between atoms: C5_5  and  N1_6
REMARK    4  A    between atoms: C5_5  and  C26_34
REMARK       I    between atoms: N1_6  and  C6_8
REMARK    5  A    between atoms: C6_8  and  C7_10
REMARK    6  A    between atoms: C7_10  and  N2_11
REMARK    7  A    between atoms: C7_10  and  C22_30
REMARK       I    between atoms: N2_11  and  C8_13
REMARK    8  A    between atoms: C8_13  and  C9_15
REMARK    9  A    between atoms: C9_15  and  C10_16
REMARK   10  A    between atoms: C9_15  and  N3_23
REMARK   11  A    between atoms: C10_16  and  C11_17
REMARK   12  A    between atoms: N3_23  and  C17_25
REMARK       I    between atoms: C26_34  and  N4_36
REMARK   13  A    between atoms: C29_39  and  O4_40
ROOT
HETATM    1  C7  UNL     1      36.779  25.832  17.918  1.00  0.00     0.184 C
ENDROOT
BRANCH   1   2
HETATM    2  C6  UNL     1      37.428  25.238  19.071  1.00  0.00     0.241 C
HETATM    3  N1  UNL     1      36.829  24.802  20.267  1.00  0.00    -0.346 N
ATOM      4  H1  UNL     1      35.820  24.889  20.389  1.00  0.00     0.163 HD
HETATM    5  O1  UNL     1      38.688  25.087  19.019  1.00  0.00    -0.271 OA
BRANCH   3   6
HETATM    6  C5  UNL     1      37.656  24.214  21.353  1.00  0.00     0.180 C
BRANCH   6   7
HETATM    7  C3  UNL     1      37.318  22.779  21.541  1.00  0.00     0.013 C
HETATM    8  C4  UNL     1      35.939  22.431  21.009  1.00  0.00     0.012 C
BRANCH   7   9
HETATM    9  C2  UNL     1      38.316  21.852  20.861  1.00  0.00     0.002 C
HETATM   10  C1  UNL     1      39.656  22.151  21.532  1.00  0.00     0.005 C
ENDBRANCH   7   9
ENDBRANCH   6   7
BRANCH   6  11
HETATM   11  C26 UNL     1      37.390  24.945  22.623  1.00  0.00     0.243 C
HETATM   12  O3  UNL     1      37.144  24.232  23.645  1.00  0.00    -0.271 OA
HETATM   13  N4  UNL     1      37.387  26.335  22.773  1.00  0.00    -0.348 N
HETATM   14  C27 UNL     1      37.633  27.305  21.729  1.00  0.00     0.128 C
HETATM   15  C30 UNL     1      37.127  27.046  24.007  1.00  0.00     0.157 C
HETATM   16  C28 UNL     1      36.811  28.524  22.094  1.00  0.00     0.053 C
HETATM   17  C29 UNL     1      36.615  28.411  23.589  1.00  0.00     0.137 C
BRANCH  17  18
HETATM   18  O4  UNL     1      35.270  28.454  23.943  1.00  0.00    -0.394 OA
ATOM     19  H4  UNL     1      34.900  27.585  24.042  1.00  0.00     0.210 HD
ENDBRANCH  17  18
ENDBRANCH   6  11
ENDBRANCH   3   6
ENDBRANCH   1   2
BRANCH   1  20
HETATM   20  N2  UNL     1      36.112  27.064  18.232  1.00  0.00    -0.345 N
HETATM   21  C8  UNL     1      36.643  28.387  18.269  1.00  0.00     0.240 C
HETATM   22  O2  UNL     1      37.885  28.502  18.046  1.00  0.00    -0.271 OA
ATOM     23  H2  UNL     1      35.121  26.982  18.460  1.00  0.00     0.163 HD
BRANCH  21  24
HETATM   24  C9  UNL     1      35.779  29.533  18.553  1.00  0.00     0.170 C
BRANCH  24  25
HETATM   25  C10 UNL     1      34.389  29.267  19.071  1.00  0.00     0.039 C
BRANCH  25  26
HETATM   26  C11 UNL     1      33.834  29.967  20.229  1.00  0.00    -0.012 C
HETATM   27  C12 UNL     1      33.154  29.202  21.293  1.00  0.00     0.005 C
HETATM   28  C13 UNL     1      31.778  28.731  20.814  1.00  0.00     0.000 C
HETATM   29  C14 UNL     1      30.965  29.891  20.359  1.00  0.00     0.000 C
HETATM   30  C15 UNL     1      31.635  30.810  19.390  1.00  0.00     0.000 C
HETATM   31  C16 UNL     1      33.024  31.205  19.826  1.00  0.00     0.005 C
ENDBRANCH  25  26
ENDBRANCH  24  25
BRANCH  24  32
HETATM   32  N3  UNL     1      35.582  30.310  17.334  1.00  0.00    -0.405 N
ATOM     33  H3  UNL     1      36.309  30.965  17.047  1.00  0.00     0.154 HD
BRANCH  32  34
HETATM   34  C17 UNL     1      34.465  30.192  16.567  1.00  0.00     0.077 C
HETATM   35  C18 UNL     1      33.840  31.528  16.133  1.00  0.00     0.024 C
HETATM   36  C19 UNL     1      32.600  31.049  15.415  1.00  0.00     0.002 C
HETATM   37  C20 UNL     1      32.874  29.625  14.986  1.00  0.00     0.002 C
HETATM   38  C21 UNL     1      34.368  29.447  15.312  1.00  0.00     0.024 C
ENDBRANCH  32  34
ENDBRANCH  24  32
ENDBRANCH  21  24
ENDBRANCH   1  20
BRANCH   1  39
HETATM   39  C22 UNL     1      35.990  24.917  17.034  1.00  0.00    -0.022 C
HETATM   40  C23 UNL     1      34.497  25.019  17.250  1.00  0.00     0.017 C
HETATM   41  C24 UNL     1      36.427  23.480  17.080  1.00  0.00     0.017 C
HETATM   42  C25 UNL     1      36.185  25.312  15.548  1.00  0.00     0.017 C
ENDBRANCH   1  39
TORSDOF 13
ENDMDL