MODEL 1
REMARK VINA RESULT: -6.616120989      0.000      0.000
REMARK  13 active torsions:
REMARK  status: ('A' for Active; 'I' for Inactive)
REMARK    1  A    between atoms: N1_2  and  C2_4
REMARK    2  A    between atoms: C2_4  and  C3_5
REMARK    3  A    between atoms: C2_4  and  C27_38
REMARK       I    between atoms: C3_5  and  N2_7
REMARK    4  A    between atoms: C7_11  and  C8_12
REMARK       I    between atoms: C8_12  and  N3_14
REMARK    5  A    between atoms: N3_14  and  C9_16
REMARK    6  A    between atoms: C9_16  and  C10_17
REMARK    7  A    between atoms: C9_16  and  C14_21
REMARK    8  A    between atoms: C10_17  and  C11_18
REMARK    9  A    between atoms: C14_21  and  N4_22
REMARK   10  A    between atoms: C14_21  and  C21_32
REMARK   11  A    between atoms: N4_22  and  C15_24
REMARK   12  A    between atoms: C15_24  and  C16_25
REMARK   13  A    between atoms: C15_24  and  C17_28
ROOT
HETATM    1  C9  UNL     1      33.994  26.081  21.187  1.00  0.00     0.130 C
ENDROOT
BRANCH   1   2
HETATM    2  N3  UNL     1      35.176  25.193  21.236  1.00  0.00    -0.350 N
HETATM    3  C8  UNL     1      35.195  24.023  22.037  1.00  0.00     0.241 C
HETATM    4  O2  UNL     1      34.159  23.776  22.723  1.00  0.00    -0.271 OA
ATOM      5  H3  UNL     1      35.998  25.428  20.678  1.00  0.00     0.163 HD
BRANCH   3   6
HETATM    6  C7  UNL     1      36.323  23.141  22.078  1.00  0.00     0.179 C
HETATM    7  N2  UNL     1      36.454  22.088  21.110  1.00  0.00    -0.337 N
HETATM    8  C3  UNL     1      35.732  21.734  19.951  1.00  0.00     0.243 C
HETATM    9  C4  UNL     1      37.654  21.380  21.619  1.00  0.00     0.127 C
HETATM   10  O1  UNL     1      34.756  22.524  19.682  1.00  0.00    -0.271 OA
HETATM   11  C5  UNL     1      38.583  22.549  22.001  1.00  0.00     0.022 C
HETATM   12  C6  UNL     1      37.693  23.800  21.931  1.00  0.00     0.037 C
BRANCH   8  13
HETATM   13  C2  UNL     1      36.032  20.583  19.093  1.00  0.00     0.176 C
BRANCH  13  14
HETATM   14  N1  UNL     1      36.197  20.954  17.732  1.00  0.00    -0.413 N
HETATM   15  C1  UNL     1      37.318  21.673  17.304  1.00  0.00     0.140 C
ATOM     16  H1  UNL     1      35.483  20.691  17.052  1.00  0.00     0.153 HD
ENDBRANCH  13  14
BRANCH  13  17
HETATM   17  C27 UNL     1      35.151  19.387  19.265  1.00  0.00    -0.022 C
HETATM   18  C28 UNL     1      33.821  19.449  18.589  1.00  0.00     0.017 C
HETATM   19  C29 UNL     1      35.904  18.220  18.575  1.00  0.00     0.017 C
HETATM   20  C30 UNL     1      34.927  18.932  20.666  1.00  0.00     0.017 C
ENDBRANCH  13  17
ENDBRANCH   8  13
ENDBRANCH   3   6
ENDBRANCH   1   2
BRANCH   1  21
HETATM   21  C10 UNL     1      33.330  25.666  19.862  1.00  0.00     0.035 C
BRANCH  21  22
HETATM   22  C11 UNL     1      31.849  25.509  19.978  1.00  0.00    -0.020 C
HETATM   23  C12 UNL     1      31.582  23.994  19.905  1.00  0.00     0.009 C
HETATM   24  C13 UNL     1      31.181  26.130  18.764  1.00  0.00     0.009 C
ENDBRANCH  21  22
ENDBRANCH   1  21
BRANCH   1  25
HETATM   25  C14 UNL     1      34.424  27.527  21.035  1.00  0.00     0.010 C
BRANCH  25  26
HETATM   26  N4  UNL     1      35.736  27.574  20.545  1.00  0.00    -0.380 N
ATOM     27  H4  UNL     1      35.991  27.069  19.696  1.00  0.00     0.160 HD
BRANCH  26  28
HETATM   28  C15 UNL     1      36.704  28.334  21.247  1.00  0.00     0.190 C
BRANCH  28  29
HETATM   29  C16 UNL     1      36.740  28.077  22.698  1.00  0.00     0.197 C
HETATM   30  O3  UNL     1      36.827  26.938  23.237  1.00  0.00    -0.646 OA
HETATM   31  O4  UNL     1      36.677  29.134  23.634  1.00  0.00    -0.646 OA
ENDBRANCH  28  29
BRANCH  28  32
HETATM   32  C17 UNL     1      38.087  28.222  20.622  1.00  0.00    -0.021 C
HETATM   33  C18 UNL     1      39.185  28.221  21.650  1.00  0.00     0.017 C
HETATM   34  C19 UNL     1      38.222  26.923  19.848  1.00  0.00     0.017 C
HETATM   35  C20 UNL     1      38.345  29.348  19.656  1.00  0.00     0.017 C
ENDBRANCH  28  32
ENDBRANCH  26  28
ENDBRANCH  25  26
BRANCH  25  36
HETATM   36  C21 UNL     1      33.414  28.443  20.475  1.00  0.00     0.033 C
HETATM   37  C22 UNL     1      32.660  29.326  21.393  1.00  0.00     0.010 C
HETATM   38  C23 UNL     1      31.598  30.033  20.530  1.00  0.00     0.001 C
HETATM   39  C24 UNL     1      32.288  31.123  19.734  1.00  0.00     0.000 C
HETATM   40  C25 UNL     1      33.735  30.784  19.582  1.00  0.00     0.001 C
HETATM   41  C26 UNL     1      34.026  29.321  19.402  1.00  0.00     0.010 C
ENDBRANCH  25  36
ENDBRANCH   1  25
TORSDOF 13
ENDMDL