MODEL 2
REMARK VINA RESULT: -6.660448295      2.239      4.814
REMARK  13 active torsions:
REMARK  status: ('A' for Active; 'I' for Inactive)
REMARK    1  A    between atoms: C2_2  and  N1_3
REMARK       I    between atoms: N1_3  and  C3_5
REMARK    2  A    between atoms: C3_5  and  C4_7
REMARK    3  A    between atoms: C5_8  and  O2_9
REMARK    4  A    between atoms: O2_9  and  C6_10
REMARK       I    between atoms: C6_10  and  N2_12
REMARK    5  A    between atoms: N2_12  and  C7_14
REMARK    6  A    between atoms: C7_14  and  C8_15
REMARK    7  A    between atoms: C8_15  and  C9_16
REMARK    8  A    between atoms: C9_16  and  N3_17
REMARK    9  A    between atoms: C11_19  and  N4_21
REMARK   10  A    between atoms: C14_26  and  C15_27
REMARK   11  A    between atoms: C15_27  and  C16_28
REMARK   12  A    between atoms: C16_28  and  N5_29
REMARK       I    between atoms: N5_29  and  C17_31
REMARK   13  A    between atoms: C17_31  and  C18_33
ROOT
HETATM    1  N3  UNL     1      38.437  24.561  20.055  1.00  0.00     0.099 N
HETATM    2  C10 UNL     1      37.357  24.787  19.232  1.00  0.00     0.311 C
HETATM    3  C11 UNL     1      36.636  23.449  19.021  1.00  0.00     0.148 C
HETATM    4  C12 UNL     1      36.665  23.040  17.555  1.00  0.00     0.048 C
HETATM    5  C13 UNL     1      37.429  22.436  19.793  1.00  0.00     0.075 C
HETATM    6  C14 UNL     1      38.719  23.137  20.137  1.00  0.00     0.227 C
ENDROOT
BRANCH   1   7
HETATM    7  C9  UNL     1      39.649  25.262  19.824  1.00  0.00     0.301 C
BRANCH   7   8
HETATM    8  C8  UNL     1      39.549  26.594  19.212  1.00  0.00     0.020 C
BRANCH   8   9
HETATM    9  C7  UNL     1      38.921  27.751  19.879  1.00  0.00     0.091 C
BRANCH   9  10
HETATM   10  N2  UNL     1      37.699  28.269  19.424  1.00  0.00    -0.313 N
HETATM   11  C6  UNL     1      37.239  29.408  18.792  1.00  0.00     0.364 C
HETATM   12  O3  UNL     1      37.912  30.388  18.422  1.00  0.00    -0.238 OA
ATOM     13  H2  UNL     1      36.934  27.621  19.614  1.00  0.00     0.170 HD
BRANCH  11  14
HETATM   14  O2  UNL     1      35.834  29.557  18.489  1.00  0.00    -0.297 OA
BRANCH  14  15
HETATM   15  C5  UNL     1      34.910  29.854  19.500  1.00  0.00     0.147 C
HETATM   16  C4  UNL     1      34.155  28.642  19.983  1.00  0.00     0.112 C
HETATM   17  C26 UNL     1      32.896  29.127  20.565  1.00  0.00     0.014 A
HETATM   18  C25 UNL     1      32.773  30.612  20.120  1.00  0.00     0.002 A
HETATM   19  C27 UNL     1      31.693  29.603  19.917  1.00  0.00    -0.039 A
HETATM   20  C24 UNL     1      33.842  30.821  19.089  1.00  0.00     0.039 C
HETATM   21  C28 UNL     1      30.504  29.859  20.879  1.00  0.00     0.015 C
HETATM   22  C29 UNL     1      31.206  29.234  18.557  1.00  0.00     0.015 C
BRANCH  16  23
HETATM   23  C3  UNL     1      34.111  27.530  19.039  1.00  0.00     0.224 C
HETATM   24  N1  UNL     1      33.998  27.632  17.632  1.00  0.00    -0.361 N
ATOM     25  H1  UNL     1      33.946  28.559  17.211  1.00  0.00     0.162 HD
HETATM   26  O1  UNL     1      34.180  26.347  19.543  1.00  0.00    -0.273 OA
BRANCH  24  27
HETATM   27  C2  UNL     1      33.953  26.476  16.771  1.00  0.00     0.118 C
HETATM   28  C1  UNL     1      32.503  26.121  16.427  1.00  0.00     0.026 C
ENDBRANCH  24  27
ENDBRANCH  16  23
ENDBRANCH  14  15
ENDBRANCH  11  14
ENDBRANCH   9  10
ENDBRANCH   8   9
ENDBRANCH   7   8
ENDBRANCH   1   7
BRANCH   6  29
HETATM   29  C15 UNL     1      39.033  22.818  21.600  1.00  0.00     0.055 C
BRANCH  29  30
HETATM   30  C16 UNL     1      37.798  22.853  22.438  1.00  0.00     0.125 C
BRANCH  30  31
HETATM   31  N5  UNL     1      37.489  24.133  23.015  1.00  0.00    -0.361 N
HETATM   32  C17 UNL     1      36.203  24.716  22.927  1.00  0.00     0.221 C
HETATM   33  O4  UNL     1      35.291  24.105  22.334  1.00  0.00    -0.273 OA
ATOM     34  H5  UNL     1      38.225  24.641  23.506  1.00  0.00     0.162 HD
BRANCH  32  35
HETATM   35  C18 UNL     1      35.892  26.044  23.520  1.00  0.00     0.078 C
HETATM   36  C19 UNL     1      34.515  26.459  23.002  1.00  0.00     0.014 C
HETATM   37  C20 UNL     1      34.059  27.755  23.602  1.00  0.00     0.001 C
HETATM   38  C21 UNL     1      35.232  28.655  23.958  1.00  0.00     0.000 C
HETATM   39  C22 UNL     1      36.322  28.445  22.948  1.00  0.00     0.001 C
HETATM   40  C23 UNL     1      36.886  27.048  23.011  1.00  0.00     0.014 C
ENDBRANCH  32  35
ENDBRANCH  30  31
ENDBRANCH  29  30
ENDBRANCH   6  29
BRANCH   3  41
HETATM   41  N4  UNL     1      35.265  23.542  19.411  1.00  0.00    -0.069 N
ATOM     42  H43 UNL     1      35.135  24.205  20.176  1.00  0.00     0.275 HD
ATOM     43  H42 UNL     1      34.702  24.012  18.702  1.00  0.00     0.275 HD
ATOM     44  H41 UNL     1      34.888  22.623  19.642  1.00  0.00     0.275 HD
ENDBRANCH   3  41
TORSDOF 13
ENDMDL