MODEL 5
REMARK VINA RESULT: -7.064654548      1.978      2.513
REMARK  13 active torsions:
REMARK  status: ('A' for Active; 'I' for Inactive)
REMARK    1  A    between atoms: C2_2  and  C4_4
REMARK    2  A    between atoms: C4_4  and  C5_5
REMARK    3  A    between atoms: C4_4  and  N2_20
REMARK    4  A    between atoms: C5_5  and  C6_6
REMARK    5  A    between atoms: C6_6  and  C8_8
REMARK       I    between atoms: N2_20  and  C19_22
REMARK    6  A    between atoms: C19_22  and  C20_24
REMARK    7  A    between atoms: C20_24  and  C21_25
REMARK    8  A    between atoms: C20_24  and  N6_33
REMARK    9  A    between atoms: C21_25  and  C22_26
REMARK   10  A    between atoms: C22_26  and  C23_27
REMARK   11  A    between atoms: C23_27  and  N3_28
REMARK       I    between atoms: N6_33  and  C25_35
REMARK   12  A    between atoms: C25_35  and  O3_37
REMARK   13  A    between atoms: O3_37  and  C26_38
ROOT
HETATM    1  C8  UNL     1      33.873  29.305  19.892  1.00  0.00     0.037 C
HETATM    2  C9  UNL     1      33.659  30.826  19.747  1.00  0.00     0.016 C
HETATM    3  C10 UNL     1      33.569  31.029  18.248  1.00  0.00    -0.001 C
HETATM    4  C11 UNL     1      32.237  30.449  17.841  1.00  0.00    -0.012 C
HETATM    5  C12 UNL     1      31.631  31.023  16.622  1.00  0.00     0.010 C
HETATM    6  C13 UNL     1      32.476  28.956  17.816  1.00  0.00     0.030 C
HETATM    7  C14 UNL     1      33.803  28.806  18.470  1.00  0.00     0.064 C
HETATM    8  C15 UNL     1      34.529  27.594  18.186  1.00  0.00     0.070 C
HETATM    9  N1  UNL     1      35.119  26.647  17.942  1.00  0.00    -0.196 NA
HETATM   10  C16 UNL     1      34.544  29.999  17.786  1.00  0.00    -0.022 C
HETATM   11  C17 UNL     1      35.918  30.104  18.376  1.00  0.00     0.017 C
HETATM   12  C18 UNL     1      34.676  29.797  16.332  1.00  0.00     0.017 C
ENDROOT
BRANCH   1  13
HETATM   13  C6  UNL     1      32.921  28.728  20.854  1.00  0.00    -0.080 C
HETATM   14  C7  UNL     1      31.882  29.654  21.432  1.00  0.00     0.043 C
BRANCH  13  15
HETATM   15  C5  UNL     1      33.376  27.666  21.728  1.00  0.00     0.001 C
BRANCH  15  16
HETATM   16  C4  UNL     1      34.740  27.336  22.105  1.00  0.00     0.111 C
BRANCH  16  17
HETATM   17  C2  UNL     1      35.876  28.294  22.031  1.00  0.00     0.004 C
HETATM   18  C1  UNL     1      36.910  27.606  21.092  1.00  0.00     0.012 C
HETATM   19  C3  UNL     1      36.678  28.396  23.341  1.00  0.00     0.012 C
ENDBRANCH  16  17
BRANCH  16  20
HETATM   20  N2  UNL     1      35.127  26.126  21.347  1.00  0.00    -0.348 N
HETATM   21  C19 UNL     1      35.073  24.808  21.744  1.00  0.00     0.264 C
HETATM   22  O1  UNL     1      34.687  24.417  22.903  1.00  0.00    -0.266 OA
ATOM     23  H2  UNL     1      35.482  26.290  20.406  1.00  0.00     0.163 HD
BRANCH  21  24
HETATM   24  C20 UNL     1      35.466  23.678  20.868  1.00  0.00     0.082 C
BRANCH  24  25
HETATM   25  C21 UNL     1      34.733  22.422  21.026  1.00  0.00     0.064 C
BRANCH  25  26
HETATM   26  C22 UNL     1      35.502  21.157  21.166  1.00  0.00     0.026 C
BRANCH  26  27
HETATM   27  C23 UNL     1      36.332  21.193  22.470  1.00  0.00     0.122 C
BRANCH  27  28
HETATM   28  N3  UNL     1      37.696  21.491  22.004  1.00  0.00    -0.367 N
HETATM   29  C24 UNL     1      38.351  22.425  22.602  1.00  0.00     0.196 C
HETATM   30  N4  UNL     1      37.824  23.170  23.678  1.00  0.00    -0.067 NA
HETATM   31  N5  UNL     1      39.681  22.746  22.176  1.00  0.00    -0.067 NA
ATOM     32  H3  UNL     1      38.110  20.974  21.229  1.00  0.00     0.161 HD
ENDBRANCH  27  28
ENDBRANCH  26  27
ENDBRANCH  25  26
ENDBRANCH  24  25
BRANCH  24  33
HETATM   33  N6  UNL     1      35.710  24.044  19.508  1.00  0.00    -0.301 N
HETATM   34  C25 UNL     1      36.791  23.601  18.706  1.00  0.00     0.365 C
HETATM   35  O2  UNL     1      37.639  22.799  19.223  1.00  0.00    -0.238 OA
ATOM     36  H6  UNL     1      35.044  24.684  19.074  1.00  0.00     0.171 HD
BRANCH  34  37
HETATM   37  O3  UNL     1      36.992  23.972  17.409  1.00  0.00    -0.294 OA
BRANCH  37  38
HETATM   38  C26 UNL     1      36.456  23.355  16.270  1.00  0.00     0.061 C
HETATM   39  C27 UNL     1      36.605  24.360  15.129  1.00  0.00     0.046 C
HETATM   40  C28 UNL     1      37.260  22.107  15.889  1.00  0.00     0.046 C
HETATM   41  C29 UNL     1      34.997  23.011  16.406  1.00  0.00     0.046 C
ENDBRANCH  37  38
ENDBRANCH  34  37
ENDBRANCH  24  33
ENDBRANCH  21  24
ENDBRANCH  16  20
ENDBRANCH  15  16
ENDBRANCH  13  15
ENDBRANCH   1  13
TORSDOF 13
ENDMDL