MODEL 1
REMARK VINA RESULT: -4.684757652      0.000      0.000
REMARK  5 active torsions:
REMARK  status: ('A' for Active; 'I' for Inactive)
REMARK    1  A    between atoms: O1_2  and  C2_3
REMARK    2  A    between atoms: C2_3  and  O3_5
REMARK    3  A    between atoms: O3_5  and  C3_6
REMARK    4  A    between atoms: C3_6  and  O4_8
REMARK    5  A    between atoms: C3_6  and  O5_10
ROOT
HETATM    1  C3  UNL     1       5.794  29.731   1.530  1.00  0.00     0.283 C
HETATM    2  C4  UNL     1       5.436  29.041   2.808  1.00  0.00     0.115 C
ENDROOT
BRANCH   1   3
HETATM    3  O3  UNL     1       5.526  31.110   1.531  1.00  0.00    -0.235 OA
BRANCH   3   4
HETATM    4  C2  UNL     1       5.090  31.732   0.365  1.00  0.00     0.410 C
HETATM    5  O2  UNL     1       5.939  31.982  -0.502  1.00  0.00    -0.229 OA
BRANCH   4   6
HETATM    6  O1  UNL     1       3.783  32.079   0.129  1.00  0.00    -0.303 OA
HETATM    7  C1  UNL     1       3.501  33.063  -0.848  1.00  0.00     0.215 C
ENDBRANCH   4   6
ENDBRANCH   3   4
ENDBRANCH   1   3
BRANCH   1   8
HETATM    8  O4  UNL     1       4.974  29.171   0.521  1.00  0.00    -0.343 OA
ATOM      9  H4  UNL     1       5.165  28.242   0.511  1.00  0.00     0.215 HD
ENDBRANCH   1   8
BRANCH   1  10
HETATM   10  O5  UNL     1       7.121  29.520   1.163  1.00  0.00    -0.343 OA
ATOM     11  H5  UNL     1       7.594  29.145   1.896  1.00  0.00     0.215 HD
ENDBRANCH   1  10
TORSDOF 5
ENDMDL