MODEL 4
REMARK VINA RESULT: -3.470125064      2.673      3.389
REMARK  0 active torsions:
REMARK  status: ('A' for Active; 'I' for Inactive)
ROOT
HETATM    1  C1  UNL     1       5.790  29.613   2.823  1.00  0.00     0.093 C
HETATM    2  C2  UNL     1       5.570  29.977   1.384  1.00  0.00     0.229 C
HETATM    3  S1  UNL     1       4.023  29.203   0.832  1.00  0.00    -0.024 SA
HETATM    4  O1  UNL     1       5.373  31.366   1.228  1.00  0.00    -0.338 OA
HETATM    5  C3  UNL     1       5.489  31.468  -0.159  1.00  0.00     0.256 C
HETATM    6  C4  UNL     1       6.713  30.659  -0.402  1.00  0.00     0.140 C
HETATM    7  N1  UNL     1       7.596  30.882  -1.306  1.00  0.00    -0.382 N
ATOM      8  H11 UNL     1       8.436  30.327  -1.471  1.00  0.00     0.158 HD
ATOM      9  H12 UNL     1       7.639  31.621  -2.007  1.00  0.00     0.158 HD
HETATM   10  O2  UNL     1       6.654  29.647   0.558  1.00  0.00    -0.290 OA
ENDROOT
TORSDOF 0
ENDMDL