MODEL 4
REMARK VINA RESULT: -3.561041460      2.311      3.758
REMARK  1 active torsions:
REMARK  status: ('A' for Active; 'I' for Inactive)
REMARK    1  A    between atoms: C4_4  and  O1_5
ROOT
HETATM    1  C1  UNL     1       2.894  28.347   0.329  1.00  0.00     0.040 C
HETATM    2  C2  UNL     1       2.593  29.738   0.796  1.00  0.00     0.121 C
HETATM    3  C3  UNL     1       1.658  30.488  -0.119  1.00  0.00     0.067 C
HETATM    4  C4  UNL     1       2.307  31.877  -0.033  1.00  0.00     0.160 C
HETATM    5  C5  UNL     1       3.766  31.406  -0.122  1.00  0.00     0.222 C
HETATM    6  S1  UNL     1       4.912  32.738   0.132  1.00  0.00    -0.060 SA
HETATM    7  O2  UNL     1       3.771  30.443   0.869  1.00  0.00    -0.367 OA
ENDROOT
BRANCH   4   8
HETATM    8  O1  UNL     1       1.949  32.693  -1.059  1.00  0.00    -0.392 OA
ATOM      9  H1  UNL     1       1.184  33.221  -0.863  1.00  0.00     0.210 HD
ENDBRANCH   4   8
TORSDOF 1
ENDMDL