MODEL 3
REMARK VINA RESULT: -4.042086976      1.489      2.811
REMARK  2 active torsions:
REMARK  status: ('A' for Active; 'I' for Inactive)
REMARK    1  A    between atoms: C4_6  and  O3_7
REMARK    2  A    between atoms: N1_9  and  O4_10
ROOT
HETATM    1  C1  UNL     1       2.396  27.742   3.211  1.00  0.00     0.069 C
HETATM    2  C2  UNL     1       3.404  27.996   2.114  1.00  0.00     0.171 C
HETATM    3  C3  UNL     1       2.977  27.223   0.900  1.00  0.00     0.069 C
HETATM    4  O1  UNL     1       3.547  29.337   1.916  1.00  0.00    -0.208 OA
HETATM    5  O2  UNL     1       4.784  29.679   2.141  1.00  0.00    -0.187 OA
HETATM    6  C4  UNL     1       5.280  28.746   3.082  1.00  0.00     0.403 C
HETATM    7  N1  UNL     1       4.738  27.521   2.521  1.00  0.00    -0.107 NA
ENDROOT
BRANCH   7   8
HETATM    8  O4  UNL     1       4.682  26.514   3.380  1.00  0.00    -0.306 OA
ATOM      9  H4  UNL     1       5.383  26.540   4.020  1.00  0.00     0.237 HD
ENDBRANCH   7   8
BRANCH   6  10
HETATM   10  O3  UNL     1       4.648  29.086   4.290  1.00  0.00    -0.355 OA
ATOM     11  H3  UNL     1       5.051  28.523   4.941  1.00  0.00     0.214 HD
ENDBRANCH   6  10
TORSDOF 2
ENDMDL