MODEL 2
REMARK VINA RESULT: -4.553596143      1.722      2.052
REMARK  3 active torsions:
REMARK  status: ('A' for Active; 'I' for Inactive)
REMARK    1  A    between atoms: N1_1  and  C1_5
REMARK    2  A    between atoms: C1_5  and  O1_6
REMARK    3  A    between atoms: N2_12  and  O2_13
ROOT
HETATM    1  C1  UNL     1       5.203  30.462   0.964  1.00  0.00     0.304 C
HETATM    2  C2  UNL     1       4.706  31.547   0.107  1.00  0.00     0.088 C
HETATM    3  C3  UNL     1       3.251  31.735  -0.003  1.00  0.00     0.007 C
HETATM    4  C4  UNL     1       2.396  30.574   0.360  1.00  0.00     0.017 C
HETATM    5  C5  UNL     1       3.271  29.323   0.312  1.00  0.00     0.126 C
HETATM    6  N2  UNL     1       4.208  29.518   1.390  1.00  0.00    -0.140 NA
ENDROOT
BRANCH   1   7
HETATM    7  N1  UNL     1       6.238  29.694   0.257  1.00  0.00    -0.031 N
ATOM      8  H13 UNL     1       6.926  29.262   0.874  1.00  0.00     0.279 HD
ATOM      9  H12 UNL     1       5.898  28.828  -0.161  1.00  0.00     0.279 HD
ATOM     10  H11 UNL     1       6.637  30.349  -0.414  1.00  0.00     0.279 HD
ENDBRANCH   1   7
BRANCH   1  11
HETATM   11  O1  UNL     1       5.839  30.938   2.131  1.00  0.00    -0.352 OA
ATOM     12  H1  UNL     1       5.147  30.992   2.781  1.00  0.00     0.214 HD
ENDBRANCH   1  11
BRANCH   6  13
HETATM   13  O2  UNL     1       4.664  28.434   1.956  1.00  0.00    -0.309 OA
ATOM     14  H2  UNL     1       4.424  28.313   2.867  1.00  0.00     0.237 HD
ENDBRANCH   6  13
TORSDOF 3
ENDMDL