MODEL 3
REMARK VINA RESULT: -4.336380665      4.406      5.455
REMARK  2 active torsions:
REMARK  status: ('A' for Active; 'I' for Inactive)
REMARK    1  A    between atoms: O1_1  and  N1_3
REMARK    2  A    between atoms: N2_9  and  O2_10
ROOT
HETATM    1  N1  UNL     1       6.273  29.680   0.141  1.00  0.00    -0.276 N
ATOM      2  H1  UNL     1       6.082  29.795  -0.855  1.00  0.00     0.193 HD
HETATM    3  C1  UNL     1       5.310  29.565   0.966  1.00  0.00     0.025 C
HETATM    4  C2  UNL     1       3.874  29.587   0.568  1.00  0.00     0.057 C
HETATM    5  C3  UNL     1       3.184  28.424   1.246  1.00  0.00     0.022 C
HETATM    6  C4  UNL     1       3.503  28.374   2.731  1.00  0.00     0.121 C
HETATM    7  N2  UNL     1       4.935  28.161   2.845  1.00  0.00    -0.194 NA
HETATM    8  C5  UNL     1       5.593  29.398   2.415  1.00  0.00     0.174 C
ENDROOT
BRANCH   1   9
HETATM    9  O1  UNL     1       7.565  29.648   0.592  1.00  0.00    -0.290 OA
ATOM     10  H1  UNL     1       8.275  29.904   0.014  1.00  0.00     0.244 HD
ENDBRANCH   1   9
BRANCH   7  11
HETATM   11  O2  UNL     1       5.207  27.967   4.154  1.00  0.00    -0.313 OA
ATOM     12  H2  UNL     1       6.012  28.433   4.346  1.00  0.00     0.237 HD
ENDBRANCH   7  11
TORSDOF 2
ENDMDL