MODEL 5
REMARK VINA RESULT: -4.216287926      2.331      3.450
REMARK  2 active torsions:
REMARK  status: ('A' for Active; 'I' for Inactive)
REMARK    1  A    between atoms: C4_4  and  O1_5
REMARK    2  A    between atoms: C5_9  and  O4_10
ROOT
HETATM    1  C1  UNL     1       3.601  28.814   1.358  1.00  0.00     0.015 C
HETATM    2  C2  UNL     1       4.405  29.674   0.430  1.00  0.00     0.044 C
HETATM    3  C3  UNL     1       3.698  31.029   0.350  1.00  0.00     0.072 C
HETATM    4  C4  UNL     1       4.732  32.082   0.079  1.00  0.00     0.294 C
HETATM    5  O2  UNL     1       5.853  31.564  -0.537  1.00  0.00    -0.206 OA
HETATM    6  O3  UNL     1       6.534  30.742   0.196  1.00  0.00    -0.205 OA
HETATM    7  C5  UNL     1       5.782  29.906   0.980  1.00  0.00     0.297 C
ENDROOT
BRANCH   4   8
HETATM    8  O1  UNL     1       4.168  33.014  -0.810  1.00  0.00    -0.368 OA
ATOM      9  H1  UNL     1       3.908  33.775  -0.303  1.00  0.00     0.212 HD
ENDBRANCH   4   8
BRANCH   7  10
HETATM   10  O4  UNL     1       5.751  30.378   2.277  1.00  0.00    -0.368 OA
ATOM     11  H4  UNL     1       6.622  30.468   2.647  1.00  0.00     0.212 HD
ENDBRANCH   7  10
TORSDOF 2
ENDMDL