MODEL 1
REMARK VINA RESULT: -4.976724644      0.000      0.000
REMARK  4 active torsions:
REMARK  status: ('A' for Active; 'I' for Inactive)
REMARK    1  A    between atoms: N1_1  and  N2_4
REMARK    2  A    between atoms: N3_6  and  C1_8
REMARK    3  A    between atoms: C1_8  and  O1_9
REMARK    4  A    between atoms: C3_12  and  O2_13
ROOT
HETATM    1  C1  UNL     1       5.781  29.841   1.203  1.00  0.00     0.267 C
HETATM    2  C2  UNL     1       4.420  29.780   0.561  1.00  0.00     0.156 C
HETATM    3  C3  UNL     1       4.809  31.219   0.259  1.00  0.00     0.269 C
HETATM    4  O3  UNL     1       5.520  31.200   1.473  1.00  0.00    -0.306 OA
ENDROOT
BRANCH   1   5
HETATM    5  N3  UNL     1       5.927  29.093   2.428  1.00  0.00    -0.264 N
HETATM    6  N2  UNL     1       5.125  28.177   2.692  1.00  0.00    -0.249 N
ATOM      7  H2  UNL     1       4.316  28.665   3.077  1.00  0.00     0.207 HD
ATOM      8  H3  UNL     1       6.683  29.314   3.075  1.00  0.00     0.187 HD
BRANCH   6   9
HETATM    9  N1  UNL     1       4.795  26.976   2.731  1.00  0.00    -0.331 N
ATOM     10  H12 UNL     1       5.337  26.591   1.957  1.00  0.00     0.178 HD
ATOM     11  H11 UNL     1       4.274  26.195   3.129  1.00  0.00     0.178 HD
ENDBRANCH   6   9
ENDBRANCH   1   5
BRANCH   1  12
HETATM   12  O1  UNL     1       6.859  29.738   0.346  1.00  0.00    -0.347 OA
ATOM     13  H1  UNL     1       7.327  28.914   0.406  1.00  0.00     0.215 HD
ENDBRANCH   1  12
BRANCH   3  14
HETATM   14  O2  UNL     1       3.730  32.063   0.220  1.00  0.00    -0.371 OA
ATOM     15  H2  UNL     1       3.537  32.373  -0.657  1.00  0.00     0.212 HD
ENDBRANCH   3  14
TORSDOF 4
ENDMDL