MODEL 5
REMARK VINA RESULT: -3.342777098      1.721      2.510
REMARK  2 active torsions:
REMARK  status: ('A' for Active; 'I' for Inactive)
REMARK    1  A    between atoms: C4_6  and  O1_7
REMARK    2  A    between atoms: C4_6  and  O2_9
ROOT
HETATM    1  C1  UNL     1       5.939  29.584   2.171  1.00  0.00     0.318 C
HETATM    2  N1  UNL     1       4.903  28.758   1.659  1.00  0.00     0.159 N
HETATM    3  C2  UNL     1       3.874  29.516   0.964  1.00  0.00     0.290 C
HETATM    4  C3  UNL     1       3.048  28.450   0.230  1.00  0.00     0.112 C
HETATM    5  S1  UNL     1       2.877  27.261   1.625  1.00  0.00    -0.067 SA
HETATM    6  C4  UNL     1       4.228  27.956   2.665  1.00  0.00     0.422 C
ENDROOT
BRANCH   6   7
HETATM    7  O1  UNL     1       3.739  28.683   3.715  1.00  0.00    -0.333 OA
ATOM      8  H1  UNL     1       4.409  29.120   4.225  1.00  0.00     0.216 HD
ENDBRANCH   6   7
BRANCH   6   9
HETATM    9  O2  UNL     1       5.013  26.887   3.042  1.00  0.00    -0.333 OA
ATOM     10  H2  UNL     1       4.596  26.067   2.807  1.00  0.00     0.216 HD
ENDBRANCH   6   9
TORSDOF 2
ENDMDL