MODEL 4
REMARK VINA RESULT: -4.265280020      1.652      3.216
REMARK  3 active torsions:
REMARK  status: ('A' for Active; 'I' for Inactive)
REMARK    1  A    between atoms: C4_4  and  O1_5
REMARK    2  A    between atoms: C5_7  and  O2_8
REMARK    3  A    between atoms: C5_7  and  O3_10
ROOT
HETATM    1  C1  UNL     1       2.922  28.055   2.448  1.00  0.00     0.040 C
HETATM    2  C2  UNL     1       4.134  28.618   1.780  1.00  0.00     0.126 C
HETATM    3  C3  UNL     1       5.237  28.811   2.831  1.00  0.00     0.071 C
HETATM    4  C4  UNL     1       6.090  29.868   2.147  1.00  0.00     0.213 C
HETATM    5  C5  UNL     1       5.268  30.252   0.948  1.00  0.00     0.305 C
HETATM    6  O4  UNL     1       3.965  29.930   1.347  1.00  0.00    -0.326 OA
ENDROOT
BRANCH   5   7
HETATM    7  O2  UNL     1       5.550  29.392  -0.137  1.00  0.00    -0.341 OA
ATOM      8  H2  UNL     1       5.601  29.887  -0.947  1.00  0.00     0.215 HD
ENDBRANCH   5   7
BRANCH   5   9
HETATM    9  O3  UNL     1       5.387  31.575   0.593  1.00  0.00    -0.341 OA
ATOM     10  H3  UNL     1       4.560  31.991   0.379  1.00  0.00     0.215 HD
ENDBRANCH   5   9
BRANCH   4  11
HETATM   11  O1  UNL     1       7.321  29.362   1.745  1.00  0.00    -0.387 OA
ATOM     12  H1  UNL     1       7.680  29.846   1.010  1.00  0.00     0.210 HD
ENDBRANCH   4  11
TORSDOF 3
ENDMDL