MODEL 3
REMARK VINA RESULT: -9.720953505      3.507      5.370
REMARK  14 active torsions:
REMARK  status: ('A' for Active; 'I' for Inactive)
REMARK    1  A    between atoms: N1_2  and  C2_4
REMARK    2  A    between atoms: C3_7  and  N3_8
REMARK    3  A    between atoms: C4_12  and  C5_13
REMARK    4  A    between atoms: C5_13  and  N6_14
REMARK    5  A    between atoms: N6_14  and  C6_16
REMARK    6  A    between atoms: N7_19  and  C9_20
REMARK    7  A    between atoms: C12_23  and  C13_24
REMARK    8  A    between atoms: C13_24  and  O1_25
REMARK    9  A    between atoms: O1_25  and  S1_26
REMARK   10  A    between atoms: S1_26  and  N8_29
REMARK   11  A    between atoms: N8_29  and  C14_31
REMARK   12  A    between atoms: C14_31  and  C15_32
REMARK   13  A    between atoms: C15_32  and  O4_33
REMARK   14  A    between atoms: C22_53  and  N14_54
ROOT
HETATM    1  N6  UNL     1      -9.319   5.432  25.219  1.00  0.00    -0.380 N
ATOM      2  H6  UNL     1      -9.226   5.808  24.276  1.00  0.00     0.160 HD
ENDROOT
BRANCH   1   3
HETATM    3  C5  UNL     1     -10.587   4.899  25.608  1.00  0.00     0.199 C
BRANCH   3   4
HETATM    4  C4  UNL     1     -11.601   5.995  25.623  1.00  0.00     0.129 A
HETATM    5  N5  UNL     1     -11.548   7.132  24.873  1.00  0.00    -0.268 N
HETATM    6  N4  UNL     1     -12.617   7.850  25.165  1.00  0.00     0.018 NA
ATOM      7  H5  UNL     1     -10.816   7.384  24.209  1.00  0.00     0.185 HD
HETATM    8  N3  UNL     1     -13.366   7.232  26.070  1.00  0.00    -0.003 N
HETATM    9  N11 UNL     1     -12.733   6.103  26.339  1.00  0.00    -0.252 N
ATOM     10  H11 UNL     1     -13.062   5.404  27.004  1.00  0.00     0.190 HD
BRANCH   8  11
HETATM   11  C3  UNL     1     -14.599   7.716  26.621  1.00  0.00     0.720 A
HETATM   12  N2  UNL     1     -15.749   7.134  26.261  1.00  0.00    -0.172 N
HETATM   13  C2  UNL     1     -16.938   7.564  26.761  1.00  0.00     0.148 A
ATOM     14  H2  UNL     1     -15.733   6.356  25.601  1.00  0.00     0.186 HD
HETATM   15  C23 UNL     1     -16.968   8.615  27.653  1.00  0.00     0.138 A
HETATM   16  C21 UNL     1     -15.789   9.218  28.029  1.00  0.00     0.168 A
HETATM   17  N16 UNL     1     -18.116   9.082  28.180  1.00  0.00    -0.280 N
HETATM   18  N12 UNL     1     -14.652   8.738  27.492  1.00  0.00    -0.171 N
HETATM   19  N13 UNL     1     -15.804  10.247  28.900  1.00  0.00    -0.173 N
ATOM     20  H12 UNL     1     -13.774   9.178  27.764  1.00  0.00     0.186 HD
HETATM   21  C22 UNL     1     -16.956  10.700  29.416  1.00  0.00     0.692 A
ATOM     22  H13 UNL     1     -14.925  10.688  29.171  1.00  0.00     0.186 HD
HETATM   23  N15 UNL     1     -18.094  10.100  29.038  1.00  0.00    -0.132 N
ATOM     24  H15 UNL     1     -18.978  10.435  29.422  1.00  0.00     0.205 HD
ATOM     25  H16 UNL     1     -19.004   8.654  27.921  1.00  0.00     0.188 HD
BRANCH  13  26
HETATM   26  N1  UNL     1     -18.055   7.021  26.430  1.00  0.00    -0.378 N
HETATM   27  C1  UNL     1     -18.412   5.733  26.988  1.00  0.00     0.147 C
ATOM     28  H1  UNL     1     -18.683   7.493  25.780  1.00  0.00     0.160 HD
ENDBRANCH  13  26
BRANCH  21  29
HETATM   29  N14 UNL     1     -16.985  11.696  30.261  1.00  0.00    -0.233 N
ATOM     30 2H14 UNL     1     -17.096  11.521  31.260  1.00  0.00     0.174 HD
ATOM     31 1H14 UNL     1     -16.898  12.663  29.951  1.00  0.00     0.174 HD
ENDBRANCH  21  29
ENDBRANCH   8  11
ENDBRANCH   3   4
ENDBRANCH   1   3
BRANCH   1  32
HETATM   32  C6  UNL     1      -8.177   5.469  26.067  1.00  0.00     0.071 A
HETATM   33  C7  UNL     1      -7.378   4.431  26.443  1.00  0.00     0.044 A
HETATM   34  C8  UNL     1      -7.558   3.003  26.022  1.00  0.00     0.071 C
HETATM   35  N7  UNL     1      -6.361   4.852  27.282  1.00  0.00    -0.282 N
HETATM   36  C16 UNL     1      -6.552   6.182  27.418  1.00  0.00     0.138 A
HETATM   37  C17 UNL     1      -7.660   6.578  26.680  1.00  0.00     0.105 A
HETATM   38  N10 UNL     1      -5.858   7.092  28.125  1.00  0.00    -0.288 N
HETATM   39  C18 UNL     1      -8.054   7.895  26.665  1.00  0.00     0.265 A
HETATM   40  O6  UNL     1      -9.069   8.190  25.976  1.00  0.00    -0.267 OA
HETATM   41  N9  UNL     1      -7.365   8.790  27.364  1.00  0.00    -0.274 N
HETATM   42  C19 UNL     1      -6.304   8.387  28.066  1.00  0.00     0.330 A
ATOM     43  H9  UNL     1      -7.642   9.772  27.364  1.00  0.00     0.173 HD
HETATM   44  O7  UNL     1      -5.621   9.229  28.748  1.00  0.00    -0.246 OA
HETATM   45  C20 UNL     1      -4.723   6.742  28.905  1.00  0.00     0.163 C
BRANCH  35  46
HETATM   46  C9  UNL     1      -5.394   4.007  27.816  1.00  0.00     0.126 C
HETATM   47  C10 UNL     1      -4.073   3.859  27.098  1.00  0.00     0.087 C
HETATM   48  C11 UNL     1      -3.324   3.091  28.201  1.00  0.00     0.043 C
HETATM   49  C12 UNL     1      -4.416   2.389  28.921  1.00  0.00     0.155 C
HETATM   50  O5  UNL     1      -5.643   2.927  28.594  1.00  0.00    -0.331 OA
BRANCH  49  51
HETATM   51  C13 UNL     1      -4.214   2.267  30.410  1.00  0.00     0.224 C
BRANCH  51  52
HETATM   52  O1  UNL     1      -4.355   0.995  30.902  1.00  0.00    -0.257 OA
BRANCH  52  53
HETATM   53  S1  UNL     1      -5.476   1.076  32.164  1.00  0.00     0.357 S
HETATM   54  O2  UNL     1      -5.307   2.418  32.847  1.00  0.00    -0.176 OA
HETATM   55  O3  UNL     1      -5.219  -0.005  33.187  1.00  0.00    -0.176 OA
BRANCH  53  56
HETATM   56  N8  UNL     1      -7.089   0.909  31.624  1.00  0.00    -0.295 N
ATOM     57  H8  UNL     1      -7.905   1.294  32.100  1.00  0.00     0.174 HD
BRANCH  56  58
HETATM   58  C14 UNL     1      -7.136   0.143  30.393  1.00  0.00     0.160 C
BRANCH  58  59
HETATM   59  C15 UNL     1      -8.224   0.652  29.468  1.00  0.00     0.184 C
BRANCH  59  60
HETATM   60  O4  UNL     1      -8.177   2.042  29.421  1.00  0.00    -0.399 OA
ATOM     61  H4  UNL     1      -8.452   2.337  28.561  1.00  0.00     0.209 HD
ENDBRANCH  59  60
ENDBRANCH  58  59
ENDBRANCH  56  58
ENDBRANCH  53  56
ENDBRANCH  52  53
ENDBRANCH  51  52
ENDBRANCH  49  51
ENDBRANCH  35  46
ENDBRANCH   1  32
TORSDOF 14
ENDMDL