MODEL 5
REMARK VINA RESULT: -7.040105238      2.564      9.210
REMARK  18 active torsions:
REMARK  status: ('A' for Active; 'I' for Inactive)
REMARK    1  A    between atoms: C2_2  and  C3_3
REMARK    2  A    between atoms: C3_3  and  C4_4
REMARK    3  A    between atoms: C4_4  and  O2_6
REMARK    4  A    between atoms: O2_6  and  C5_7
REMARK    5  A    between atoms: C6_9  and  C7_10
REMARK    6  A    between atoms: C8_14  and  O7_15
REMARK    7  A    between atoms: C9_17  and  N1_18
REMARK    8  A    between atoms: N1_18  and  C10_20
REMARK    9  A    between atoms: C13_24  and  O9_25
REMARK   10  A    between atoms: C14_27  and  O10_28
REMARK   11  A    between atoms: N2_32  and  C16_33
REMARK   12  A    between atoms: C18_35  and  O12_36
REMARK   13  A    between atoms: N3_41  and  C22_42
REMARK   14  A    between atoms: C22_42  and  C23_43
REMARK   15  A    between atoms: C23_43  and  O13_44
REMARK   16  A    between atoms: C24_47  and  C25_48
REMARK   17  A    between atoms: C25_48  and  O15_50
REMARK   18  A    between atoms: O15_50  and  C26_51
ROOT
HETATM    1  C5  UNL     1      -3.160   6.497  20.431  1.00  0.00     0.292 C
HETATM    2  O3  UNL     1      -3.358   6.243  19.091  1.00  0.00    -0.290 OA
HETATM    3  C6  UNL     1      -3.610   4.896  18.935  1.00  0.00     0.297 C
HETATM    4  O6  UNL     1      -3.103   4.311  20.098  1.00  0.00    -0.294 OA
HETATM    5  C8  UNL     1      -3.574   5.236  21.062  1.00  0.00     0.279 C
HETATM    6  C9  UNL     1      -5.047   4.974  21.221  1.00  0.00     0.097 C
HETATM    7  C18 UNL     1      -5.882   5.181  19.999  1.00  0.00     0.169 C
HETATM    8  C19 UNL     1      -6.511   6.471  19.780  1.00  0.00     0.283 C
HETATM    9  C20 UNL     1      -5.866   7.747  20.094  1.00  0.00     0.118 C
HETATM   10  C21 UNL     1      -5.822   8.077  18.598  1.00  0.00     0.290 C
HETATM   11  N3  UNL     1      -6.689   6.961  18.413  1.00  0.00     0.101 N
HETATM   12  S1  UNL     1      -4.345   7.775  20.940  1.00  0.00    -0.086 SA
HETATM   13  C24 UNL     1      -5.075   4.541  18.893  1.00  0.00     0.110 C
ENDROOT
BRANCH   6  14
HETATM   14  N1  UNL     1      -5.576   5.436  22.476  1.00  0.00    -0.363 N
ATOM     15  H1  UNL     1      -5.484   6.433  22.669  1.00  0.00     0.165 HD
BRANCH  14  16
HETATM   16  C10 UNL     1      -6.203   4.669  23.459  1.00  0.00     0.122 C
HETATM   17  C11 UNL     1      -7.034   4.901  24.432  1.00  0.00     0.106 A
HETATM   18  C12 UNL     1      -7.479   3.767  25.288  1.00  0.00     0.236 A
HETATM   19  N2  UNL     1      -7.540   6.182  24.717  1.00  0.00    -0.308 N
HETATM   20  O8  UNL     1      -7.051   2.612  25.066  1.00  0.00    -0.283 OA
HETATM   21  C13 UNL     1      -8.397   3.998  26.365  1.00  0.00     0.157 A
HETATM   22  C14 UNL     1      -8.885   5.194  26.651  1.00  0.00     0.172 A
HETATM   23  C15 UNL     1      -8.463   6.308  25.829  1.00  0.00     0.284 A
HETATM   24  O11 UNL     1      -8.926   7.474  26.093  1.00  0.00    -0.265 OA
BRANCH  21  25
HETATM   25  O9  UNL     1      -8.840   2.952  27.195  1.00  0.00    -0.355 OA
ATOM     26  H9  UNL     1      -9.375   3.116  27.962  1.00  0.00     0.218 HD
ENDBRANCH  21  25
BRANCH  22  27
HETATM   27  O10 UNL     1      -9.771   5.421  27.691  1.00  0.00    -0.354 OA
ATOM     28  H10 UNL     1     -10.655   5.742  27.559  1.00  0.00     0.218 HD
ENDBRANCH  22  27
BRANCH  19  29
HETATM   29  C16 UNL     1      -7.230   7.405  24.002  1.00  0.00     0.128 C
HETATM   30  C17 UNL     1      -8.256   7.743  22.936  1.00  0.00     0.027 C
ENDBRANCH  19  29
ENDBRANCH  14  16
ENDBRANCH   6  14
BRANCH   5  31
HETATM   31  O7  UNL     1      -2.950   4.972  22.257  1.00  0.00    -0.356 OA
ATOM     32  H7  UNL     1      -3.233   4.168  22.676  1.00  0.00     0.213 HD
ENDBRANCH   5  31
BRANCH   7  33
HETATM   33  O12 UNL     1      -6.974   4.256  20.141  1.00  0.00    -0.376 OA
ATOM     34  H12 UNL     1      -6.779   3.556  19.528  1.00  0.00     0.211 HD
ENDBRANCH   7  33
BRANCH   1  35
HETATM   35  O2  UNL     1      -1.958   7.043  20.811  1.00  0.00    -0.267 OA
BRANCH  35  36
HETATM   36  C4  UNL     1      -0.691   6.777  20.433  1.00  0.00     0.262 C
HETATM   37  O1  UNL     1      -0.344   5.596  20.365  1.00  0.00    -0.265 OA
BRANCH  36  38
HETATM   38  C3  UNL     1       0.280   7.843  20.102  1.00  0.00     0.111 C
BRANCH  38  39
HETATM   39  C2  UNL     1       1.695   7.301  20.015  1.00  0.00     0.005 C
HETATM   40  C1  UNL     1       2.501   7.698  21.230  1.00  0.00     0.005 C
ENDBRANCH  38  39
ENDBRANCH  36  38
ENDBRANCH  35  36
ENDBRANCH   1  35
BRANCH  13  41
HETATM   41  C25 UNL     1      -5.687   4.383  17.597  1.00  0.00     0.294 C
HETATM   42  O14 UNL     1      -5.367   5.170  16.657  1.00  0.00    -0.260 OA
BRANCH  41  43
HETATM   43  O15 UNL     1      -6.632   3.433  17.216  1.00  0.00    -0.318 OA
BRANCH  43  44
HETATM   44  C26 UNL     1      -6.281   2.168  16.678  1.00  0.00     0.174 C
HETATM   45  C27 UNL     1      -5.902   1.182  17.740  1.00  0.00     0.034 C
ENDBRANCH  43  44
ENDBRANCH  41  43
ENDBRANCH  13  41
BRANCH   3  46
HETATM   46  C7  UNL     1      -2.972   4.274  17.778  1.00  0.00     0.244 C
HETATM   47  O4  UNL     1      -2.399   5.003  16.923  1.00  0.00    -0.644 OA
HETATM   48  O5  UNL     1      -2.960   2.916  17.561  1.00  0.00    -0.644 OA
ENDBRANCH   3  46
BRANCH  11  49
HETATM   49  C22 UNL     1      -8.034   7.220  17.995  1.00  0.00     0.299 C
BRANCH  49  50
HETATM   50  C23 UNL     1      -8.632   6.205  17.090  1.00  0.00     0.194 C
BRANCH  50  51
HETATM   51  O13 UNL     1      -9.160   5.184  17.915  1.00  0.00    -0.399 OA
ATOM     52  H13 UNL     1      -9.290   5.566  18.774  1.00  0.00     0.209 HD
ENDBRANCH  50  51
ENDBRANCH  49  50
ENDBRANCH  11  49
TORSDOF 18
ENDMDL