MODEL 1
REMARK VINA RESULT: -9.524076556      0.000      0.000
REMARK  15 active torsions:
REMARK  status: ('A' for Active; 'I' for Inactive)
REMARK    1  A    between atoms: C2_2  and  C3_6
REMARK       I    between atoms: C3_6  and  N2_8
REMARK    2  A    between atoms: N2_8  and  C4_10
REMARK    3  A    between atoms: C4_10  and  C5_11
REMARK    4  A    between atoms: C4_10  and  N13_44
REMARK    5  A    between atoms: C5_11  and  N3_12
REMARK    6  A    between atoms: N3_12  and  C6_14
REMARK    7  A    between atoms: N5_18  and  C8_19
REMARK    8  A    between atoms: C8_19  and  C9_20
REMARK    9  A    between atoms: C11_24  and  N7_25
REMARK   10  A    between atoms: C12_30  and  N9_31
REMARK   11  A    between atoms: N11_37  and  C16_38
REMARK   12  A    between atoms: N13_44  and  C18_46
REMARK   13  A    between atoms: C20_52  and  C21_53
REMARK   14  A    between atoms: C21_53  and  O5_54
REMARK   15  A    between atoms: O5_54  and  C22_55
ROOT
HETATM    1  C6  UNL     1      -9.760   7.234  24.996  1.00  0.00     0.191 A
HETATM    2  N4  UNL     1      -9.850   6.836  26.211  1.00  0.00    -0.348 N
ATOM      3  H4  UNL     1      -9.144   6.297  26.711  1.00  0.00     0.163 HD
HETATM    4  C7  UNL     1     -11.123   7.279  26.765  1.00  0.00     0.237 A
HETATM    5  N5  UNL     1     -11.769   8.068  25.733  1.00  0.00    -0.205 NA
HETATM    6  N12 UNL     1     -10.932   7.954  24.622  1.00  0.00    -0.288 N
ATOM      7  H12 UNL     1     -11.128   8.326  23.692  1.00  0.00     0.184 HD
ENDROOT
BRANCH   1   8
HETATM    8  N3  UNL     1      -8.654   7.005  24.093  1.00  0.00    -0.337 N
ATOM      9  H3  UNL     1      -8.710   7.326  23.126  1.00  0.00     0.168 HD
BRANCH   8  10
HETATM   10  C5  UNL     1      -7.501   6.341  24.547  1.00  0.00     0.110 C
BRANCH  10  11
HETATM   11  C4  UNL     1      -7.137   5.017  23.971  1.00  0.00     0.220 C
BRANCH  11  12
HETATM   12  N2  UNL     1      -5.676   5.109  23.705  1.00  0.00    -0.331 N
HETATM   13  C3  UNL     1      -5.147   5.411  22.435  1.00  0.00     0.265 C
HETATM   14  O1  UNL     1      -5.916   5.618  21.447  1.00  0.00    -0.266 OA
ATOM     15  H2  UNL     1      -5.029   4.946  24.476  1.00  0.00     0.165 HD
BRANCH  13  16
HETATM   16  C2  UNL     1      -3.712   5.502  22.184  1.00  0.00     0.067 C
HETATM   17  C1  UNL     1      -3.173   6.104  20.966  1.00  0.00     0.074 C
HETATM   18  N1  UNL     1      -2.909   5.016  23.109  1.00  0.00    -0.398 N
ATOM     19  H12 UNL     1      -1.906   5.080  22.933  1.00  0.00     0.156 HD
ATOM     20  H11 UNL     1      -3.285   4.596  23.960  1.00  0.00     0.156 HD
ENDBRANCH  13  16
ENDBRANCH  11  12
BRANCH  11  21
HETATM   21  N13 UNL     1      -7.273   3.939  24.892  1.00  0.00    -0.382 N
ATOM     22  H13 UNL     1      -6.549   3.222  24.934  1.00  0.00     0.156 HD
BRANCH  21  23
HETATM   23  C18 UNL     1      -8.382   3.847  25.739  1.00  0.00     0.208 C
HETATM   24  C19 UNL     1      -8.931   2.494  26.044  1.00  0.00     0.265 C
HETATM   25  O4  UNL     1      -9.638   1.628  25.462  1.00  0.00    -0.269 OA
HETATM   26  N14 UNL     1      -8.312   2.569  27.313  1.00  0.00    -0.242 N
HETATM   27  N15 UNL     1      -7.873   1.977  28.509  1.00  0.00    -0.300 N
HETATM   28  C24 UNL     1      -8.046   4.003  27.225  1.00  0.00     0.204 C
HETATM   29  C20 UNL     1      -6.646   1.973  28.892  1.00  0.00     0.037 C
ATOM     30  H15 UNL     1      -8.566   1.526  29.106  1.00  0.00     0.186 HD
HETATM   31  C23 UNL     1      -5.614   2.616  28.042  1.00  0.00     0.132 C
HETATM   32  S1  UNL     1      -6.276   4.244  27.538  1.00  0.00    -0.133 SA
BRANCH  29  33
HETATM   33  C21 UNL     1      -6.229   1.352  30.138  1.00  0.00     0.234 C
BRANCH  33  34
HETATM   34  O5  UNL     1      -5.129   0.510  30.100  1.00  0.00    -0.301 OA
BRANCH  34  35
HETATM   35  C22 UNL     1      -5.056  -0.721  30.719  1.00  0.00     0.372 C
HETATM   36  N16 UNL     1      -6.241  -1.280  31.284  1.00  0.00    -0.032 NA
HETATM   37  O6  UNL     1      -3.970  -1.347  30.793  1.00  0.00    -0.242 OA
ENDBRANCH  34  35
ENDBRANCH  33  34
ENDBRANCH  29  33
ENDBRANCH  21  23
ENDBRANCH  11  21
ENDBRANCH  10  11
ENDBRANCH   8  10
ENDBRANCH   1   8
BRANCH   5  38
HETATM   38  C8  UNL     1     -13.061   7.482  25.465  1.00  0.00     0.178 C
BRANCH  38  39
HETATM   39  C9  UNL     1     -14.060   8.099  26.370  1.00  0.00     0.094 A
HETATM   40  N6  UNL     1     -13.912   9.322  26.913  1.00  0.00    -0.348 N
HETATM   41  C10 UNL     1     -14.830   9.870  27.714  1.00  0.00     0.123 A
ATOM     42  H6  UNL     1     -13.066   9.851  26.703  1.00  0.00     0.166 HD
HETATM   43  C11 UNL     1     -14.610  11.117  28.227  1.00  0.00     0.145 A
HETATM   44  C15 UNL     1     -15.995   9.209  28.036  1.00  0.00     0.163 A
HETATM   45  N8  UNL     1     -15.547  11.659  29.038  1.00  0.00    -0.175 N
HETATM   46  C12 UNL     1     -16.680  11.012  29.352  1.00  0.00     0.682 A
ATOM     47  H8  UNL     1     -15.387  12.589  29.423  1.00  0.00     0.186 HD
HETATM   48  N10 UNL     1     -16.902   9.783  28.848  1.00  0.00    -0.173 N
ATOM     49  H10 UNL     1     -17.760   9.285  29.082  1.00  0.00     0.186 HD
HETATM   50  N11 UNL     1     -16.180   7.974  27.510  1.00  0.00    -0.236 N
HETATM   51  C17 UNL     1     -15.225   7.437  26.693  1.00  0.00     0.279 A
HETATM   52  O3  UNL     1     -15.451   6.279  26.228  1.00  0.00    -0.265 OA
BRANCH  43  53
HETATM   53  N7  UNL     1     -13.551  11.798  27.958  1.00  0.00    -0.383 N
ATOM     54  H72 UNL     1     -13.368  12.065  26.990  1.00  0.00     0.157 HD
ATOM     55  H71 UNL     1     -12.881  12.074  28.675  1.00  0.00     0.157 HD
ENDBRANCH  43  53
BRANCH  46  56
HETATM   56  N9  UNL     1     -17.606  11.654  30.213  1.00  0.00    -0.226 N
HETATM   57  C13 UNL     1     -19.016  11.426  30.039  1.00  0.00     0.168 C
HETATM   58  C14 UNL     1     -17.112  12.525  31.245  1.00  0.00     0.168 C
ENDBRANCH  46  56
BRANCH  50  59
HETATM   59  C16 UNL     1     -17.346   7.228  27.792  1.00  0.00     0.364 C
HETATM   60  O2  UNL     1     -18.472   7.663  27.391  1.00  0.00    -0.283 OA
ENDBRANCH  50  59
ENDBRANCH  38  39
ENDBRANCH   5  38
TORSDOF 15
ENDMDL