MODEL 1
REMARK VINA RESULT: -8.838952562      0.000      0.000
REMARK  16 active torsions:
REMARK  status: ('A' for Active; 'I' for Inactive)
REMARK    1  A    between atoms: O1_2  and  C2_3
REMARK    2  A    between atoms: C2_3  and  C3_5
REMARK    3  A    between atoms: C3_5  and  N1_6
REMARK    4  A    between atoms: C3_5  and  C6_16
REMARK       I    between atoms: N1_6  and  C4_8
REMARK    5  A    between atoms: C4_8  and  C5_10
REMARK    6  A    between atoms: C5_10  and  N2_11
REMARK    7  A    between atoms: N2_11  and  N3_13
REMARK    8  A    between atoms: C6_16  and  N4_17
REMARK    9  A    between atoms: C6_16  and  O4_21
REMARK   10  A    between atoms: O4_21  and  C7_22
REMARK   11  A    between atoms: C10_27  and  N6_28
REMARK   12  A    between atoms: N10_46  and  O7_47
REMARK   13  A    between atoms: O7_47  and  S3_48
REMARK   14  A    between atoms: S3_48  and  O10_51
REMARK   15  A    between atoms: O10_51  and  C16_52
REMARK   16  A    between atoms: C16_52  and  C17_53
ROOT
HETATM    1  C7  UNL     1      -5.602   4.735  24.652  1.00  0.00     0.199 C
HETATM    2  C8  UNL     1      -4.257   5.359  24.748  1.00  0.00     0.076 A
HETATM    3  C9  UNL     1      -3.734   5.966  25.870  1.00  0.00     0.111 A
HETATM    4  N5  UNL     1      -2.477   6.501  25.851  1.00  0.00    -0.184 N
ATOM      5  H5  UNL     1      -2.120   6.943  26.698  1.00  0.00     0.185 HD
HETATM    6  C10 UNL     1      -1.705   6.469  24.774  1.00  0.00     0.679 A
HETATM    7  N7  UNL     1      -2.194   5.883  23.671  1.00  0.00    -0.156 N
ATOM      8  H7  UNL     1      -1.610   5.852  22.836  1.00  0.00     0.187 HD
HETATM    9  C11 UNL     1      -3.411   5.341  23.621  1.00  0.00     0.271 A
HETATM   10  O5  UNL     1      -3.823   4.804  22.565  1.00  0.00    -0.267 OA
HETATM   11  S1  UNL     1      -4.605   6.131  27.421  1.00  0.00    -0.038 SA
HETATM   12  S2  UNL     1      -3.589   4.964  28.886  1.00  0.00    -0.083 SA
HETATM   13  C12 UNL     1      -4.474   3.340  29.078  1.00  0.00     0.166 C
HETATM   14  C13 UNL     1      -5.111   3.038  27.766  1.00  0.00     0.139 C
HETATM   15  N8  UNL     1      -4.102   3.164  26.909  1.00  0.00    -0.290 N
ATOM     16  H8  UNL     1      -3.195   3.413  27.302  1.00  0.00     0.188 HD
HETATM   17  N9  UNL     1      -4.159   2.997  25.583  1.00  0.00    -0.318 N
ATOM     18  H9  UNL     1      -3.347   2.688  25.049  1.00  0.00     0.181 HD
HETATM   19  C14 UNL     1      -5.458   3.280  24.924  1.00  0.00     0.227 C
HETATM   20  C15 UNL     1      -6.431   2.626  25.807  1.00  0.00     0.277 C
HETATM   21  O6  UNL     1      -7.343   1.940  25.325  1.00  0.00    -0.268 OA
HETATM   22  N10 UNL     1      -6.365   2.749  27.285  1.00  0.00    -0.153 N
ENDROOT
BRANCH   1  23
HETATM   23  O4  UNL     1      -6.634   5.411  25.237  1.00  0.00    -0.344 OA
BRANCH  23  24
HETATM   24  C6  UNL     1      -7.072   6.530  24.546  1.00  0.00     0.352 C
BRANCH  24  25
HETATM   25  C3  UNL     1      -8.193   7.320  25.102  1.00  0.00     0.241 C
BRANCH  25  26
HETATM   26  C2  UNL     1      -8.536   8.588  24.440  1.00  0.00     0.285 C
HETATM   27  O2  UNL     1      -9.356   8.557  23.450  1.00  0.00    -0.263 OA
BRANCH  26  28
HETATM   28  O1  UNL     1      -8.068   9.835  24.773  1.00  0.00    -0.325 OA
HETATM   29  C1  UNL     1      -7.664  10.143  26.089  1.00  0.00     0.213 C
ENDBRANCH  26  28
ENDBRANCH  25  26
BRANCH  25  30
HETATM   30  N1  UNL     1      -9.431   6.543  25.131  1.00  0.00    -0.339 N
HETATM   31  C4  UNL     1      -9.942   5.954  26.302  1.00  0.00     0.259 C
HETATM   32  O3  UNL     1      -9.362   6.057  27.405  1.00  0.00    -0.267 OA
ATOM     33  H1  UNL     1      -9.949   6.422  24.261  1.00  0.00     0.163 HD
BRANCH  31  34
HETATM   34  C5  UNL     1     -11.198   5.178  26.290  1.00  0.00     0.180 C
BRANCH  34  35
HETATM   35  N2  UNL     1     -11.218   3.910  26.109  1.00  0.00    -0.313 N
ATOM     36  H2  UNL     1     -12.109   3.461  25.895  1.00  0.00     0.185 HD
BRANCH  35  37
HETATM   37  N3  UNL     1     -10.075   3.116  26.190  1.00  0.00    -0.345 N
ATOM     38  H32 UNL     1      -9.597   3.070  27.090  1.00  0.00     0.176 HD
ATOM     39  H31 UNL     1      -9.708   2.590  25.397  1.00  0.00     0.176 HD
ENDBRANCH  35  37
ENDBRANCH  34  35
ENDBRANCH  31  34
ENDBRANCH  25  30
ENDBRANCH  24  25
BRANCH  24  40
HETATM   40  N4  UNL     1      -7.557   6.115  23.191  1.00  0.00    -0.050 N
ATOM     41  H43 UNL     1      -8.462   6.507  22.931  1.00  0.00     0.277 HD
ATOM     42  H42 UNL     1      -7.035   6.522  22.415  1.00  0.00     0.277 HD
ATOM     43  H41 UNL     1      -7.535   5.096  23.222  1.00  0.00     0.277 HD
ENDBRANCH  24  40
ENDBRANCH  23  24
ENDBRANCH   1  23
BRANCH  22  44
HETATM   44  O7  UNL     1      -7.582   2.484  27.816  1.00  0.00    -0.117 OA
BRANCH  44  45
HETATM   45  S3  UNL     1      -7.735   1.413  29.020  1.00  0.00     0.423 S
HETATM   46  O8  UNL     1      -7.869   1.936  30.395  1.00  0.00    -0.167 OA
HETATM   47  O9  UNL     1      -8.905   0.482  28.762  1.00  0.00    -0.167 OA
BRANCH  45  48
HETATM   48  O10 UNL     1      -6.371   0.388  29.029  1.00  0.00    -0.248 OA
BRANCH  48  49
HETATM   49  C16 UNL     1      -6.714  -0.817  29.646  1.00  0.00     0.231 C
BRANCH  49  50
HETATM   50  C17 UNL     1      -5.837  -1.002  30.822  1.00  0.00    -0.033 A
HETATM   51  C18 UNL     1      -4.624  -0.371  30.884  1.00  0.00     0.009 A
HETATM   52  C19 UNL     1      -3.814  -0.559  31.992  1.00  0.00     0.001 A
HETATM   53  C20 UNL     1      -4.211  -1.365  33.014  1.00  0.00     0.000 A
HETATM   54  C21 UNL     1      -5.425  -2.005  32.964  1.00  0.00     0.001 A
HETATM   55  C22 UNL     1      -6.232  -1.816  31.861  1.00  0.00     0.009 A
ENDBRANCH  49  50
ENDBRANCH  48  49
ENDBRANCH  45  48
ENDBRANCH  44  45
ENDBRANCH  22  44
BRANCH   6  56
HETATM   56  N6  UNL     1      -0.527   6.997  24.826  1.00  0.00    -0.234 N
ATOM     57  H62 UNL     1      -0.241   7.645  25.560  1.00  0.00     0.174 HD
ATOM     58  H61 UNL     1       0.157   6.761  24.106  1.00  0.00     0.174 HD
ENDBRANCH   6  56
TORSDOF 16
ENDMDL