MODEL 3
REMARK VINA RESULT: -7.007867370      2.916      9.232
REMARK  18 active torsions:
REMARK  status: ('A' for Active; 'I' for Inactive)
REMARK    1  A    between atoms: O1_2  and  C2_3
REMARK    2  A    between atoms: C3_5  and  C4_6
REMARK    3  A    between atoms: C4_6  and  O3_7
REMARK    4  A    between atoms: C5_9  and  O4_10
REMARK    5  A    between atoms: O4_10  and  C6_11
REMARK    6  A    between atoms: C7_13  and  O6_14
REMARK    7  A    between atoms: C9_18  and  C11_20
REMARK    8  A    between atoms: C11_20  and  O8_21
REMARK    9  A    between atoms: C11_20  and  C12_23
REMARK   10  A    between atoms: C11_20  and  C13_26
REMARK   11  A    between atoms: C12_23  and  O9_24
REMARK   12  A    between atoms: C13_26  and  O10_27
REMARK   13  A    between atoms: C22_40  and  O14_41
REMARK   14  A    between atoms: C23_43  and  O15_44
REMARK   15  A    between atoms: O15_44  and  C24_45
REMARK   16  A    between atoms: C26_48  and  C27_49
REMARK   17  A    between atoms: C27_49  and  O17_50
REMARK   18  A    between atoms: C28_52  and  O18_53
ROOT
HETATM    1  C6  UNL     1      -6.151   5.149  24.814  1.00  0.00     0.301 C
HETATM    2  O5  UNL     1      -6.482   6.159  23.852  1.00  0.00    -0.317 OA
HETATM    3  C7  UNL     1      -6.227   5.630  22.582  1.00  0.00     0.225 C
HETATM    4  C8  UNL     1      -4.753   5.344  22.546  1.00  0.00     0.222 C
HETATM    5  O7  UNL     1      -4.192   5.813  23.728  1.00  0.00    -0.359 OA
HETATM    6  C9  UNL     1      -4.674   5.073  24.855  1.00  0.00     0.142 C
HETATM    7  C10 UNL     1      -4.130   3.681  24.681  1.00  0.00     0.054 C
HETATM    8  C14 UNL     1      -4.010   5.903  21.386  1.00  0.00     0.215 C
HETATM    9  O11 UNL     1      -3.547   4.905  20.530  1.00  0.00    -0.343 OA
HETATM   10  C15 UNL     1      -3.859   5.242  19.240  1.00  0.00     0.160 C
HETATM   11  C16 UNL     1      -5.075   4.432  18.826  1.00  0.00     0.078 C
HETATM   12  C17 UNL     1      -2.745   4.964  18.248  1.00  0.00     0.078 C
HETATM   13  O12 UNL     1      -4.214   6.591  19.241  1.00  0.00    -0.323 OA
HETATM   14  C18 UNL     1      -4.775   6.815  20.496  1.00  0.00     0.296 C
HETATM   15  O13 UNL     1      -6.123   6.469  20.389  1.00  0.00    -0.343 OA
HETATM   16  C19 UNL     1      -6.688   6.691  21.615  1.00  0.00     0.116 C
HETATM   17  C20 UNL     1      -6.432   8.083  22.131  1.00  0.00     0.051 C
HETATM   18  C21 UNL     1      -8.206   6.505  21.486  1.00  0.00     0.051 C
ENDROOT
BRANCH   1  19
HETATM   19  O4  UNL     1      -6.853   5.597  25.919  1.00  0.00    -0.347 OA
BRANCH  19  20
HETATM   20  C5  UNL     1      -8.206   5.489  25.800  1.00  0.00     0.187 C
HETATM   21  C3  UNL     1      -8.682   4.129  25.503  1.00  0.00     0.180 C
HETATM   22  O2  UNL     1     -10.075   3.989  25.743  1.00  0.00    -0.349 OA
HETATM   23  C2  UNL     1     -10.797   5.109  25.432  1.00  0.00     0.291 C
HETATM   24  C23 UNL     1     -10.411   6.263  26.288  1.00  0.00     0.211 C
HETATM   25  C22 UNL     1      -9.021   6.074  26.924  1.00  0.00     0.183 C
BRANCH  21  26
HETATM   26  C4  UNL     1      -8.060   3.042  26.368  1.00  0.00     0.198 C
BRANCH  26  27
HETATM   27  O3  UNL     1      -7.562   2.041  25.518  1.00  0.00    -0.398 OA
ATOM     28  H3  UNL     1      -8.240   1.385  25.407  1.00  0.00     0.209 HD
ENDBRANCH  26  27
ENDBRANCH  21  26
BRANCH  23  29
HETATM   29  O1  UNL     1     -10.584   5.337  24.052  1.00  0.00    -0.363 OA
HETATM   30  C1  UNL     1     -11.153   6.561  23.706  1.00  0.00     0.204 C
ENDBRANCH  23  29
BRANCH  24  31
HETATM   31  O15 UNL     1     -11.339   6.682  27.208  1.00  0.00    -0.346 OA
BRANCH  31  32
HETATM   32  C24 UNL     1     -12.363   7.377  26.575  1.00  0.00     0.289 C
HETATM   33  O16 UNL     1     -13.494   6.608  26.581  1.00  0.00    -0.358 OA
HETATM   34  C25 UNL     1     -14.600   7.446  26.469  1.00  0.00     0.180 C
HETATM   35  C26 UNL     1     -14.148   8.851  26.746  1.00  0.00     0.067 C
HETATM   36  C28 UNL     1     -12.758   8.643  27.311  1.00  0.00     0.181 C
BRANCH  35  37
HETATM   37  C27 UNL     1     -15.065   9.583  27.691  1.00  0.00     0.173 C
BRANCH  37  38
HETATM   38  O17 UNL     1     -15.679   8.661  28.536  1.00  0.00    -0.400 OA
ATOM     39  H17 UNL     1     -15.454   8.868  29.436  1.00  0.00     0.209 HD
ENDBRANCH  37  38
ENDBRANCH  35  37
BRANCH  36  40
HETATM   40  O18 UNL     1     -12.750   8.481  28.682  1.00  0.00    -0.390 OA
ATOM     41  H18 UNL     1     -13.579   8.719  29.081  1.00  0.00     0.210 HD
ENDBRANCH  36  40
ENDBRANCH  31  32
ENDBRANCH  24  31
BRANCH  25  42
HETATM   42  O14 UNL     1      -9.052   5.331  28.057  1.00  0.00    -0.390 OA
ATOM     43  H14 UNL     1      -8.352   5.510  28.674  1.00  0.00     0.210 HD
ENDBRANCH  25  42
ENDBRANCH  19  20
ENDBRANCH   1  19
BRANCH   6  44
HETATM   44  C11 UNL     1      -4.043   5.805  26.026  1.00  0.00     0.135 C
BRANCH  44  45
HETATM   45  O8  UNL     1      -4.657   7.034  26.113  1.00  0.00    -0.382 OA
ATOM     46  H8  UNL     1      -4.898   7.163  27.023  1.00  0.00     0.210 HD
ENDBRANCH  44  45
BRANCH  44  47
HETATM   47  C12 UNL     1      -2.586   6.132  25.595  1.00  0.00     0.207 C
BRANCH  47  48
HETATM   48  O9  UNL     1      -2.451   7.498  25.698  1.00  0.00    -0.398 OA
ATOM     49  H9  UNL     1      -1.900   7.767  24.972  1.00  0.00     0.209 HD
ENDBRANCH  47  48
ENDBRANCH  44  47
BRANCH  44  50
HETATM   50  C13 UNL     1      -3.936   5.035  27.277  1.00  0.00     0.207 C
BRANCH  50  51
HETATM   51  O10 UNL     1      -5.064   5.323  28.083  1.00  0.00    -0.398 OA
ATOM     52  H10 UNL     1      -4.776   5.812  28.845  1.00  0.00     0.209 HD
ENDBRANCH  50  51
ENDBRANCH  44  50
ENDBRANCH   6  44
BRANCH   3  53
HETATM   53  O6  UNL     1      -7.012   4.508  22.420  1.00  0.00    -0.361 OA
ATOM     54  H6  UNL     1      -7.149   4.376  21.489  1.00  0.00     0.213 HD
ENDBRANCH   3  53
TORSDOF 18
ENDMDL