MODEL 3
REMARK VINA RESULT: -11.815326890      1.139      1.420
REMARK  12 active torsions:
REMARK  status: ('A' for Active; 'I' for Inactive)
REMARK       I    between atoms: C2_2  and  N1_4
REMARK    1  A    between atoms: C3_5  and  C4_6
REMARK    2  A    between atoms: C5_9  and  C6_10
REMARK    3  A    between atoms: C6_10  and  S1_11
REMARK    4  A    between atoms: S1_11  and  C7_12
REMARK    5  A    between atoms: C8_15  and  N3_16
REMARK    6  A    between atoms: C9_23  and  O4_24
REMARK    7  A    between atoms: C10_26  and  C11_27
REMARK       I    between atoms: C11_27  and  N6_29
REMARK    8  A    between atoms: N6_29  and  C12_31
REMARK    9  A    between atoms: C12_31  and  C13_32
REMARK       I    between atoms: C13_32  and  N7_34
REMARK   10  A    between atoms: C15_36  and  C16_37
REMARK   11  A    between atoms: C16_37  and  N8_38
REMARK   12  A    between atoms: C20_47  and  N12_48
ROOT
HETATM    1  C11 UNL     1      -7.888   2.347  26.617  1.00  0.00     0.244 C
HETATM    2  O5  UNL     1      -7.910   2.066  25.398  1.00  0.00    -0.271 OA
HETATM    3  N6  UNL     1      -8.820   3.309  27.092  1.00  0.00    -0.350 N
ATOM      4  H6  UNL     1      -8.826   3.555  28.081  1.00  0.00     0.163 HD
ENDROOT
BRANCH   3   5
HETATM    5  C12 UNL     1      -9.746   3.936  26.209  1.00  0.00     0.227 C
BRANCH   5   6
HETATM    6  C13 UNL     1      -9.540   5.373  25.977  1.00  0.00     0.258 C
HETATM    7  O6  UNL     1      -8.412   5.847  25.748  1.00  0.00    -0.270 OA
HETATM    8  N7  UNL     1     -10.665   6.238  26.013  1.00  0.00    -0.216 N
HETATM    9  C14 UNL     1     -11.960   5.911  26.246  1.00  0.00     0.145 A
HETATM   10  N14 UNL     1     -10.658   7.548  25.821  1.00  0.00    -0.013 NA
HETATM   11  C15 UNL     1     -12.744   7.041  26.193  1.00  0.00     0.061 A
HETATM   12  N13 UNL     1     -11.889   8.041  25.925  1.00  0.00    -0.285 N
ATOM     13  H13 UNL     1     -12.144   9.023  25.817  1.00  0.00     0.184 HD
BRANCH  11  14
HETATM   14  C16 UNL     1     -14.208   7.133  26.391  1.00  0.00     0.213 C
BRANCH  14  15
HETATM   15  N8  UNL     1     -14.453   8.355  27.169  1.00  0.00    -0.236 N
HETATM   16  N9  UNL     1     -13.561   9.322  27.244  1.00  0.00    -0.237 N
HETATM   17  N10 UNL     1     -13.814  10.405  27.949  1.00  0.00    -0.285 N
ATOM     18  H9  UNL     1     -12.670   9.231  26.753  1.00  0.00     0.208 HD
HETATM   19  C17 UNL     1     -14.985  10.553  28.609  1.00  0.00     0.067 A
ATOM     20  H10 UNL     1     -13.114  11.145  27.998  1.00  0.00     0.188 HD
HETATM   21  C18 UNL     1     -15.302  11.659  29.358  1.00  0.00     0.061 A
HETATM   22  C22 UNL     1     -15.932   9.552  28.542  1.00  0.00     0.064 A
HETATM   23  C19 UNL     1     -16.523  11.762  30.019  1.00  0.00     0.081 A
HETATM   24  N11 UNL     1     -16.862  12.903  30.797  1.00  0.00    -0.100 NA
HETATM   25  C20 UNL     1     -17.436  10.748  29.929  1.00  0.00     0.128 A
HETATM   26  C21 UNL     1     -17.146   9.637  29.190  1.00  0.00     0.057 A
HETATM   27  C23 UNL     1     -15.624   8.444  27.797  1.00  0.00     0.276 A
HETATM   28  O9  UNL     1     -16.461   7.500  27.707  1.00  0.00    -0.266 OA
BRANCH  25  29
HETATM   29  N12 UNL     1     -18.713  10.783  30.581  1.00  0.00    -0.114 N
HETATM   30  O7  UNL     1     -18.906  10.303  31.708  1.00  0.00    -0.532 OA
HETATM   31  O8  UNL     1     -19.775  11.369  29.940  1.00  0.00    -0.532 OA
ENDBRANCH  25  29
ENDBRANCH  14  15
ENDBRANCH  11  14
ENDBRANCH   5   6
ENDBRANCH   3   5
BRANCH   1  32
HETATM   32  C10 UNL     1      -6.933   1.714  27.555  1.00  0.00     0.218 C
HETATM   33  N1  UNL     1      -5.890   2.653  27.995  1.00  0.00    -0.295 N
HETATM   34  C2  UNL     1      -5.406   3.777  27.325  1.00  0.00     0.221 C
HETATM   35  C3  UNL     1      -5.556   2.183  29.327  1.00  0.00     0.121 C
HETATM   36  C1  UNL     1      -4.603   4.886  27.868  1.00  0.00     0.117 C
HETATM   37  O1  UNL     1      -5.694   3.887  26.068  1.00  0.00    -0.273 OA
HETATM   38  C5  UNL     1      -6.621   1.678  29.889  1.00  0.00    -0.005 C
HETATM   39  C9  UNL     1      -7.751   1.699  28.891  1.00  0.00     0.183 C
BRANCH  35  40
HETATM   40  C4  UNL     1      -4.202   2.223  29.913  1.00  0.00     0.227 C
HETATM   41  O2  UNL     1      -3.794   3.162  30.653  1.00  0.00    -0.643 OA
HETATM   42  O3  UNL     1      -3.254   1.234  29.708  1.00  0.00    -0.643 OA
ENDBRANCH  35  40
BRANCH  38  43
HETATM   43  C6  UNL     1      -6.823   1.066  31.260  1.00  0.00     0.122 C
BRANCH  43  44
HETATM   44  S1  UNL     1      -6.195  -0.639  31.213  1.00  0.00    -0.088 SA
BRANCH  44  45
HETATM   45  C7  UNL     1      -4.798  -0.727  32.323  1.00  0.00     0.174 A
HETATM   46  N2  UNL     1      -4.845  -0.783  33.665  1.00  0.00    -0.168 N
HETATM   47  C8  UNL     1      -3.588  -0.840  34.133  1.00  0.00     0.692 A
ATOM     48  H2  UNL     1      -5.694  -0.782  34.232  1.00  0.00     0.186 HD
HETATM   49  N4  UNL     1      -2.750  -0.822  33.101  1.00  0.00    -0.130 N
HETATM   50  N5  UNL     1      -3.496  -0.754  32.006  1.00  0.00    -0.265 N
ATOM     51  H4  UNL     1      -1.731  -0.855  33.142  1.00  0.00     0.205 HD
ATOM     52  H5  UNL     1      -3.129  -0.725  31.054  1.00  0.00     0.189 HD
BRANCH  47  53
HETATM   53  N3  UNL     1      -3.208  -0.904  35.372  1.00  0.00    -0.233 N
ATOM     54  H32 UNL     1      -3.803  -0.654  36.162  1.00  0.00     0.174 HD
ATOM     55  H31 UNL     1      -2.299  -1.198  35.728  1.00  0.00     0.174 HD
ENDBRANCH  47  53
ENDBRANCH  44  45
ENDBRANCH  43  44
ENDBRANCH  38  43
BRANCH  39  56
HETATM   56  O4  UNL     1      -8.462   0.517  29.001  1.00  0.00    -0.389 OA
ATOM     57  H4  UNL     1      -8.258  -0.033  28.254  1.00  0.00     0.210 HD
ENDBRANCH  39  56
ENDBRANCH   1  32
TORSDOF 12
ENDMDL