MODEL 2
REMARK VINA RESULT: -5.690261004      2.132      5.697
REMARK  23 active torsions:
REMARK  status: ('A' for Active; 'I' for Inactive)
REMARK    1  A    between atoms: O1_2  and  C2_3
REMARK    2  A    between atoms: C2_3  and  C3_5
REMARK    3  A    between atoms: C5_8  and  O4_9
REMARK    4  A    between atoms: C6_11  and  O5_12
REMARK    5  A    between atoms: C7_14  and  O6_15
REMARK    6  A    between atoms: C8_17  and  O7_18
REMARK    7  A    between atoms: C10_21  and  C11_22
REMARK    8  A    between atoms: C11_22  and  O8_23
REMARK    9  A    between atoms: O8_23  and  C12_24
REMARK   10  A    between atoms: C15_28  and  O10_29
REMARK   11  A    between atoms: C15_28  and  C17_33
REMARK   12  A    between atoms: O10_29  and  C16_30
REMARK   13  A    between atoms: C17_33  and  O12_34
REMARK   14  A    between atoms: C17_33  and  C18_36
REMARK   15  A    between atoms: C20_38  and  O13_39
REMARK   16  A    between atoms: C21_41  and  O14_43
REMARK   17  A    between atoms: C23_45  and  O15_46
REMARK   18  A    between atoms: O15_46  and  C24_47
REMARK   19  A    between atoms: C24_47  and  C25_49
REMARK   20  A    between atoms: C25_49  and  C26_50
REMARK   21  A    between atoms: N2_51  and  C27_53
REMARK   22  A    between atoms: C27_53  and  C28_54
REMARK   23  A    between atoms: C28_54  and  O17_55
ROOT
HETATM    1  C3  UNL     1      -4.625   8.623  18.848  1.00  0.00     0.166 C
HETATM    2  C4  UNL     1      -3.759   7.899  19.792  1.00  0.00     0.184 C
HETATM    3  O3  UNL     1      -2.583   8.270  19.940  1.00  0.00    -0.293 OA
HETATM    4  C5  UNL     1      -4.210   6.738  20.593  1.00  0.00     0.199 C
HETATM    5  C6  UNL     1      -3.493   5.493  20.364  1.00  0.00     0.124 C
HETATM    6  C7  UNL     1      -2.616   5.061  19.310  1.00  0.00     0.127 C
HETATM    7  C8  UNL     1      -2.777   4.907  17.882  1.00  0.00     0.079 C
HETATM    8  C9  UNL     1      -3.660   5.641  16.944  1.00  0.00     0.074 C
HETATM    9  C10 UNL     1      -4.037   7.015  17.240  1.00  0.00     0.025 C
HETATM   10  C14 UNL     1      -5.208   7.570  17.872  1.00  0.00     0.054 C
HETATM   11  C15 UNL     1      -6.470   6.979  18.339  1.00  0.00     0.140 C
HETATM   12  C21 UNL     1      -6.706   7.184  19.876  1.00  0.00     0.119 C
HETATM   13  C22 UNL     1      -7.499   8.350  20.346  1.00  0.00     0.052 C
HETATM   14  C23 UNL     1      -5.654   6.784  20.817  1.00  0.00     0.217 C
ENDROOT
BRANCH  11  15
HETATM   15  O10 UNL     1      -6.958   5.802  17.973  1.00  0.00    -0.288 OA
BRANCH  15  16
HETATM   16  C16 UNL     1      -7.201   4.764  17.274  1.00  0.00     0.373 C
HETATM   17  N1  UNL     1      -6.759   4.239  16.044  1.00  0.00    -0.032 NA
HETATM   18  O11 UNL     1      -8.048   4.075  17.876  1.00  0.00    -0.242 OA
ENDBRANCH  15  16
ENDBRANCH  11  15
BRANCH  11  19
HETATM   19  C17 UNL     1      -7.654   7.800  17.804  1.00  0.00     0.187 C
BRANCH  19  20
HETATM   20  O12 UNL     1      -8.814   7.044  17.812  1.00  0.00    -0.388 OA
ATOM     21  H12 UNL     1      -9.366   7.272  17.074  1.00  0.00     0.210 HD
ENDBRANCH  19  20
BRANCH  19  22
HETATM   22  C18 UNL     1      -7.595   8.426  16.503  1.00  0.00    -0.031 C
HETATM   23  C19 UNL     1      -7.544   7.884  15.146  1.00  0.00     0.048 C
HETATM   24  C20 UNL     1      -7.597   9.747  16.489  1.00  0.00     0.136 C
BRANCH  24  25
HETATM   25  O13 UNL     1      -7.649  10.573  17.567  1.00  0.00    -0.372 OA
ATOM     26  H13 UNL     1      -7.206  11.408  17.667  1.00  0.00     0.216 HD
ENDBRANCH  24  25
ENDBRANCH  19  22
ENDBRANCH  11  19
BRANCH  12  27
HETATM   27  O14 UNL     1      -7.709   6.157  20.113  1.00  0.00    -0.384 OA
ATOM     28  H14 UNL     1      -8.233   6.257  19.328  1.00  0.00     0.210 HD
ENDBRANCH  12  27
BRANCH   1  29
HETATM   29  C2  UNL     1      -3.931   9.751  18.195  1.00  0.00     0.270 C
HETATM   30  O2  UNL     1      -4.592  10.580  17.515  1.00  0.00    -0.264 OA
BRANCH  29  31
HETATM   31  O1  UNL     1      -2.578  10.001  18.255  1.00  0.00    -0.326 OA
HETATM   32  C1  UNL     1      -2.070  11.263  17.980  1.00  0.00     0.213 C
ENDBRANCH  29  31
ENDBRANCH   1  29
BRANCH   9  33
HETATM   33  C11 UNL     1      -3.760   7.745  15.872  1.00  0.00     0.184 C
BRANCH  33  34
HETATM   34  O8  UNL     1      -2.486   7.494  15.415  1.00  0.00    -0.321 OA
BRANCH  34  35
HETATM   35  C12 UNL     1      -1.532   8.465  15.415  1.00  0.00     0.254 C
HETATM   36  C13 UNL     1      -1.589   9.713  14.619  1.00  0.00     0.126 C
HETATM   37  O9  UNL     1      -0.512   8.287  16.154  1.00  0.00    -0.266 OA
ENDBRANCH  34  35
ENDBRANCH  33  34
ENDBRANCH   9  33
BRANCH  14  38
HETATM   38  O15 UNL     1      -6.121   5.828  21.775  1.00  0.00    -0.309 OA
BRANCH  38  39
HETATM   39  C24 UNL     1      -6.388   5.949  23.064  1.00  0.00     0.264 C
HETATM   40  O16 UNL     1      -6.421   7.112  23.478  1.00  0.00    -0.265 OA
BRANCH  39  41
HETATM   41  C25 UNL     1      -6.631   4.810  23.957  1.00  0.00     0.155 C
BRANCH  41  42
HETATM   42  C26 UNL     1      -5.394   4.236  24.541  1.00  0.00     0.070 C
HETATM   43  N2  UNL     1      -4.296   4.796  24.248  1.00  0.00    -0.380 N
ATOM     44  H2  UNL     1      -4.361   5.603  23.628  1.00  0.00     0.164 HD
BRANCH  43  45
HETATM   45  C27 UNL     1      -2.996   4.450  24.667  1.00  0.00     0.086 C
BRANCH  45  46
HETATM   46  C28 UNL     1      -2.019   5.603  24.518  1.00  0.00     0.208 C
BRANCH  46  47
HETATM   47  O17 UNL     1      -1.591   5.735  23.201  1.00  0.00    -0.396 OA
ATOM     48  H17 UNL     1      -0.715   6.099  23.158  1.00  0.00     0.209 HD
ENDBRANCH  46  47
ENDBRANCH  45  46
ENDBRANCH  43  45
ENDBRANCH  41  42
ENDBRANCH  39  41
ENDBRANCH  38  39
ENDBRANCH  14  38
BRANCH   4  49
HETATM   49  O4  UNL     1      -3.655   7.152  21.885  1.00  0.00    -0.373 OA
ATOM     50  H4  UNL     1      -4.474   7.358  22.320  1.00  0.00     0.211 HD
ENDBRANCH   4  49
BRANCH   7  51
HETATM   51  O7  UNL     1      -2.065   3.997  17.242  1.00  0.00    -0.362 OA
ATOM     52  H7  UNL     1      -2.308   3.749  16.358  1.00  0.00     0.217 HD
ENDBRANCH   7  51
BRANCH   5  53
HETATM   53  O5  UNL     1      -3.687   4.607  21.303  1.00  0.00    -0.359 OA
ATOM     54  H5  UNL     1      -2.950   4.020  21.422  1.00  0.00     0.217 HD
ENDBRANCH   5  53
BRANCH   6  55
HETATM   55  O6  UNL     1      -1.392   4.718  19.644  1.00  0.00    -0.356 OA
ATOM     56  H6  UNL     1      -1.263   3.843  19.993  1.00  0.00     0.218 HD
ENDBRANCH   6  55
TORSDOF 23
ENDMDL