MODEL 1
REMARK VINA RESULT: -7.299043350      0.000      0.000
REMARK  16 active torsions:
REMARK  status: ('A' for Active; 'I' for Inactive)
REMARK    1  A    between atoms: S1_2  and  C2_3
REMARK    2  A    between atoms: C2_3  and  C3_5
REMARK    3  A    between atoms: C4_8  and  N2_9
REMARK    4  A    between atoms: C7_14  and  N4_15
REMARK    5  A    between atoms: N4_15  and  S2_17
REMARK    6  A    between atoms: S2_17  and  N5_18
REMARK    7  A    between atoms: S2_17  and  C8_22
REMARK    8  A    between atoms: C9_23  and  S3_24
REMARK    9  A    between atoms: S3_24  and  N6_25
REMARK   10  A    between atoms: N9_34  and  C10_35
REMARK   11  A    between atoms: C12_37  and  C13_38
REMARK   12  A    between atoms: C13_38  and  N10_39
REMARK   13  A    between atoms: C13_38  and  C14_43
REMARK   14  A    between atoms: C16_49  and  O7_50
REMARK   15  A    between atoms: O7_50  and  C17_51
REMARK   16  A    between atoms: C18_54  and  C19_55
ROOT
HETATM    1  C8  UNL     1      -5.955   2.332  28.564  1.00  0.00     0.192 A
HETATM    2  C9  UNL     1      -7.125   1.859  29.153  1.00  0.00     0.205 A
HETATM    3  N7  UNL     1      -8.059   1.971  28.187  1.00  0.00    -0.271 N
ATOM      4  H7  UNL     1      -9.040   1.709  28.285  1.00  0.00     0.189 HD
HETATM    5  N8  UNL     1      -7.514   2.468  27.098  1.00  0.00    -0.234 N
ATOM      6  H8  UNL     1      -8.014   2.648  26.227  1.00  0.00     0.209 HD
HETATM    7  N9  UNL     1      -6.198   2.708  27.295  1.00  0.00    -0.238 N
ENDROOT
BRANCH   7   8
HETATM    8  C10 UNL     1      -5.302   3.225  26.324  1.00  0.00     0.129 C
HETATM    9  C11 UNL     1      -5.336   4.375  25.740  1.00  0.00     0.002 C
HETATM   10  C12 UNL     1      -6.257   5.474  25.879  1.00  0.00     0.059 C
HETATM   11  C18 UNL     1      -4.396   4.855  24.645  1.00  0.00     0.143 C
HETATM   12  N11 UNL     1      -6.242   6.199  24.783  1.00  0.00    -0.358 N
HETATM   13  C15 UNL     1      -5.343   5.682  23.836  1.00  0.00     0.048 C
ATOM     14  H11 UNL     1      -6.811   7.033  24.639  1.00  0.00     0.165 HD
HETATM   15  C16 UNL     1      -5.357   5.895  22.549  1.00  0.00     0.173 C
BRANCH  10  16
HETATM   16  C13 UNL     1      -7.118   5.870  27.018  1.00  0.00     0.333 C
BRANCH  16  17
HETATM   17  N10 UNL     1      -6.963   7.280  27.346  1.00  0.00    -0.060 N
ATOM     18 3H10 UNL     1      -7.850   7.778  27.272  1.00  0.00     0.275 HD
ATOM     19 2H10 UNL     1      -6.789   7.413  28.343  1.00  0.00     0.275 HD
ATOM     20 1H10 UNL     1      -6.239   7.723  26.781  1.00  0.00     0.275 HD
ENDBRANCH  16  17
BRANCH  16  21
HETATM   21  C14 UNL     1      -8.555   5.702  26.641  1.00  0.00     0.210 C
HETATM   22  O5  UNL     1      -8.857   4.871  25.765  1.00  0.00    -0.646 OA
HETATM   23  O6  UNL     1      -9.522   6.451  27.251  1.00  0.00    -0.646 OA
ENDBRANCH  16  21
ENDBRANCH  10  16
BRANCH  15  24
HETATM   24  O7  UNL     1      -6.336   6.709  21.973  1.00  0.00    -0.274 OA
BRANCH  24  25
HETATM   25  C17 UNL     1      -7.609   6.215  21.812  1.00  0.00     0.377 C
HETATM   26  N12 UNL     1      -8.654   6.526  22.745  1.00  0.00    -0.032 NA
HETATM   27  O8  UNL     1      -7.839   5.475  20.814  1.00  0.00    -0.242 OA
ENDBRANCH  24  25
ENDBRANCH  15  24
BRANCH  11  28
HETATM   28  C19 UNL     1      -3.335   5.727  25.130  1.00  0.00     0.137 C
HETATM   29  C20 UNL     1      -1.986   5.573  24.476  1.00  0.00     0.092 C
HETATM   30  O9  UNL     1      -3.388   6.567  25.995  1.00  0.00    -0.297 OA
ENDBRANCH  11  28
ENDBRANCH   7   8
BRANCH   1  31
HETATM   31  S2  UNL     1      -4.420   2.398  29.375  1.00  0.00     0.155 S
HETATM   32  O2  UNL     1      -3.335   2.749  28.384  1.00  0.00    -0.222 OA
BRANCH  31  33
HETATM   33  N4  UNL     1      -3.949   0.828  29.999  1.00  0.00    -0.306 N
ATOM     34  H4  UNL     1      -4.382  -0.055  29.731  1.00  0.00     0.173 HD
BRANCH  33  35
HETATM   35  C7  UNL     1      -2.879   0.952  30.931  1.00  0.00     0.224 C
HETATM   36  C3  UNL     1      -3.132   0.449  32.310  1.00  0.00     0.208 C
HETATM   37  N1  UNL     1      -1.771   0.220  32.804  1.00  0.00    -0.346 N
HETATM   38  C4  UNL     1      -0.950   0.101  31.820  1.00  0.00     0.175 C
ATOM     39  H1  UNL     1      -1.511   0.164  33.789  1.00  0.00     0.163 HD
HETATM   40  N3  UNL     1      -1.670   0.234  30.579  1.00  0.00    -0.338 N
ATOM     41  H3  UNL     1      -1.391  -0.103  29.658  1.00  0.00     0.164 HD
BRANCH  36  42
HETATM   42  C2  UNL     1      -3.919  -0.789  32.409  1.00  0.00     0.212 C
HETATM   43  O1  UNL     1      -3.983  -1.557  31.486  1.00  0.00    -0.283 OA
BRANCH  42  44
HETATM   44  S1  UNL     1      -4.787  -1.156  33.911  1.00  0.00    -0.095 SA
HETATM   45  C1  UNL     1      -4.890   0.247  35.032  1.00  0.00     0.099 C
ENDBRANCH  42  44
ENDBRANCH  36  42
BRANCH  38  46
HETATM   46  N2  UNL     1       0.448  -0.128  31.980  1.00  0.00    -0.362 N
HETATM   47  C5  UNL     1       1.423   0.238  30.973  1.00  0.00     0.152 C
HETATM   48  C6  UNL     1       0.958  -0.750  33.186  1.00  0.00     0.152 C
ENDBRANCH  38  46
ENDBRANCH  33  35
ENDBRANCH  31  33
BRANCH  31  49
HETATM   49  N5  UNL     1      -4.334   3.395  30.525  1.00  0.00    -0.340 N
ATOM     50  H52 UNL     1      -4.053   3.173  31.481  1.00  0.00     0.167 HD
ATOM     51  H51 UNL     1      -4.606   4.308  30.161  1.00  0.00     0.167 HD
ENDBRANCH  31  49
ENDBRANCH   1  31
BRANCH   2  52
HETATM   52  S3  UNL     1      -7.327   1.256  30.774  1.00  0.00     0.276 S
HETATM   53  O3  UNL     1      -6.974  -0.233  30.706  1.00  0.00    -0.199 OA
HETATM   54  O4  UNL     1      -6.390   1.821  31.767  1.00  0.00    -0.199 OA
BRANCH  52  55
HETATM   55  N6  UNL     1      -8.984   1.281  31.280  1.00  0.00    -0.323 N
ATOM     56  H62 UNL     1      -9.702   1.828  30.806  1.00  0.00     0.169 HD
ATOM     57  H61 UNL     1      -9.146   0.692  32.097  1.00  0.00     0.169 HD
ENDBRANCH  52  55
ENDBRANCH   2  52
TORSDOF 16
ENDMDL