MODEL 3
REMARK VINA RESULT: -7.974191053      0.987      1.340
REMARK  16 active torsions:
REMARK  status: ('A' for Active; 'I' for Inactive)
REMARK    1  A    between atoms: O1_2  and  C2_3
REMARK    2  A    between atoms: C2_3  and  O2_4
REMARK    3  A    between atoms: C2_3  and  C3_6
REMARK    4  A    between atoms: C3_6  and  O3_7
REMARK    5  A    between atoms: C3_6  and  C4_9
REMARK    6  A    between atoms: C5_11  and  O5_12
REMARK       I    between atoms: N1_19  and  C10_21
REMARK    7  A    between atoms: C10_21  and  C11_23
REMARK    8  A    between atoms: C15_29  and  C16_30
REMARK    9  A    between atoms: C15_29  and  C19_39
REMARK   10  A    between atoms: C16_30  and  O8_31
REMARK   11  A    between atoms: O8_31  and  S2_32
REMARK   12  A    between atoms: S2_32  and  C17_35
REMARK   13  A    between atoms: C17_35  and  C18_36
REMARK   14  A    between atoms: C20_42  and  C21_43
REMARK   15  A    between atoms: C21_43  and  O15_44
REMARK   16  A    between atoms: C21_43  and  O16_46
ROOT
HETATM    1  C4  UNL     1      -2.370   6.252  19.448  1.00  0.00     0.105 A
HETATM    2  O4  UNL     1      -2.138   5.996  18.165  1.00  0.00    -0.288 OA
HETATM    3  C5  UNL     1      -3.217   6.070  17.449  1.00  0.00     0.201 A
HETATM    4  C6  UNL     1      -4.275   6.396  18.267  1.00  0.00     0.114 A
HETATM    5  C7  UNL     1      -3.705   6.507  19.540  1.00  0.00     0.070 A
HETATM    6  C8  UNL     1      -4.412   6.840  20.770  1.00  0.00     0.211 C
HETATM    7  O6  UNL     1      -3.674   7.053  21.737  1.00  0.00    -0.285 OA
HETATM    8  C9  UNL     1      -5.866   6.950  20.992  1.00  0.00     0.098 C
HETATM    9  N1  UNL     1      -6.185   7.621  21.995  1.00  0.00    -0.324 N
ATOM     10  H1  UNL     1      -5.383   7.988  22.507  1.00  0.00     0.169 HD
HETATM   11  C10 UNL     1      -7.401   7.970  22.558  1.00  0.00     0.231 C
HETATM   12  O7  UNL     1      -8.281   8.540  21.854  1.00  0.00    -0.273 OA
HETATM   13  C20 UNL     1      -6.890   6.339  20.122  1.00  0.00     0.240 C
HETATM   14  O17 UNL     1      -6.746   6.743  18.770  1.00  0.00    -0.300 OA
HETATM   15  C22 UNL     1      -5.671   6.586  17.911  1.00  0.00     0.300 C
HETATM   16  O18 UNL     1      -5.868   6.602  16.661  1.00  0.00    -0.259 OA
ENDROOT
BRANCH  13  17
HETATM   17  C21 UNL     1      -6.677   4.836  20.128  1.00  0.00     0.289 C
BRANCH  17  18
HETATM   18  O15 UNL     1      -7.584   4.174  19.302  1.00  0.00    -0.368 OA
ATOM     19  H15 UNL     1      -7.501   3.229  19.364  1.00  0.00     0.212 HD
ENDBRANCH  17  18
BRANCH  17  20
HETATM   20  O16 UNL     1      -6.604   4.303  21.408  1.00  0.00    -0.368 OA
ATOM     21  H16 UNL     1      -6.440   3.366  21.412  1.00  0.00     0.212 HD
ENDBRANCH  17  20
ENDBRANCH  13  17
BRANCH  11  22
HETATM   22  C11 UNL     1      -7.668   7.676  23.988  1.00  0.00     0.150 C
HETATM   23  C12 UNL     1      -8.892   8.391  24.548  1.00  0.00     0.293 C
HETATM   24  N2  UNL     1      -9.605   7.166  24.459  1.00  0.00     0.128 N
HETATM   25  C13 UNL     1      -8.447   6.384  24.173  1.00  0.00     0.300 C
HETATM   26  C15 UNL     1     -10.326   6.656  25.541  1.00  0.00     0.278 C
HETATM   27  S1  UNL     1      -7.985   5.668  25.799  1.00  0.00    -0.129 SA
HETATM   28  C14 UNL     1      -9.401   6.410  26.713  1.00  0.00     0.132 C
BRANCH  26  29
HETATM   29  C16 UNL     1     -11.324   7.726  26.010  1.00  0.00     0.244 C
BRANCH  29  30
HETATM   30  O8  UNL     1     -12.304   7.036  26.704  1.00  0.00    -0.272 OA
BRANCH  30  31
HETATM   31  S2  UNL     1     -13.693   7.937  26.733  1.00  0.00     0.275 S
HETATM   32  O9  UNL     1     -14.860   6.978  26.692  1.00  0.00    -0.198 OA
HETATM   33  O10 UNL     1     -13.756   8.837  25.535  1.00  0.00    -0.198 OA
BRANCH  31  34
HETATM   34  C17 UNL     1     -13.802   8.835  28.240  1.00  0.00     0.283 C
BRANCH  34  35
HETATM   35  C18 UNL     1     -14.662  10.043  28.113  1.00  0.00     0.189 C
HETATM   36  O11 UNL     1     -14.118  11.169  27.953  1.00  0.00    -0.647 OA
HETATM   37  O12 UNL     1     -16.031   9.928  28.170  1.00  0.00    -0.647 OA
ENDBRANCH  34  35
ENDBRANCH  31  34
ENDBRANCH  30  31
ENDBRANCH  29  30
ENDBRANCH  26  29
BRANCH  26  38
HETATM   38  C19 UNL     1     -11.079   5.453  25.180  1.00  0.00     0.216 C
HETATM   39  O13 UNL     1     -11.713   5.425  24.100  1.00  0.00    -0.646 OA
HETATM   40  O14 UNL     1     -11.134   4.317  25.983  1.00  0.00    -0.646 OA
ENDBRANCH  26  38
ENDBRANCH  11  22
BRANCH   1  41
HETATM   41  C3  UNL     1      -1.337   6.243  20.506  1.00  0.00     0.231 C
BRANCH  41  42
HETATM   42  C2  UNL     1      -0.328   7.363  20.297  1.00  0.00     0.291 C
BRANCH  42  43
HETATM   43  O1  UNL     1       0.877   6.772  19.950  1.00  0.00    -0.363 OA
HETATM   44  C1  UNL     1       1.907   7.663  20.313  1.00  0.00     0.204 C
ENDBRANCH  42  43
BRANCH  42  45
HETATM   45  O2  UNL     1      -0.770   8.080  19.183  1.00  0.00    -0.368 OA
ATOM     46  H2  UNL     1      -0.314   8.913  19.187  1.00  0.00     0.212 HD
ENDBRANCH  42  45
ENDBRANCH  41  42
BRANCH  41  47
HETATM   47  O3  UNL     1      -0.579   5.077  20.320  1.00  0.00    -0.384 OA
ATOM     48  H3  UNL     1      -1.096   4.403  20.747  1.00  0.00     0.210 HD
ENDBRANCH  41  47
ENDBRANCH   1  41
BRANCH   3  49
HETATM   49  O5  UNL     1      -3.372   5.868  16.073  1.00  0.00    -0.340 OA
ATOM     50  H5  UNL     1      -3.239   5.075  15.569  1.00  0.00     0.220 HD
ENDBRANCH   3  49
TORSDOF 16
ENDMDL