MODEL 4
REMARK VINA RESULT: -8.378137073      1.981      5.805
REMARK  16 active torsions:
REMARK  status: ('A' for Active; 'I' for Inactive)
REMARK    1  A    between atoms: C5_10  and  N3_11
REMARK    2  A    between atoms: N3_11  and  C6_12
REMARK    3  A    between atoms: C7_15  and  N5_16
REMARK    4  A    between atoms: N5_16  and  C8_17
REMARK    5  A    between atoms: N5_16  and  C10_21
REMARK    6  A    between atoms: C8_17  and  C9_18
REMARK    7  A    between atoms: C9_18  and  O1_19
REMARK    8  A    between atoms: C10_21  and  C11_22
REMARK    9  A    between atoms: C11_22  and  O2_23
REMARK   10  A    between atoms: O2_23  and  C12_24
REMARK   11  A    between atoms: C12_24  and  C13_25
REMARK   12  A    between atoms: C13_25  and  O3_26
REMARK   13  A    between atoms: C15_31  and  C16_32
REMARK   14  A    between atoms: C16_32  and  C17_33
REMARK   15  A    between atoms: C19_39  and  O6_40
REMARK   16  A    between atoms: O6_40  and  S1_41
ROOT
HETATM    1  C6  UNL     1      -6.585   3.013  28.041  1.00  0.00     0.300 A
HETATM    2  N4  UNL     1      -7.828   3.520  27.750  1.00  0.00    -0.147 N
ATOM      3  H4  UNL     1      -8.624   3.149  28.268  1.00  0.00     0.188 HD
HETATM    4  C7  UNL     1      -8.067   4.463  26.836  1.00  0.00     0.685 A
HETATM    5  N6  UNL     1      -7.007   4.938  26.168  1.00  0.00    -0.174 N
ATOM      6  H6  UNL     1      -7.160   5.660  25.465  1.00  0.00     0.186 HD
HETATM    7  C14 UNL     1      -5.743   4.506  26.381  1.00  0.00     0.158 A
HETATM    8  C15 UNL     1      -4.523   4.835  25.833  1.00  0.00     0.030 A
HETATM    9  C20 UNL     1      -3.601   4.030  26.485  1.00  0.00     0.123 A
HETATM   10  N8  UNL     1      -4.279   3.269  27.373  1.00  0.00    -0.299 N
ATOM     11  H8  UNL     1      -3.860   2.579  27.997  1.00  0.00     0.186 HD
HETATM   12  N9  UNL     1      -5.557   3.553  27.311  1.00  0.00    -0.195 N
ENDROOT
BRANCH   1  13
HETATM   13  N3  UNL     1      -6.372   2.181  28.852  1.00  0.00    -0.333 NA
BRANCH  13  14
HETATM   14  C5  UNL     1      -6.139   1.247  29.772  1.00  0.00     0.263 A
HETATM   15  N2  UNL     1      -5.255   1.422  30.736  1.00  0.00    -0.307 N
HETATM   16  C4  UNL     1      -5.178   0.297  31.595  1.00  0.00     0.315 A
ATOM     17  H2  UNL     1      -4.694   2.266  30.850  1.00  0.00     0.166 HD
HETATM   18  N1  UNL     1      -5.601   0.727  32.922  1.00  0.00    -0.005 N
HETATM   19  C21 UNL     1      -6.135  -0.656  31.064  1.00  0.00     0.285 A
HETATM   20  C22 UNL     1      -3.778  -0.234  31.737  1.00  0.00     0.118 C
HETATM   21  C2  UNL     1      -4.669   0.047  33.787  1.00  0.00     0.223 C
ATOM     22  H12 UNL     1      -6.584   0.555  33.135  1.00  0.00     0.284 HD
ATOM     23  H11 UNL     1      -5.645   1.737  33.051  1.00  0.00     0.284 HD
HETATM   24  C1  UNL     1      -5.299  -1.146  34.486  1.00  0.00     0.078 C
HETATM   25  C3  UNL     1      -4.340   1.045  34.911  1.00  0.00     0.078 C
HETATM   26  O11 UNL     1      -3.555  -0.300  33.078  1.00  0.00    -0.339 OA
HETATM   27  N10 UNL     1      -6.733  -0.072  29.937  1.00  0.00    -0.283 N
HETATM   28  O10 UNL     1      -6.450  -1.821  31.464  1.00  0.00    -0.268 OA
ATOM     29  H10 UNL     1      -7.450  -0.492  29.345  1.00  0.00     0.173 HD
HETATM   30  C23 UNL     1      -3.522  -1.483  30.959  1.00  0.00     0.051 C
HETATM   31  C24 UNL     1      -2.857   0.847  31.151  1.00  0.00     0.051 C
ENDBRANCH  13  14
ENDBRANCH   1  13
BRANCH   4  32
HETATM   32  N5  UNL     1      -9.404   4.924  26.585  1.00  0.00    -0.213 N
BRANCH  32  33
HETATM   33  C8  UNL     1     -10.246   4.156  25.722  1.00  0.00     0.167 C
BRANCH  33  34
HETATM   34  C9  UNL     1     -11.650   4.689  25.598  1.00  0.00     0.184 C
BRANCH  34  35
HETATM   35  O1  UNL     1     -11.838   5.108  24.280  1.00  0.00    -0.399 OA
ATOM     36  H1  UNL     1     -12.107   4.355  23.767  1.00  0.00     0.209 HD
ENDBRANCH  34  35
ENDBRANCH  33  34
ENDBRANCH  32  33
BRANCH  32  37
HETATM   37  C10 UNL     1      -9.906   6.149  27.175  1.00  0.00     0.167 C
BRANCH  37  38
HETATM   38  C11 UNL     1      -9.430   7.352  26.373  1.00  0.00     0.188 C
BRANCH  38  39
HETATM   39  O2  UNL     1     -10.446   8.027  25.749  1.00  0.00    -0.387 OA
BRANCH  39  40
HETATM   40  C12 UNL     1     -11.645   8.023  26.415  1.00  0.00     0.193 C
BRANCH  40  41
HETATM   41  C13 UNL     1     -12.761   8.210  25.390  1.00  0.00     0.190 C
BRANCH  41  42
HETATM   42  O3  UNL     1     -12.291   7.928  24.098  1.00  0.00    -0.399 OA
ATOM     43  H3  UNL     1     -12.010   8.728  23.667  1.00  0.00     0.209 HD
ENDBRANCH  41  42
ENDBRANCH  40  41
ENDBRANCH  39  40
ENDBRANCH  38  39
ENDBRANCH  37  38
ENDBRANCH  32  37
ENDBRANCH   4  32
BRANCH   8  44
HETATM   44  C16 UNL     1      -4.300   5.726  24.894  1.00  0.00     0.051 C
BRANCH  44  45
HETATM   45  C17 UNL     1      -4.290   5.485  23.481  1.00  0.00     0.098 A
HETATM   46  N7  UNL     1      -3.177   5.403  22.736  1.00  0.00    -0.298 N
HETATM   47  C18 UNL     1      -3.557   5.170  21.483  1.00  0.00     0.372 A
ATOM     48  H7  UNL     1      -2.218   5.503  23.069  1.00  0.00     0.171 HD
HETATM   49  O4  UNL     1      -2.770   5.035  20.519  1.00  0.00    -0.238 OA
HETATM   50  O5  UNL     1      -4.859   5.107  21.440  1.00  0.00    -0.234 OA
HETATM   51  C19 UNL     1      -5.358   5.292  22.631  1.00  0.00     0.236 A
BRANCH  51  52
HETATM   52  O6  UNL     1      -6.680   5.310  23.060  1.00  0.00    -0.186 OA
BRANCH  52  53
HETATM   53  S1  UNL     1      -7.588   6.728  22.791  1.00  0.00     0.258 S
HETATM   54  O7  UNL     1      -7.089   7.835  23.675  1.00  0.00    -0.572 OA
HETATM   55  O8  UNL     1      -7.520   7.075  21.339  1.00  0.00    -0.572 OA
HETATM   56  O9  UNL     1      -9.202   6.374  23.172  1.00  0.00    -0.572 OA
ENDBRANCH  52  53
ENDBRANCH  51  52
ENDBRANCH  44  45
ENDBRANCH   8  44
TORSDOF 16
ENDMDL