MODEL 1
REMARK VINA RESULT: -7.695206797      0.000      0.000
REMARK  1 active torsions:
REMARK  status: ('A' for Active; 'I' for Inactive)
REMARK    1  A    between atoms: C11_13  and  C12_14
ROOT
HETATM    1  C1  UNL     1      13.011 -13.039  21.665  1.00  0.00     0.070 C
HETATM    2  C2  UNL     1      13.312 -14.487  21.437  1.00  0.00     0.029 A
HETATM    3  C3  UNL     1      14.607 -14.875  21.358  1.00  0.00     0.062 A
HETATM    4 BR1  UNL     1      15.867 -13.454  21.556  1.00  0.00    -0.046 Br
HETATM    5  C4  UNL     1      15.011 -16.245  21.121  1.00  0.00     0.078 A
HETATM    6  C5  UNL     1      16.239 -16.708  21.145  1.00  0.00     0.038 C
HETATM    7  C6  UNL     1      17.328 -15.758  21.466  1.00  0.00     0.076 C
HETATM    8  C7  UNL     1      18.682 -16.504  21.678  1.00  0.00     0.079 C
HETATM    9  S1  UNL     1      19.943 -15.290  21.921  1.00  0.00    -0.150 SA
HETATM   10  C8  UNL     1      20.601 -15.106  23.556  1.00  0.00     0.031 C
HETATM   11  C9  UNL     1      20.033 -13.800  24.131  1.00  0.00     0.029 C
HETATM   12  C10 UNL     1      22.122 -14.902  23.486  1.00  0.00     0.029 C
HETATM   13  C11 UNL     1      20.321 -16.182  24.539  1.00  0.00     0.197 C
HETATM   14  N1  UNL     1      20.562 -17.518  24.144  1.00  0.00    -0.393 N
ATOM     15  H1  UNL     1      21.235 -18.084  24.660  1.00  0.00     0.155 HD
HETATM   16  C13 UNL     1      19.889 -18.067  23.056  1.00  0.00     0.195 C
HETATM   17  C14 UNL     1      19.043 -19.261  23.360  1.00  0.00     0.246 C
HETATM   18  O3  UNL     1      19.186 -20.252  24.100  1.00  0.00    -0.271 OA
HETATM   19  N2  UNL     1      18.089 -18.733  22.458  1.00  0.00    -0.316 N
HETATM   20  C15 UNL     1      18.544 -17.413  22.864  1.00  0.00     0.135 C
HETATM   21  C16 UNL     1      17.089 -19.154  21.522  1.00  0.00     0.103 C
HETATM   22  C17 UNL     1      17.751 -20.050  20.486  1.00  0.00     0.063 C
HETATM   23  C18 UNL     1      16.100 -20.036  22.263  1.00  0.00     0.063 C
HETATM   24  N3  UNL     1      16.453 -18.083  20.784  1.00  0.00    -0.360 N
HETATM   25  C19 UNL     1      15.969 -18.430  19.437  1.00  0.00     0.152 C
HETATM   26  N4  UNL     1      13.878 -17.147  20.980  1.00  0.00    -0.306 N
ATOM     27  H4  UNL     1      14.075 -18.134  20.813  1.00  0.00     0.171 HD
HETATM   28  C20 UNL     1      12.528 -16.752  21.060  1.00  0.00     0.325 A
HETATM   29  O4  UNL     1      11.561 -17.541  20.935  1.00  0.00    -0.247 OA
HETATM   30  N5  UNL     1      12.246 -15.397  21.292  1.00  0.00    -0.311 N
ATOM     31  H5  UNL     1      11.281 -15.075  21.356  1.00  0.00     0.170 HD
ENDROOT
BRANCH  13  32
HETATM   32  C12 UNL     1      21.167 -15.933  25.736  1.00  0.00     0.198 C
HETATM   33  O1  UNL     1      20.971 -14.991  26.530  1.00  0.00    -0.646 OA
HETATM   34  O2  UNL     1      22.220 -16.789  25.978  1.00  0.00    -0.646 OA
ENDBRANCH  13  32
TORSDOF 1
ENDMDL