MODEL 5
REMARK VINA RESULT: -6.057282792      2.347      5.150
REMARK  3 active torsions:
REMARK  status: ('A' for Active; 'I' for Inactive)
REMARK    1  A    between atoms: C2_2  and  C3_4
REMARK    2  A    between atoms: C3_4  and  C4_5
REMARK    3  A    between atoms: C19_31  and  O5_32
ROOT
HETATM    1  C3  UNL     1      14.293 -13.555  20.268  1.00  0.00     0.109 C
HETATM    2  C5  UNL     1      15.701 -13.990  20.311  1.00  0.00     0.115 C
HETATM    3  S1  UNL     1      16.280 -14.326  21.956  1.00  0.00    -0.147 SA
HETATM    4  C6  UNL     1      18.082 -14.566  22.065  1.00  0.00     0.082 C
HETATM    5  C7  UNL     1      18.552 -13.179  22.544  1.00  0.00     0.037 C
HETATM    6  C8  UNL     1      18.692 -14.811  20.756  1.00  0.00     0.037 C
HETATM    7  C9  UNL     1      18.293 -15.516  23.130  1.00  0.00     0.236 C
HETATM    8  O2  UNL     1      17.654 -15.184  24.199  1.00  0.00    -0.272 OA
HETATM    9  N1  UNL     1      19.045 -16.695  23.227  1.00  0.00    -0.347 N
ATOM     10  H1  UNL     1      19.336 -16.937  24.174  1.00  0.00     0.163 HD
HETATM   11  C10 UNL     1      19.472 -17.616  22.221  1.00  0.00     0.172 C
HETATM   12  C11 UNL     1      20.667 -18.422  22.796  1.00  0.00     0.042 C
HETATM   13  C12 UNL     1      18.512 -18.553  21.654  1.00  0.00     0.240 C
HETATM   14  O3  UNL     1      19.010 -19.713  21.395  1.00  0.00    -0.271 OA
HETATM   15  N2  UNL     1      17.176 -18.472  21.320  1.00  0.00    -0.346 N
ATOM     16  H2  UNL     1      16.994 -18.617  20.326  1.00  0.00     0.163 HD
HETATM   17  C13 UNL     1      15.966 -18.220  22.108  1.00  0.00     0.172 C
HETATM   18  C14 UNL     1      16.051 -18.726  23.535  1.00  0.00     0.042 C
HETATM   19  C15 UNL     1      14.729 -18.788  21.533  1.00  0.00     0.241 C
HETATM   20  O4  UNL     1      14.857 -20.031  21.225  1.00  0.00    -0.271 OA
HETATM   21  N3  UNL     1      13.505 -18.137  21.306  1.00  0.00    -0.343 N
ATOM     22  H3  UNL     1      12.710 -18.549  21.795  1.00  0.00     0.163 HD
HETATM   23  C16 UNL     1      13.176 -16.979  20.495  1.00  0.00     0.090 C
HETATM   24  C17 UNL     1      11.698 -17.225  20.022  1.00  0.00     0.047 C
HETATM   25  C18 UNL     1      13.932 -17.025  19.198  1.00  0.00     0.047 C
HETATM   26  C19 UNL     1      13.218 -15.699  21.212  1.00  0.00     0.140 C
HETATM   27  N4  UNL     1      13.250 -14.377  20.798  1.00  0.00    -0.355 N
ATOM     28  H4  UNL     1      12.355 -13.896  20.888  1.00  0.00     0.162 HD
ENDROOT
BRANCH   1  29
HETATM   29  C2  UNL     1      14.269 -12.145  20.825  1.00  0.00     0.152 C
HETATM   30  C1  UNL     1      13.219 -11.903  21.873  1.00  0.00     0.093 C
HETATM   31  O1  UNL     1      15.017 -11.308  20.442  1.00  0.00    -0.296 OA
ENDBRANCH   1  29
BRANCH   1  32
HETATM   32  C4  UNL     1      13.978 -13.283  18.758  1.00  0.00     0.125 C
HETATM   33 BR1  UNL     1      15.540 -13.511  17.674  1.00  0.00    -0.093 Br
ENDBRANCH   1  32
BRANCH  26  34
HETATM   34  O5  UNL     1      13.223 -15.868  22.505  1.00  0.00    -0.348 OA
ATOM     35  H5  UNL     1      12.893 -15.104  22.963  1.00  0.00     0.219 HD
ENDBRANCH  26  34
TORSDOF 3
ENDMDL