MODEL 1
REMARK VINA RESULT: -7.643732568      0.000      0.000
REMARK  7 active torsions:
REMARK  status: ('A' for Active; 'I' for Inactive)
REMARK    1  A    between atoms: C2_2  and  C3_4
REMARK    2  A    between atoms: C3_4  and  O1_5
REMARK    3  A    between atoms: C3_4  and  N1_7
REMARK    4  A    between atoms: C5_10  and  C6_11
REMARK    5  A    between atoms: C9_16  and  O3_17
REMARK    6  A    between atoms: C12_23  and  O4_24
REMARK    7  A    between atoms: C20_39  and  C21_40
ROOT
HETATM    1  N1  UNL     1      19.884 -16.178  23.508  1.00  0.00    -0.281 N
HETATM    2  C4  UNL     1      19.264 -15.013  23.008  1.00  0.00     0.249 C
HETATM    3  O2  UNL     1      19.497 -13.982  23.731  1.00  0.00    -0.271 OA
HETATM    4  C5  UNL     1      18.414 -14.757  21.832  1.00  0.00     0.179 C
HETATM    5  N2  UNL     1      17.037 -14.472  22.189  1.00  0.00    -0.359 N
ATOM      6  H2  UNL     1      16.939 -14.030  23.104  1.00  0.00     0.162 HD
HETATM    7  C9  UNL     1      15.841 -14.674  21.550  1.00  0.00     0.135 C
HETATM    8  C10 UNL     1      15.490 -15.622  20.448  1.00  0.00     0.153 C
HETATM    9  C11 UNL     1      14.765 -14.849  19.329  1.00  0.00     0.041 C
HETATM   10  N3  UNL     1      14.574 -16.643  20.874  1.00  0.00    -0.361 N
ATOM     11  H3  UNL     1      13.913 -16.339  21.588  1.00  0.00     0.162 HD
HETATM   12  C12 UNL     1      14.424 -17.982  20.485  1.00  0.00     0.135 C
HETATM   13  C13 UNL     1      15.321 -19.129  20.691  1.00  0.00     0.155 C
HETATM   14  C14 UNL     1      14.437 -20.400  20.510  1.00  0.00     0.041 C
HETATM   15  N4  UNL     1      16.406 -19.267  19.764  1.00  0.00    -0.347 N
ATOM     16  H4  UNL     1      16.270 -18.901  18.821  1.00  0.00     0.163 HD
HETATM   17  C15 UNL     1      17.656 -19.873  20.055  1.00  0.00     0.245 C
HETATM   18  O5  UNL     1      18.135 -20.670  19.210  1.00  0.00    -0.271 OA
HETATM   19  C16 UNL     1      18.429 -19.599  21.332  1.00  0.00     0.106 C
HETATM   20  C17 UNL     1      18.315 -20.786  22.216  1.00  0.00     0.048 C
HETATM   21  C18 UNL     1      19.900 -19.470  20.921  1.00  0.00     0.048 C
HETATM   22  N5  UNL     1      18.026 -18.346  21.863  1.00  0.00    -0.342 N
ATOM     23  H5  UNL     1      17.648 -17.719  21.152  1.00  0.00     0.163 HD
HETATM   24  C19 UNL     1      18.029 -17.780  23.129  1.00  0.00     0.242 C
HETATM   25  O6  UNL     1      16.867 -17.559  23.668  1.00  0.00    -0.271 OA
HETATM   26  C20 UNL     1      19.158 -17.380  23.981  1.00  0.00     0.190 C
ENDROOT
BRANCH   1  27
HETATM   27  C3  UNL     1      21.301 -16.333  23.635  1.00  0.00     0.167 C
BRANCH  27  28
HETATM   28  C2  UNL     1      22.120 -17.339  24.174  1.00  0.00     0.075 C
HETATM   29  C1  UNL     1      22.609 -18.288  23.344  1.00  0.00     0.041 C
HETATM   30 CL1  UNL     1      22.581 -17.520  25.825  1.00  0.00    -0.081 Cl
ENDBRANCH  27  28
BRANCH  27  31
HETATM   31  O1  UNL     1      22.012 -15.333  23.152  1.00  0.00    -0.345 OA
ATOM     32  H1  UNL     1      22.807 -15.193  23.653  1.00  0.00     0.219 HD
ENDBRANCH  27  31
ENDBRANCH   1  27
BRANCH  26  33
HETATM   33  C21 UNL     1      18.691 -17.287  25.395  1.00  0.00     0.010 C
HETATM   34  C22 UNL     1      19.144 -16.088  26.175  1.00  0.00     0.012 C
HETATM   35  C23 UNL     1      19.122 -18.511  26.177  1.00  0.00     0.012 C
ENDBRANCH  26  33
BRANCH   4  36
HETATM   36  C6  UNL     1      18.907 -13.469  21.140  1.00  0.00     0.009 C
HETATM   37  C7  UNL     1      20.218 -13.692  20.413  1.00  0.00     0.012 C
HETATM   38  C8  UNL     1      17.927 -12.915  20.155  1.00  0.00     0.012 C
ENDBRANCH   4  36
BRANCH   7  39
HETATM   39  O3  UNL     1      14.828 -13.948  21.931  1.00  0.00    -0.348 OA
ATOM     40  H3  UNL     1      14.138 -14.383  22.418  1.00  0.00     0.219 HD
ENDBRANCH   7  39
BRANCH  12  41
HETATM   41  O4  UNL     1      13.328 -18.275  19.842  1.00  0.00    -0.348 OA
ATOM     42  H4  UNL     1      12.523 -18.234  20.345  1.00  0.00     0.219 HD
ENDBRANCH  12  41
TORSDOF 7
ENDMDL