MODEL 3
REMARK VINA RESULT: -7.459779988      1.442      1.514
REMARK  2 active torsions:
REMARK  status: ('A' for Active; 'I' for Inactive)
REMARK       I    between atoms: N1_2  and  C2_4
REMARK    1  A    between atoms: C2_4  and  C3_6
REMARK    2  A    between atoms: C5_9  and  N3_10
REMARK       I    between atoms: C6_12  and  N5_14
REMARK       I    between atoms: C7_16  and  N6_17
REMARK       I    between atoms: C7_16  and  N7_23
ROOT
HETATM    1  N3  UNL     1      18.417 -14.286  21.351  1.00  0.00    -0.328 N
ATOM      2  H3  UNL     1      19.072 -13.822  20.721  1.00  0.00     0.168 HD
HETATM    3  C6  UNL     1      17.163 -14.191  21.180  1.00  0.00     0.207 C
HETATM    4  N4  UNL     1      17.552 -13.171  19.782  1.00  0.00    -0.063 NA
HETATM    5  N5  UNL     1      15.922 -14.131  21.053  1.00  0.00    -0.163 N
ATOM      6  H5  UNL     1      15.613 -13.360  21.644  1.00  0.00     0.187 HD
HETATM    7  C7  UNL     1      14.884 -14.601  20.518  1.00  0.00     0.681 C
HETATM    8  N6  UNL     1      13.644 -14.004  20.836  1.00  0.00    -0.214 N
HETATM    9  C8  UNL     1      12.741 -14.747  21.714  1.00  0.00     0.167 C
HETATM   10  C9  UNL     1      12.264 -13.757  22.766  1.00  0.00     0.188 C
HETATM   11  O2  UNL     1      11.488 -12.818  22.096  1.00  0.00    -0.388 OA
HETATM   12  C10 UNL     1      12.341 -11.996  21.362  1.00  0.00     0.188 C
HETATM   13  C11 UNL     1      13.196 -12.713  20.373  1.00  0.00     0.167 C
HETATM   14  N7  UNL     1      14.944 -15.696  19.633  1.00  0.00    -0.205 N
HETATM   15  C12 UNL     1      15.503 -16.990  20.074  1.00  0.00     0.168 C
HETATM   16  C13 UNL     1      14.697 -18.127  19.547  1.00  0.00     0.188 C
HETATM   17  O3  UNL     1      14.484 -18.063  18.195  1.00  0.00    -0.387 OA
HETATM   18  C14 UNL     1      15.131 -16.970  17.650  1.00  0.00     0.198 C
HETATM   19  C15 UNL     1      14.492 -15.703  18.255  1.00  0.00     0.064 C
HETATM   20  C16 UNL     1      12.997 -15.881  18.115  1.00  0.00     0.041 C
HETATM   21  C17 UNL     1      15.010 -14.560  17.432  1.00  0.00     0.041 C
ENDROOT
BRANCH   1  22
HETATM   22  C5  UNL     1      18.891 -15.078  22.477  1.00  0.00     0.060 A
HETATM   23  C4  UNL     1      19.996 -15.867  22.277  1.00  0.00     0.090 A
HETATM   24  C3  UNL     1      20.462 -16.648  23.363  1.00  0.00     0.076 A
HETATM   25  N2  UNL     1      20.646 -15.852  21.011  1.00  0.00    -0.099 NA
HETATM   26  C21 UNL     1      19.789 -16.576  24.547  1.00  0.00     0.034 A
HETATM   27  C19 UNL     1      18.675 -15.768  24.713  1.00  0.00    -0.041 A
HETATM   28 BR1  UNL     1      20.389 -17.598  26.051  1.00  0.00    -0.049 Br
HETATM   29  C18 UNL     1      18.231 -15.019  23.666  1.00  0.00     0.039 A
HETATM   30  C20 UNL     1      17.988 -15.711  26.043  1.00  0.00     0.049 C
BRANCH  24  31
HETATM   31  C2  UNL     1      21.604 -17.474  23.052  1.00  0.00     0.254 C
HETATM   32  N1  UNL     1      21.622 -18.680  22.384  1.00  0.00    -0.361 N
HETATM   33  C1  UNL     1      22.983 -19.303  22.219  1.00  0.00     0.149 C
ATOM     34  H1  UNL     1      20.773 -19.119  22.027  1.00  0.00     0.162 HD
HETATM   35  O1  UNL     1      22.755 -17.045  23.441  1.00  0.00    -0.268 OA
ENDBRANCH  24  31
ENDBRANCH   1  22
TORSDOF 2
ENDMDL