MODEL 4
REMARK VINA RESULT: -6.748196247      3.660      6.473
REMARK  5 active torsions:
REMARK  status: ('A' for Active; 'I' for Inactive)
REMARK    1  A    between atoms: C2_2  and  N1_3
REMARK    2  A    between atoms: C2_2  and  C4_9
REMARK    3  A    between atoms: N1_3  and  C3_5
REMARK    4  A    between atoms: C3_5  and  O1_6
REMARK       I    between atoms: C4_9  and  N2_11
REMARK    5  A    between atoms: C17_30  and  S2_31
ROOT
HETATM    1  C4  UNL     1      14.114 -16.701  20.488  1.00  0.00     0.243 C
HETATM    2  O2  UNL     1      13.064 -16.435  19.820  1.00  0.00    -0.271 OA
HETATM    3  N2  UNL     1      15.088 -15.677  20.571  1.00  0.00    -0.322 N
HETATM    4  C5  UNL     1      16.300 -16.027  21.317  1.00  0.00     0.156 C
HETATM    5  C6  UNL     1      17.243 -14.934  21.653  1.00  0.00     0.086 C
HETATM    6 BR1  UNL     1      17.213 -14.537  23.583  1.00  0.00    -0.076 Br
HETATM    7  C7  UNL     1      18.637 -15.440  21.468  1.00  0.00     0.062 A
HETATM    8  N3  UNL     1      19.135 -16.680  21.766  1.00  0.00    -0.308 N
ATOM      9  H3  UNL     1      18.581 -17.475  22.083  1.00  0.00     0.170 HD
HETATM   10  C8  UNL     1      20.471 -16.689  21.578  1.00  0.00     0.325 A
HETATM   11  O3  UNL     1      21.301 -17.606  21.734  1.00  0.00    -0.247 OA
HETATM   12  N4  UNL     1      20.844 -15.445  21.150  1.00  0.00    -0.307 N
ATOM     13  H4  UNL     1      21.787 -15.132  20.922  1.00  0.00     0.170 HD
HETATM   14  C9  UNL     1      19.711 -14.716  21.091  1.00  0.00     0.060 A
HETATM   15  C10 UNL     1      19.522 -13.365  20.573  1.00  0.00     0.028 C
HETATM   16  C11 UNL     1      18.291 -12.952  20.486  1.00  0.00    -0.017 C
HETATM   17  C12 UNL     1      17.068 -13.687  20.831  1.00  0.00     0.043 C
HETATM   18  C13 UNL     1      16.473 -14.193  19.573  1.00  0.00     0.054 A
HETATM   19  C14 UNL     1      15.420 -13.937  18.687  1.00  0.00     0.003 A
HETATM   20  C15 UNL     1      15.046 -14.947  17.583  1.00  0.00     0.019 C
HETATM   21  C16 UNL     1      15.328 -12.548  18.164  1.00  0.00     0.019 C
HETATM   22  C17 UNL     1      15.015 -14.375  20.011  1.00  0.00     0.170 A
ENDROOT
BRANCH   1  23
HETATM   23  C2  UNL     1      14.154 -18.029  21.071  1.00  0.00     0.172 C
HETATM   24  C1  UNL     1      15.061 -19.038  20.428  1.00  0.00     0.042 C
BRANCH  23  25
HETATM   25  N1  UNL     1      12.846 -18.650  21.185  1.00  0.00    -0.349 N
ATOM     26  H1  UNL     1      12.036 -18.098  20.903  1.00  0.00     0.163 HD
BRANCH  25  27
HETATM   27  C3  UNL     1      12.612 -19.956  21.656  1.00  0.00     0.208 C
HETATM   28  S1  UNL     1      11.982 -21.094  20.717  1.00  0.00    -0.033 SA
BRANCH  27  29
HETATM   29  O1  UNL     1      12.941 -20.243  22.971  1.00  0.00    -0.338 OA
ATOM     30  H1  UNL     1      13.672 -20.829  23.131  1.00  0.00     0.220 HD
ENDBRANCH  27  29
ENDBRANCH  25  27
ENDBRANCH  23  25
ENDBRANCH   1  23
BRANCH  22  31
HETATM   31  S2  UNL     1      13.981 -13.262  20.772  1.00  0.00     0.132 S
HETATM   32  O4  UNL     1      13.680 -13.800  22.182  1.00  0.00    -0.593 OA
HETATM   33  O5  UNL     1      12.590 -13.118  20.206  1.00  0.00    -0.593 OA
HETATM   34  O6  UNL     1      14.498 -11.709  21.046  1.00  0.00    -0.593 OA
ENDBRANCH  22  31
TORSDOF 5
ENDMDL