MODEL 1
REMARK VINA RESULT: -6.920069396      0.000      0.000
REMARK  2 active torsions:
REMARK  status: ('A' for Active; 'I' for Inactive)
REMARK    1  A    between atoms: C7_13  and  C8_14
REMARK    2  A    between atoms: C19_32  and  C20_33
ROOT
HETATM    1  C1  UNL     1      17.799 -16.121  25.862  1.00  0.00     0.042 C
HETATM    2  C2  UNL     1      18.012 -16.491  24.370  1.00  0.00     0.172 C
HETATM    3  N1  UNL     1      18.365 -17.874  24.254  1.00  0.00    -0.346 N
ATOM      4  H1  UNL     1      18.440 -18.371  25.142  1.00  0.00     0.163 HD
HETATM    5  C3  UNL     1      18.623 -18.649  23.134  1.00  0.00     0.240 C
HETATM    6  O1  UNL     1      19.786 -19.201  23.039  1.00  0.00    -0.271 OA
HETATM    7  C4  UNL     1      17.756 -18.970  21.976  1.00  0.00     0.172 C
HETATM    8  C5  UNL     1      18.505 -18.750  20.661  1.00  0.00     0.042 C
HETATM    9  N2  UNL     1      16.496 -18.268  21.955  1.00  0.00    -0.347 N
ATOM     10  H2  UNL     1      16.537 -17.252  21.883  1.00  0.00     0.163 HD
HETATM   11  C6  UNL     1      15.204 -18.854  22.025  1.00  0.00     0.231 C
HETATM   12  O2  UNL     1      14.434 -18.475  22.946  1.00  0.00    -0.273 OA
HETATM   13  C7  UNL     1      14.669 -19.883  21.103  1.00  0.00     0.172 C
HETATM   14  C11 UNL     1      14.049 -19.136  19.981  1.00  0.00     0.164 C
HETATM   15  O3  UNL     1      13.030 -19.572  19.492  1.00  0.00    -0.295 OA
HETATM   16  C12 UNL     1      14.645 -17.888  19.457  1.00  0.00     0.151 C
HETATM   17  C13 UNL     1      14.352 -17.873  17.948  1.00  0.00     0.040 C
HETATM   18  N3  UNL     1      14.078 -16.713  20.078  1.00  0.00    -0.348 N
ATOM     19  H3  UNL     1      13.353 -16.885  20.775  1.00  0.00     0.163 HD
HETATM   20  C14 UNL     1      14.394 -15.382  19.849  1.00  0.00     0.240 C
HETATM   21  O4  UNL     1      13.395 -14.587  19.679  1.00  0.00    -0.271 OA
HETATM   22  C15 UNL     1      15.766 -14.782  19.781  1.00  0.00     0.174 C
HETATM   23  C16 UNL     1      15.743 -13.880  18.527  1.00  0.00     0.042 C
HETATM   24  N4  UNL     1      16.042 -13.968  20.954  1.00  0.00    -0.342 N
HETATM   25  C17 UNL     1      14.849 -13.447  21.643  1.00  0.00     0.153 C
HETATM   26  C18 UNL     1      17.313 -13.649  21.456  1.00  0.00     0.243 C
HETATM   27  O5  UNL     1      17.496 -12.422  21.788  1.00  0.00    -0.271 OA
HETATM   28  C19 UNL     1      18.481 -14.540  21.658  1.00  0.00     0.180 C
HETATM   29  N5  UNL     1      18.955 -14.485  23.037  1.00  0.00    -0.346 N
ATOM     30  H5  UNL     1      19.232 -13.566  23.382  1.00  0.00     0.163 HD
HETATM   31  C23 UNL     1      19.074 -15.544  23.938  1.00  0.00     0.240 C
HETATM   32  O6  UNL     1      20.221 -15.744  24.471  1.00  0.00    -0.271 OA
ENDROOT
BRANCH  13  33
HETATM   33  C8  UNL     1      13.746 -20.850  21.764  1.00  0.00     0.049 C
HETATM   34  C9  UNL     1      13.680 -22.090  20.877  1.00  0.00     0.033 C
HETATM   35  C10 UNL     1      14.124 -21.277  23.131  1.00  0.00     0.033 C
HETATM   36 CL1  UNL     1      12.103 -20.168  21.806  1.00  0.00    -0.119 Cl
ENDBRANCH  13  33
BRANCH  28  37
HETATM   37  C20 UNL     1      19.664 -14.209  20.771  1.00  0.00     0.009 C
HETATM   38  C21 UNL     1      20.956 -14.010  21.503  1.00  0.00     0.012 C
HETATM   39  C22 UNL     1      19.387 -13.119  19.768  1.00  0.00     0.012 C
ENDBRANCH  28  37
TORSDOF 2
ENDMDL