MODEL 5
REMARK VINA RESULT: -7.385690853      3.948      7.555
REMARK  3 active torsions:
REMARK  status: ('A' for Active; 'I' for Inactive)
REMARK       I    between atoms: N2_14  and  C10_15
REMARK       I    between atoms: C10_15  and  N3_17
REMARK    1  A    between atoms: N3_17  and  C11_19
REMARK    2  A    between atoms: C11_19  and  C13_21
REMARK    3  A    between atoms: C19_33  and  O5_34
ROOT
HETATM    1  C1  UNL     1      11.836 -23.267  21.407  1.00  0.00     0.042 C
HETATM    2  C2  UNL     1      12.959 -22.205  21.416  1.00  0.00     0.172 C
HETATM    3  N1  UNL     1      14.130 -22.864  22.013  1.00  0.00    -0.347 N
ATOM      4  H1  UNL     1      14.546 -23.630  21.482  1.00  0.00     0.163 HD
HETATM    5  C3  UNL     1      14.729 -22.548  23.229  1.00  0.00     0.227 C
HETATM    6  O1  UNL     1      14.886 -23.514  24.060  1.00  0.00    -0.273 OA
HETATM    7  C4  UNL     1      15.208 -21.208  23.671  1.00  0.00     0.045 C
HETATM    8  C5  UNL     1      13.991 -20.407  24.070  1.00  0.00     0.026 C
HETATM    9  C6  UNL     1      16.081 -21.322  24.889  1.00  0.00     0.026 C
HETATM   10  C7  UNL     1      15.911 -20.473  22.564  1.00  0.00     0.093 C
HETATM   11  C8  UNL     1      16.671 -21.487  21.673  1.00  0.00     0.021 C
HETATM   12  C9  UNL     1      16.923 -19.494  22.998  1.00  0.00     0.252 C
HETATM   13  O2  UNL     1      17.938 -20.104  23.519  1.00  0.00    -0.271 OA
HETATM   14  N2  UNL     1      16.877 -18.081  22.898  1.00  0.00    -0.169 N
HETATM   15  C10 UNL     1      18.145 -17.418  23.129  1.00  0.00     0.344 C
HETATM   16  O3  UNL     1      19.169 -18.135  23.350  1.00  0.00    -0.245 OA
HETATM   17  N3  UNL     1      18.279 -15.993  23.117  1.00  0.00    -0.331 N
ATOM     18  H3  UNL     1      17.466 -15.402  22.941  1.00  0.00     0.164 HD
HETATM   19  N4  UNL     1      15.792 -17.257  22.643  1.00  0.00    -0.251 N
ATOM     20  H4  UNL     1      15.685 -16.519  23.338  1.00  0.00     0.191 HD
HETATM   21  C15 UNL     1      14.817 -17.210  21.651  1.00  0.00     0.282 C
HETATM   22  O4  UNL     1      13.608 -17.111  22.096  1.00  0.00    -0.265 OA
HETATM   23  C16 UNL     1      14.892 -17.244  20.186  1.00  0.00     0.079 C
HETATM   24  C17 UNL     1      15.949 -18.088  19.575  1.00  0.00     0.074 C
HETATM   25  N5  UNL     1      13.591 -17.283  19.549  1.00  0.00    -0.333 N
HETATM   26  C18 UNL     1      12.900 -15.952  19.568  1.00  0.00     0.158 C
HETATM   27  C19 UNL     1      12.890 -18.299  18.908  1.00  0.00     0.146 C
HETATM   28  C20 UNL     1      12.318 -19.596  19.322  1.00  0.00     0.090 C
HETATM   29  C21 UNL     1      11.423 -19.541  20.537  1.00  0.00     0.047 C
HETATM   30  C22 UNL     1      11.282 -20.055  18.234  1.00  0.00     0.047 C
HETATM   31  N6  UNL     1      13.276 -20.676  19.339  1.00  0.00    -0.343 N
ATOM     32  H6  UNL     1      14.114 -20.520  18.780  1.00  0.00     0.163 HD
HETATM   33  C23 UNL     1      13.229 -21.892  19.999  1.00  0.00     0.241 C
HETATM   34  O6  UNL     1      13.452 -22.961  19.312  1.00  0.00    -0.271 OA
ENDROOT
BRANCH  17  35
HETATM   35  C11 UNL     1      19.555 -15.403  23.353  1.00  0.00     0.154 C
HETATM   36  C12 UNL     1      19.863 -14.405  22.260  1.00  0.00     0.038 C
BRANCH  35  37
HETATM   37  C13 UNL     1      19.638 -14.711  24.696  1.00  0.00     0.259 C
HETATM   38  C14 UNL     1      20.491 -15.574  25.605  1.00  0.00     0.092 C
HETATM   39  F1  UNL     1      18.365 -14.621  25.229  1.00  0.00    -0.204 F
HETATM   40  F2  UNL     1      20.218 -13.471  24.610  1.00  0.00    -0.204 F
ENDBRANCH  35  37
ENDBRANCH  17  35
BRANCH  27  41
HETATM   41  O5  UNL     1      12.672 -18.070  17.629  1.00  0.00    -0.347 OA
ATOM     42  H5  UNL     1      12.901 -18.799  17.064  1.00  0.00     0.219 HD
ENDBRANCH  27  41
TORSDOF 3
ENDMDL