MODEL 5
REMARK VINA RESULT: -6.196748995      4.882      8.419
REMARK  3 active torsions:
REMARK  status: ('A' for Active; 'I' for Inactive)
REMARK    1  A    between atoms: C3_5  and  O1_6
REMARK    2  A    between atoms: C4_8  and  C5_9
REMARK    3  A    between atoms: C16_28  and  C17_29
ROOT
HETATM    1  C1  UNL     1      24.294 -20.552  25.632  1.00  0.00     0.042 C
HETATM    2  C2  UNL     1      24.108 -19.233  24.854  1.00  0.00     0.171 C
HETATM    3  N1  UNL     1      25.295 -18.880  24.109  1.00  0.00    -0.360 N
ATOM      4  H1  UNL     1      26.073 -18.597  24.704  1.00  0.00     0.162 HD
HETATM    5  C3  UNL     1      25.596 -18.846  22.771  1.00  0.00     0.135 C
HETATM    6  C4  UNL     1      25.804 -19.901  21.750  1.00  0.00     0.162 C
HETATM    7  N2  UNL     1      24.752 -19.950  20.760  1.00  0.00    -0.347 N
ATOM      8  H2  UNL     1      24.777 -19.193  20.077  1.00  0.00     0.163 HD
HETATM    9  C8  UNL     1      23.712 -20.855  20.582  1.00  0.00     0.240 C
HETATM   10  O2  UNL     1      23.672 -21.509  19.470  1.00  0.00    -0.271 OA
HETATM   11  C9  UNL     1      22.595 -21.204  21.492  1.00  0.00     0.174 C
HETATM   12  C10 UNL     1      22.718 -22.606  22.073  1.00  0.00     0.042 C
HETATM   13  N3  UNL     1      21.333 -21.266  20.728  1.00  0.00    -0.342 N
HETATM   14  C11 UNL     1      21.137 -22.444  19.911  1.00  0.00     0.153 C
HETATM   15  C12 UNL     1      20.333 -20.298  20.724  1.00  0.00     0.242 C
HETATM   16  O3  UNL     1      19.693 -20.083  19.634  1.00  0.00    -0.271 OA
HETATM   17  C13 UNL     1      19.921 -19.466  21.895  1.00  0.00     0.172 C
HETATM   18  C14 UNL     1      19.915 -20.291  23.156  1.00  0.00     0.042 C
HETATM   19  N4  UNL     1      20.809 -18.328  21.929  1.00  0.00    -0.347 N
ATOM     20  H4  UNL     1      21.729 -18.444  21.505  1.00  0.00     0.163 HD
HETATM   21  C15 UNL     1      20.514 -17.059  22.505  1.00  0.00     0.231 C
HETATM   22  O4  UNL     1      20.832 -16.029  21.811  1.00  0.00    -0.273 OA
HETATM   23  C16 UNL     1      19.875 -16.943  23.830  1.00  0.00     0.172 C
HETATM   24  C20 UNL     1      20.764 -17.143  24.983  1.00  0.00     0.164 C
HETATM   25  O5  UNL     1      20.344 -17.906  25.876  1.00  0.00    -0.295 OA
HETATM   26  C21 UNL     1      22.081 -16.583  25.259  1.00  0.00     0.151 C
HETATM   27  C22 UNL     1      22.971 -16.235  24.135  1.00  0.00     0.040 C
HETATM   28  N5  UNL     1      22.790 -17.444  26.185  1.00  0.00    -0.348 N
ATOM     29  H5  UNL     1      22.414 -17.465  27.132  1.00  0.00     0.163 HD
HETATM   30  C23 UNL     1      23.900 -18.239  25.976  1.00  0.00     0.240 C
HETATM   31  O6  UNL     1      24.878 -18.173  26.780  1.00  0.00    -0.271 OA
ENDROOT
BRANCH  23  32
HETATM   32  C17 UNL     1      18.985 -15.748  23.987  1.00  0.00     0.049 C
HETATM   33  C18 UNL     1      19.629 -14.421  24.027  1.00  0.00     0.033 C
HETATM   34  C19 UNL     1      17.911 -15.716  22.897  1.00  0.00     0.033 C
HETATM   35 CL1  UNL     1      18.087 -15.973  25.526  1.00  0.00    -0.119 Cl
ENDBRANCH  23  32
BRANCH   5  36
HETATM   36  O1  UNL     1      25.743 -17.655  22.246  1.00  0.00    -0.348 OA
ATOM     37  H1  UNL     1      24.996 -17.073  22.321  1.00  0.00     0.219 HD
ENDBRANCH   5  36
BRANCH   6  38
HETATM   38  C5  UNL     1      26.232 -21.236  22.293  1.00  0.00     0.008 C
HETATM   39  C6  UNL     1      26.762 -22.064  21.123  1.00  0.00     0.012 C
HETATM   40  C7  UNL     1      27.415 -20.985  23.209  1.00  0.00     0.012 C
ENDBRANCH   6  38
TORSDOF 3
ENDMDL