MODEL 5
REMARK VINA RESULT: -7.019989975      4.068      7.064
REMARK  5 active torsions:
REMARK  status: ('A' for Active; 'I' for Inactive)
REMARK    1  A    between atoms: C2_2  and  N1_4
REMARK    2  A    between atoms: N1_4  and  C4_6
REMARK    3  A    between atoms: C5_7  and  O1_8
REMARK    4  A    between atoms: C8_15  and  C9_16
REMARK    5  A    between atoms: C14_23  and  C15_24
ROOT
HETATM    1  C4  UNL     1      22.202 -16.305  24.370  1.00  0.00     0.219 C
HETATM    2  C5  UNL     1      22.114 -17.785  24.380  1.00  0.00     0.193 C
HETATM    3  C6  UNL     1      20.951 -17.725  23.442  1.00  0.00     0.214 C
HETATM    4  C7  UNL     1      21.142 -18.397  22.134  1.00  0.00     0.247 C
HETATM    5  O2  UNL     1      22.336 -18.236  21.658  1.00  0.00    -0.271 OA
HETATM    6  N2  UNL     1      20.262 -19.144  21.369  1.00  0.00    -0.324 N
ATOM      7  H2  UNL     1      20.016 -18.668  20.501  1.00  0.00     0.169 HD
HETATM    8  C8  UNL     1      19.620 -20.393  21.480  1.00  0.00     0.084 C
HETATM    9  C12 UNL     1      18.243 -20.377  22.035  1.00  0.00     0.267 C
HETATM   10  O3  UNL     1      18.085 -21.131  23.072  1.00  0.00    -0.266 OA
HETATM   11  N3  UNL     1      17.122 -19.655  21.571  1.00  0.00    -0.332 N
HETATM   12  C13 UNL     1      15.765 -20.165  21.283  1.00  0.00     0.134 C
HETATM   13  C14 UNL     1      15.235 -19.171  20.285  1.00  0.00     0.032 C
HETATM   14  C19 UNL     1      15.674 -17.895  20.895  1.00  0.00     0.120 C
HETATM   15 CL1  UNL     1      15.625 -16.617  19.672  1.00  0.00    -0.122 Cl
HETATM   16  C20 UNL     1      17.107 -18.217  21.311  1.00  0.00     0.198 C
HETATM   17  C21 UNL     1      17.303 -17.449  22.575  1.00  0.00     0.242 C
HETATM   18  O4  UNL     1      16.498 -17.775  23.516  1.00  0.00    -0.271 OA
HETATM   19  N4  UNL     1      18.236 -16.453  22.820  1.00  0.00    -0.346 N
ATOM     20  H4  UNL     1      18.294 -16.122  23.783  1.00  0.00     0.163 HD
HETATM   21  C22 UNL     1      19.131 -15.830  21.887  1.00  0.00     0.172 C
HETATM   22  C23 UNL     1      18.442 -14.501  21.505  1.00  0.00     0.042 C
HETATM   23  C24 UNL     1      20.448 -15.458  22.445  1.00  0.00     0.244 C
HETATM   24  O5  UNL     1      20.981 -14.330  22.108  1.00  0.00    -0.271 OA
HETATM   25  N5  UNL     1      21.154 -16.294  23.336  1.00  0.00    -0.310 N
ENDROOT
BRANCH   1  26
HETATM   26  N1  UNL     1      21.941 -15.562  25.553  1.00  0.00    -0.371 N
ATOM     27  H1  UNL     1      22.655 -15.603  26.282  1.00  0.00     0.161 HD
BRANCH  26  28
HETATM   28  C2  UNL     1      20.798 -14.770  25.834  1.00  0.00    -0.007 C
HETATM   29  C1  UNL     1      20.814 -13.460  25.777  1.00  0.00     0.037 C
HETATM   30  C3  UNL     1      19.540 -15.449  26.206  1.00  0.00     0.067 C
ENDBRANCH  26  28
ENDBRANCH   1  26
BRANCH   2  31
HETATM   31  O1  UNL     1      23.214 -18.420  23.792  1.00  0.00    -0.389 OA
ATOM     32  H1  UNL     1      23.650 -17.897  23.130  1.00  0.00     0.210 HD
ENDBRANCH   2  31
BRANCH   8  33
HETATM   33  C9  UNL     1      20.418 -21.534  22.051  1.00  0.00     0.033 C
HETATM   34  C10 UNL     1      21.543 -22.037  21.201  1.00  0.00     0.016 C
HETATM   35  C11 UNL     1      20.968 -21.223  23.423  1.00  0.00     0.016 C
ENDBRANCH   8  33
BRANCH  13  36
HETATM   36  C15 UNL     1      13.761 -19.343  20.088  1.00  0.00    -0.045 C
HETATM   37  C16 UNL     1      12.903 -18.467  20.942  1.00  0.00     0.015 C
HETATM   38  C17 UNL     1      13.394 -19.133  18.625  1.00  0.00     0.015 C
HETATM   39  C18 UNL     1      13.414 -20.791  20.390  1.00  0.00     0.015 C
ENDBRANCH  13  36
TORSDOF 5
ENDMDL