MODEL 5
REMARK VINA RESULT: -7.043423328      5.453      8.988
REMARK  4 active torsions:
REMARK  status: ('A' for Active; 'I' for Inactive)
REMARK    1  A    between atoms: C3_5  and  C4_6
REMARK       I    between atoms: C4_6  and  N2_8
REMARK       I    between atoms: N3_11  and  C7_12
REMARK       I    between atoms: C7_12  and  N4_14
REMARK    2  A    between atoms: N4_14  and  C8_16
REMARK    3  A    between atoms: C16_24  and  O4_25
REMARK    4  A    between atoms: C19_29  and  N5_30
REMARK       I    between atoms: N5_30  and  C20_32
ROOT
HETATM    1  C4  UNL     1      12.708 -18.334  18.758  1.00  0.00     0.233 C
HETATM    2  O2  UNL     1      13.484 -18.567  17.810  1.00  0.00    -0.272 OA
HETATM    3  N2  UNL     1      12.811 -17.102  19.453  1.00  0.00    -0.346 N
HETATM    4  C5  UNL     1      13.792 -16.069  19.117  1.00  0.00     0.154 C
HETATM    5  C6  UNL     1      14.107 -15.496  20.504  1.00  0.00     0.143 C
HETATM    6  N3  UNL     1      14.457 -14.108  20.461  1.00  0.00    -0.325 N
HETATM    7  C7  UNL     1      15.768 -13.581  20.630  1.00  0.00     0.319 C
HETATM    8  O3  UNL     1      15.909 -12.310  20.563  1.00  0.00    -0.247 OA
HETATM    9  N4  UNL     1      16.896 -14.404  20.866  1.00  0.00    -0.338 N
ATOM     10  H4  UNL     1      16.793 -15.417  20.921  1.00  0.00     0.164 HD
HETATM   11  C14 UNL     1      13.240 -13.373  20.215  1.00  0.00     0.131 C
HETATM   12  C15 UNL     1      12.160 -14.184  20.875  1.00  0.00     0.061 C
HETATM   13  C16 UNL     1      12.792 -15.542  21.196  1.00  0.00     0.097 C
HETATM   14  C17 UNL     1      12.024 -16.640  20.570  1.00  0.00     0.165 C
ENDROOT
BRANCH   1  15
HETATM   15  C3  UNL     1      11.695 -19.344  19.144  1.00  0.00     0.172 C
HETATM   16  C2  UNL     1      12.274 -20.199  20.171  1.00  0.00     0.233 C
HETATM   17  N1  UNL     1      12.602 -21.535  19.889  1.00  0.00    -0.340 N
HETATM   18  O1  UNL     1      12.476 -19.711  21.318  1.00  0.00    -0.272 OA
HETATM   19  C1  UNL     1      13.753 -22.165  20.518  1.00  0.00     0.154 C
HETATM   20  C21 UNL     1      11.796 -22.270  18.983  1.00  0.00     0.181 C
HETATM   21  C19 UNL     1      10.856 -21.507  18.134  1.00  0.00     0.120 C
HETATM   22 BR1  UNL     1      13.008 -23.337  17.875  1.00  0.00    -0.066 Br
HETATM   23  C18 UNL     1      11.132 -20.059  17.963  1.00  0.00     0.051 C
BRANCH  21  24
HETATM   24  N5  UNL     1       9.507 -21.721  18.669  1.00  0.00    -0.338 N
HETATM   25  C20 UNL     1       8.684 -22.744  18.161  1.00  0.00     0.329 C
HETATM   26  N6  UNL     1       7.387 -22.956  18.670  1.00  0.00    -0.040 NA
HETATM   27  O5  UNL     1       9.112 -23.476  17.244  1.00  0.00    -0.251 OA
ATOM     28  H5  UNL     1       9.162 -21.121  19.418  1.00  0.00     0.164 HD
ENDBRANCH  21  24
ENDBRANCH   1  15
BRANCH  13  29
HETATM   29  O4  UNL     1      12.913 -15.673  22.583  1.00  0.00    -0.386 OA
ATOM     30  H4  UNL     1      13.571 -16.309  22.835  1.00  0.00     0.210 HD
ENDBRANCH  13  29
BRANCH   9  31
HETATM   31  C8  UNL     1      18.200 -13.789  21.027  1.00  0.00     0.086 C
HETATM   32  C9  UNL     1      19.210 -14.840  21.458  1.00  0.00     0.025 C
HETATM   33  C10 UNL     1      20.566 -14.264  21.692  1.00  0.00     0.002 C
HETATM   34  C11 UNL     1      20.755 -12.985  20.926  1.00  0.00     0.000 C
HETATM   35  C12 UNL     1      20.126 -13.155  19.564  1.00  0.00     0.002 C
HETATM   36  C13 UNL     1      18.621 -13.099  19.758  1.00  0.00     0.025 C
ENDBRANCH   9  31
TORSDOF 4
ENDMDL