MODEL 4
REMARK VINA RESULT: -8.654586508      1.282      2.832
REMARK  16 active torsions:
REMARK  status: ('A' for Active; 'I' for Inactive)
REMARK    1  A    between atoms: C2_2  and  O2_4
REMARK    2  A    between atoms: O2_4  and  C3_5
REMARK    3  A    between atoms: C3_5  and  O3_6
REMARK    4  A    between atoms: C4_8  and  O4_9
REMARK    5  A    between atoms: C5_11  and  C6_12
REMARK    6  A    between atoms: C9_17  and  O7_18
REMARK    7  A    between atoms: C10_20  and  O8_21
REMARK    8  A    between atoms: O8_21  and  C11_22
REMARK    9  A    between atoms: C13_24  and  C14_25
REMARK   10  A    between atoms: C14_25  and  C15_26
REMARK   11  A    between atoms: C16_29  and  O11_30
REMARK   12  A    between atoms: O11_30  and  S1_31
REMARK   13  A    between atoms: C17_35  and  O15_36
REMARK   14  A    between atoms: O15_36  and  S2_37
REMARK   15  A    between atoms: C18_41  and  O19_42
REMARK   16  A    between atoms: O19_42  and  S3_43
ROOT
HETATM    1  C11 UNL     1      51.149  88.735  37.282  1.00  0.00     0.108 A
HETATM    2  C12 UNL     1      51.976  89.313  36.349  1.00  0.00     0.050 A
HETATM    3  C13 UNL     1      51.623  90.542  35.818  1.00  0.00    -0.008 A
HETATM    4  C16 UNL     1      50.471  91.182  36.208  1.00  0.00     0.136 A
HETATM    5  C17 UNL     1      49.645  90.597  37.144  1.00  0.00     0.165 A
HETATM    6  C18 UNL     1      49.973  89.388  37.680  1.00  0.00     0.163 A
ENDROOT
BRANCH   1   7
HETATM    7  O8  UNL     1      51.389  87.533  37.873  1.00  0.00    -0.334 OA
BRANCH   7   8
HETATM    8  C10 UNL     1      51.866  87.248  39.160  1.00  0.00     0.235 C
HETATM    9  C3  UNL     1      52.519  85.872  39.172  1.00  0.00     0.251 C
HETATM   10  C4  UNL     1      53.883  85.894  38.629  1.00  0.00     0.126 C
HETATM   11  C5  UNL     1      54.719  86.923  38.858  1.00  0.00     0.092 C
HETATM   12  C8  UNL     1      54.202  88.014  39.672  1.00  0.00     0.197 C
HETATM   13  O6  UNL     1      54.994  88.633  40.433  1.00  0.00    -0.289 OA
HETATM   14  C9  UNL     1      52.765  88.355  39.576  1.00  0.00     0.228 C
BRANCH   9  15
HETATM   15  O2  UNL     1      52.384  85.403  40.478  1.00  0.00    -0.274 OA
BRANCH  15  16
HETATM   16  C2  UNL     1      52.713  84.184  40.983  1.00  0.00     0.257 C
HETATM   17  C1  UNL     1      54.019  83.971  41.652  1.00  0.00     0.126 C
HETATM   18  O1  UNL     1      51.864  83.263  40.852  1.00  0.00    -0.266 OA
ENDBRANCH  15  16
ENDBRANCH   9  15
BRANCH   9  19
HETATM   19  O3  UNL     1      51.741  85.060  38.344  1.00  0.00    -0.358 OA
ATOM     20  H3  UNL     1      52.305  84.385  37.985  1.00  0.00     0.213 HD
ENDBRANCH   9  19
BRANCH  10  21
HETATM   21  O4  UNL     1      54.401  84.869  37.850  1.00  0.00    -0.359 OA
ATOM     22  H4  UNL     1      54.880  85.024  37.044  1.00  0.00     0.217 HD
ENDBRANCH  10  21
BRANCH  11  23
HETATM   23  C6  UNL     1      56.077  86.960  38.326  1.00  0.00     0.162 C
HETATM   24  C7  UNL     1      56.368  87.695  37.091  1.00  0.00     0.097 C
HETATM   25  O5  UNL     1      57.028  86.365  38.907  1.00  0.00    -0.293 OA
ENDBRANCH  11  23
BRANCH  14  26
HETATM   26  O7  UNL     1      52.416  88.805  40.874  1.00  0.00    -0.385 OA
ATOM     27  H7  UNL     1      51.561  88.424  41.039  1.00  0.00     0.210 HD
ENDBRANCH  14  26
ENDBRANCH   7   8
ENDBRANCH   1   7
BRANCH   6  28
HETATM   28  O19 UNL     1      49.152  88.786  38.622  1.00  0.00    -0.208 OA
BRANCH  28  29
HETATM   29  S3  UNL     1      49.054  89.335  40.228  1.00  0.00     0.257 S
HETATM   30  O20 UNL     1      49.503  88.241  41.130  1.00  0.00    -0.572 OA
HETATM   31  O21 UNL     1      49.994  90.509  40.433  1.00  0.00    -0.572 OA
HETATM   32  O22 UNL     1      47.510  89.821  40.632  1.00  0.00    -0.572 OA
ENDBRANCH  28  29
ENDBRANCH   6  28
BRANCH   3  33
HETATM   33  C14 UNL     1      52.541  91.143  34.814  1.00  0.00     0.154 C
BRANCH  33  34
HETATM   34  C15 UNL     1      53.495  90.158  34.289  1.00  0.00     0.177 C
HETATM   35  O9  UNL     1      53.276  89.598  33.196  1.00  0.00    -0.648 OA
HETATM   36  O10 UNL     1      54.633  89.844  34.991  1.00  0.00    -0.648 OA
ENDBRANCH  33  34
ENDBRANCH   3  33
BRANCH   5  37
HETATM   37  O15 UNL     1      48.473  91.236  37.548  1.00  0.00    -0.208 OA
BRANCH  37  38
HETATM   38  S2  UNL     1      46.979  90.909  36.794  1.00  0.00     0.257 S
HETATM   39  O16 UNL     1      46.151  92.185  36.875  1.00  0.00    -0.572 OA
HETATM   40  O17 UNL     1      47.132  90.551  35.357  1.00  0.00    -0.572 OA
HETATM   41  O18 UNL     1      46.213  89.685  37.653  1.00  0.00    -0.572 OA
ENDBRANCH  37  38
ENDBRANCH   5  37
BRANCH   4  42
HETATM   42  O11 UNL     1      50.105  92.413  35.685  1.00  0.00    -0.210 OA
BRANCH  42  43
HETATM   43  S1  UNL     1      50.507  93.880  36.408  1.00  0.00     0.257 S
HETATM   44  O12 UNL     1      51.467  93.679  37.556  1.00  0.00    -0.572 OA
HETATM   45  O13 UNL     1      49.268  94.486  36.984  1.00  0.00    -0.572 OA
HETATM   46  O14 UNL     1      51.236  94.914  35.325  1.00  0.00    -0.572 OA
ENDBRANCH  42  43
ENDBRANCH   4  42
TORSDOF 16
ENDMDL