MODEL 4
REMARK VINA RESULT: -9.702309886      1.283      1.516
REMARK  16 active torsions:
REMARK  status: ('A' for Active; 'I' for Inactive)
REMARK    1  A    between atoms: C3_3  and  C4_4
REMARK    2  A    between atoms: C8_9  and  C9_10
REMARK    3  A    between atoms: C9_10  and  O2_11
REMARK    4  A    between atoms: C10_18  and  C11_19
REMARK    5  A    between atoms: C11_19  and  N3_20
REMARK    6  A    between atoms: C11_19  and  C20_48
REMARK    7  A    between atoms: C12_22  and  C13_23
REMARK    8  A    between atoms: C12_22  and  C14_26
REMARK    9  A    between atoms: C14_26  and  O6_27
REMARK   10  A    between atoms: C14_26  and  N4_29
REMARK   11  A    between atoms: C17_37  and  N7_38
REMARK       I    between atoms: N7_38  and  C18_40
REMARK   12  A    between atoms: C21_51  and  N11_52
REMARK   13  A    between atoms: N11_52  and  C22_53
REMARK   14  A    between atoms: C22_53  and  C23_54
REMARK   15  A    between atoms: C22_53  and  C24_57
REMARK   16  A    between atoms: C24_57  and  O12_59
ROOT
HETATM    1  C11 UNL     1      48.165  90.899  36.968  1.00  0.00     0.239 C
ENDROOT
BRANCH   1   2
HETATM    2  C10 UNL     1      49.523  90.823  36.322  1.00  0.00     0.100 A
HETATM    3  N2  UNL     1      50.252  89.734  36.345  1.00  0.00    -0.298 N
HETATM    4  N1  UNL     1      51.471  89.662  35.792  1.00  0.00    -0.297 N
ATOM      5  H2  UNL     1      49.875  88.905  36.805  1.00  0.00     0.186 HD
HETATM    6  C3  UNL     1      52.009  90.723  35.178  1.00  0.00     0.091 A
ATOM      7  H1  UNL     1      51.995  88.787  35.839  1.00  0.00     0.187 HD
HETATM    8  C2  UNL     1      51.292  91.916  35.112  1.00  0.00     0.012 A
HETATM    9  C1  UNL     1      51.823  93.093  34.384  1.00  0.00     0.054 C
HETATM   10  C21 UNL     1      50.010  91.981  35.700  1.00  0.00     0.142 A
BRANCH   6  11
HETATM   11  C4  UNL     1      53.371  90.641  34.633  1.00  0.00     0.108 A
HETATM   12  C5  UNL     1      53.541  90.663  33.259  1.00  0.00     0.094 A
HETATM   13  C6  UNL     1      54.829  90.586  32.704  1.00  0.00     0.177 A
HETATM   14  O1  UNL     1      55.004  90.603  31.447  1.00  0.00    -0.288 OA
HETATM   15  C7  UNL     1      55.890  90.491  33.562  1.00  0.00     0.089 A
HETATM   16  C8  UNL     1      55.636  90.476  34.925  1.00  0.00     0.081 A
HETATM   17  O3  UNL     1      54.423  90.550  35.379  1.00  0.00    -0.310 OA
BRANCH  16  18
HETATM   18  C9  UNL     1      56.855  90.370  35.805  1.00  0.00     0.229 C
BRANCH  18  19
HETATM   19  O2  UNL     1      56.623  89.248  36.630  1.00  0.00    -0.394 OA
ATOM     20  H2  UNL     1      57.187  89.369  37.384  1.00  0.00     0.209 HD
ENDBRANCH  18  19
ENDBRANCH  16  18
ENDBRANCH   6  11
BRANCH  10  21
HETATM   21  N11 UNL     1      49.357  92.975  35.733  1.00  0.00    -0.398 NA
BRANCH  21  22
HETATM   22  C22 UNL     1      48.622  94.061  35.787  1.00  0.00     0.189 C
BRANCH  22  23
HETATM   23  C23 UNL     1      49.030  95.195  36.723  1.00  0.00     0.239 C
HETATM   24  O10 UNL     1      50.214  95.295  37.133  1.00  0.00    -0.642 OA
HETATM   25  O11 UNL     1      48.123  96.145  37.155  1.00  0.00    -0.642 OA
ENDBRANCH  22  23
BRANCH  22  26
HETATM   26  C24 UNL     1      48.148  94.692  34.470  1.00  0.00     0.185 C
HETATM   27  C25 UNL     1      49.118  95.662  33.907  1.00  0.00     0.047 C
BRANCH  26  28
HETATM   28  O12 UNL     1      46.936  95.276  34.712  1.00  0.00    -0.389 OA
ATOM     29  H12 UNL     1      46.909  96.085  34.216  1.00  0.00     0.210 HD
ENDBRANCH  26  28
ENDBRANCH  22  26
ENDBRANCH  21  22
ENDBRANCH  10  21
ENDBRANCH   1   2
BRANCH   1  30
HETATM   30  N3  UNL     1      48.137  90.327  38.206  1.00  0.00    -0.362 N
HETATM   31  C12 UNL     1      48.713  90.637  39.335  1.00  0.00     0.160 C
ATOM     32  H3  UNL     1      47.552  89.493  38.259  1.00  0.00     0.161 HD
BRANCH  31  33
HETATM   33  C13 UNL     1      49.573  91.771  39.473  1.00  0.00     0.231 C
HETATM   34  O4  UNL     1      50.840  91.584  39.544  1.00  0.00    -0.643 OA
HETATM   35  O5  UNL     1      49.128  93.073  39.537  1.00  0.00    -0.643 OA
ENDBRANCH  31  33
BRANCH  31  36
HETATM   36  C14 UNL     1      48.400  89.729  40.427  1.00  0.00     0.199 C
BRANCH  36  37
HETATM   37  O6  UNL     1      47.124  89.748  40.723  1.00  0.00    -0.343 OA
ATOM     38  H6  UNL     1      46.914  89.128  41.413  1.00  0.00     0.219 HD
ENDBRANCH  36  37
BRANCH  36  39
HETATM   39  N4  UNL     1      49.169  88.879  41.183  1.00  0.00    -0.198 N
HETATM   40  N5  UNL     1      49.106  88.452  42.421  1.00  0.00    -0.232 N
HETATM   41  N6  UNL     1      50.054  87.627  42.762  1.00  0.00    -0.280 N
ATOM     42  H5  UNL     1      48.371  88.743  43.067  1.00  0.00     0.209 HD
HETATM   43  C15 UNL     1      50.847  87.463  41.681  1.00  0.00     0.118 A
ATOM     44  H6  UNL     1      50.176  87.188  43.675  1.00  0.00     0.188 HD
HETATM   45  C16 UNL     1      51.992  86.718  41.446  1.00  0.00     0.180 A
HETATM   46  C19 UNL     1      50.300  88.243  40.689  1.00  0.00     0.164 A
HETATM   47  O7  UNL     1      52.521  86.792  40.249  1.00  0.00    -0.289 OA
HETATM   48  C17 UNL     1      52.001  87.530  39.311  1.00  0.00     0.232 A
HETATM   49  N10 UNL     1      50.893  88.273  39.485  1.00  0.00    -0.304 N
ATOM     50  H10 UNL     1      50.515  88.841  38.727  1.00  0.00     0.171 HD
BRANCH  48  51
HETATM   51  N7  UNL     1      52.562  87.562  38.165  1.00  0.00    -0.296 N
HETATM   52  C18 UNL     1      53.969  87.537  37.954  1.00  0.00     0.189 C
HETATM   53  N8  UNL     1      54.442  87.131  36.816  1.00  0.00    -0.373 N
HETATM   54  N9  UNL     1      54.913  87.937  38.934  1.00  0.00    -0.064 NA
ATOM     55  H82 UNL     1      53.763  86.843  36.111  1.00  0.00     0.158 HD
ATOM     56  H81 UNL     1      55.451  87.113  36.665  1.00  0.00     0.158 HD
ATOM     57  H7  UNL     1      51.959  87.609  37.343  1.00  0.00     0.172 HD
ENDBRANCH  48  51
ENDBRANCH  36  39
ENDBRANCH  31  36
ENDBRANCH   1  30
BRANCH   1  58
HETATM   58  C20 UNL     1      47.287  90.098  36.022  1.00  0.00     0.203 C
HETATM   59  O8  UNL     1      47.221  88.862  36.165  1.00  0.00    -0.646 OA
HETATM   60  O9  UNL     1      46.600  90.760  35.045  1.00  0.00    -0.646 OA
ENDBRANCH   1  58
TORSDOF 16
ENDMDL