MODEL 1
REMARK VINA RESULT: -9.150072714      0.000      0.000
REMARK  16 active torsions:
REMARK  status: ('A' for Active; 'I' for Inactive)
REMARK    1  A    between atoms: O1_2  and  C2_3
REMARK    2  A    between atoms: C2_3  and  C4_6
REMARK    3  A    between atoms: C4_6  and  C5_8
REMARK    4  A    between atoms: C6_9  and  C7_10
REMARK    5  A    between atoms: C7_10  and  S1_11
REMARK    6  A    between atoms: S1_11  and  C8_12
REMARK    7  A    between atoms: C12_22  and  C13_23
REMARK    8  A    between atoms: C15_29  and  C16_30
REMARK    9  A    between atoms: C16_30  and  N5_31
REMARK   10  A    between atoms: C17_36  and  C18_37
REMARK   11  A    between atoms: C18_37  and  C19_39
REMARK   12  A    between atoms: C19_39  and  N8_40
REMARK   13  A    between atoms: C19_39  and  C20_44
REMARK   14  A    between atoms: C20_44  and  S4_45
REMARK   15  A    between atoms: S4_45  and  N9_46
REMARK   16  A    between atoms: C21_51  and  O8_52
ROOT
HETATM    1  C2  UNL     1      54.053  87.163  37.629  1.00  0.00     0.195 C
HETATM    2  C3  UNL     1      54.579  85.818  37.251  1.00  0.00     0.129 C
HETATM    3  N1  UNL     1      54.967  84.768  36.950  1.00  0.00    -0.189 NA
ENDROOT
BRANCH   1   4
HETATM    4  O1  UNL     1      54.326  88.023  36.628  1.00  0.00    -0.343 OA
HETATM    5  C1  UNL     1      55.675  88.231  36.352  1.00  0.00     0.211 C
ENDBRANCH   1   4
BRANCH   1   6
HETATM    6  C4  UNL     1      52.762  87.142  38.277  1.00  0.00     0.198 C
HETATM    7  O2  UNL     1      51.926  86.424  37.641  1.00  0.00    -0.289 OA
BRANCH   6   8
HETATM    8  C5  UNL     1      52.270  87.781  39.510  1.00  0.00     0.078 C
HETATM    9  C6  UNL     1      52.128  86.849  40.635  1.00  0.00     0.041 C
HETATM   10  C11 UNL     1      51.898  87.443  41.968  1.00  0.00     0.156 C
HETATM   11  N4  UNL     1      50.511  87.725  42.212  1.00  0.00    -0.393 N
HETATM   12  S3  UNL     1      52.751  89.060  42.169  1.00  0.00    -0.071 SA
HETATM   13  C12 UNL     1      49.718  88.232  41.178  1.00  0.00     0.195 C
ATOM     14  H4  UNL     1      50.107  87.557  43.133  1.00  0.00     0.155 HD
HETATM   15  C14 UNL     1      50.351  89.237  40.240  1.00  0.00     0.098 C
HETATM   16  S2  UNL     1      51.450  90.374  41.122  1.00  0.00    -0.088 SA
HETATM   17  C15 UNL     1      51.034  88.551  39.126  1.00  0.00     0.035 C
BRANCH   9  18
HETATM   18  C7  UNL     1      53.300  85.919  40.701  1.00  0.00     0.090 C
BRANCH  18  19
HETATM   19  S1  UNL     1      52.971  84.218  41.092  1.00  0.00    -0.094 SA
BRANCH  19  20
HETATM   20  C8  UNL     1      52.219  83.221  39.843  1.00  0.00     0.136 C
HETATM   21  N2  UNL     1      51.417  82.210  39.899  1.00  0.00    -0.369 N
HETATM   22  C9  UNL     1      51.053  81.702  38.615  1.00  0.00     0.141 C
ATOM     23  H2  UNL     1      51.078  81.812  40.774  1.00  0.00     0.161 HD
HETATM   24  C10 UNL     1      52.066  82.344  37.651  1.00  0.00     0.141 C
HETATM   25  N3  UNL     1      52.389  83.536  38.445  1.00  0.00    -0.369 N
ATOM     26  H3  UNL     1      52.685  84.437  38.070  1.00  0.00     0.161 HD
ENDBRANCH  19  20
ENDBRANCH  18  19
ENDBRANCH   9  18
BRANCH  13  27
HETATM   27  C13 UNL     1      48.467  88.797  41.776  1.00  0.00     0.197 C
HETATM   28  O3  UNL     1      48.131  88.624  42.974  1.00  0.00    -0.646 OA
HETATM   29  O4  UNL     1      47.623  89.554  40.978  1.00  0.00    -0.646 OA
ENDBRANCH  13  27
BRANCH  17  30
HETATM   30  C16 UNL     1      51.363  89.418  37.953  1.00  0.00     0.159 C
BRANCH  30  31
HETATM   31  N5  UNL     1      50.298  90.110  37.327  1.00  0.00    -0.254 N
HETATM   32  N6  UNL     1      49.417  89.510  36.544  1.00  0.00    -0.238 N
HETATM   33  N7  UNL     1      48.528  90.383  36.134  1.00  0.00    -0.279 N
ATOM     34  H6  UNL     1      49.427  88.521  36.296  1.00  0.00     0.208 HD
HETATM   35  C17 UNL     1      48.809  91.585  36.644  1.00  0.00     0.150 A
ATOM     36  H7  UNL     1      47.742  90.175  35.519  1.00  0.00     0.189 HD
HETATM   37  C21 UNL     1      49.954  91.382  37.408  1.00  0.00     0.191 A
BRANCH  35  38
HETATM   38  C18 UNL     1      48.099  92.842  36.461  1.00  0.00     0.212 C
HETATM   39  O5  UNL     1      47.057  93.077  37.110  1.00  0.00    -0.288 OA
BRANCH  38  40
HETATM   40  C19 UNL     1      48.555  93.893  35.523  1.00  0.00     0.274 C
BRANCH  40  41
HETATM   41  N8  UNL     1      47.909  93.701  34.261  1.00  0.00    -0.067 N
ATOM     42  H83 UNL     1      48.321  92.938  33.725  1.00  0.00     0.275 HD
ATOM     43  H82 UNL     1      46.970  93.314  34.360  1.00  0.00     0.275 HD
ATOM     44  H81 UNL     1      47.913  94.583  33.749  1.00  0.00     0.275 HD
ENDBRANCH  40  41
BRANCH  40  45
HETATM   45  C20 UNL     1      48.222  95.247  36.139  1.00  0.00     0.204 C
BRANCH  45  46
HETATM   46  S4  UNL     1      49.426  95.741  37.338  1.00  0.00     0.226 S
HETATM   47  O6  UNL     1      49.398  97.253  37.382  1.00  0.00    -0.206 OA
HETATM   48  O7  UNL     1      50.772  95.279  36.900  1.00  0.00    -0.206 OA
BRANCH  46  49
HETATM   49  N9  UNL     1      49.014  95.124  38.903  1.00  0.00    -0.328 N
ATOM     50  H92 UNL     1      48.921  94.131  39.116  1.00  0.00     0.168 HD
ATOM     51  H91 UNL     1      48.882  95.888  39.565  1.00  0.00     0.168 HD
ENDBRANCH  46  49
ENDBRANCH  45  46
ENDBRANCH  40  45
ENDBRANCH  38  40
ENDBRANCH  35  38
BRANCH  37  52
HETATM   52  O8  UNL     1      50.535  92.449  38.091  1.00  0.00    -0.343 OA
ATOM     53  H8  UNL     1      50.223  93.331  38.254  1.00  0.00     0.219 HD
ENDBRANCH  37  52
ENDBRANCH  30  31
ENDBRANCH  17  30
ENDBRANCH   6   8
ENDBRANCH   1   6
TORSDOF 16
ENDMDL