MODEL 1
REMARK VINA RESULT: -10.399199180      0.000      0.000
REMARK  14 active torsions:
REMARK  status: ('A' for Active; 'I' for Inactive)
REMARK       I    between atoms: C2_2  and  N1_4
REMARK    1  A    between atoms: N1_4  and  C3_6
REMARK    2  A    between atoms: C4_8  and  C5_9
REMARK       I    between atoms: C5_9  and  N2_11
REMARK    3  A    between atoms: N2_11  and  O4_12
REMARK    4  A    between atoms: O4_12  and  C6_13
REMARK    5  A    between atoms: C6_13  and  C9_16
REMARK    6  A    between atoms: N5_24  and  C12_25
REMARK    7  A    between atoms: C12_25  and  C13_26
REMARK    8  A    between atoms: C13_26  and  S1_27
REMARK    9  A    between atoms: S1_27  and  C14_28
REMARK   10  A    between atoms: C15_33  and  S2_34
REMARK   11  A    between atoms: C16_39  and  C18_42
REMARK   12  A    between atoms: C18_42  and  O10_43
REMARK   13  A    between atoms: N9_45  and  O11_47
REMARK   14  A    between atoms: N10_50  and  O12_51
ROOT
HETATM    1  C3  UNL     1      51.767  92.192  35.441  1.00  0.00     0.267 C
HETATM    2  O2  UNL     1      50.983  92.700  34.347  1.00  0.00    -0.319 OA
HETATM    3  C4  UNL     1      49.816  93.081  34.909  1.00  0.00     0.302 C
HETATM    4  C10 UNL     1      49.085  91.854  35.437  1.00  0.00     0.159 C
HETATM    5  N3  UNL     1      48.198  91.316  34.754  1.00  0.00    -0.278 N
ATOM      6  H3  UNL     1      48.048  91.778  33.857  1.00  0.00     0.179 HD
HETATM    7  C11 UNL     1      47.397  90.262  34.943  1.00  0.00     0.183 C
HETATM    8  N4  UNL     1      46.712  89.324  35.141  1.00  0.00    -0.172 NA
HETATM    9  N5  UNL     1      49.664  91.654  36.726  1.00  0.00    -0.309 N
HETATM   10  C19 UNL     1      50.939  92.400  36.613  1.00  0.00     0.245 C
HETATM   11  N10 UNL     1      50.219  93.675  36.173  1.00  0.00    -0.119 NA
ENDROOT
BRANCH   3  12
HETATM   12  C5  UNL     1      48.950  93.915  34.051  1.00  0.00     0.380 C
HETATM   13  O3  UNL     1      48.278  93.374  33.206  1.00  0.00    -0.249 OA
HETATM   14  N2  UNL     1      49.032  95.330  34.366  1.00  0.00    -0.235 NA
BRANCH  14  15
HETATM   15  O4  UNL     1      49.087  96.439  34.604  1.00  0.00    -0.184 OA
BRANCH  15  16
HETATM   16  C6  UNL     1      48.395  97.280  35.425  1.00  0.00     0.183 C
HETATM   17  C7  UNL     1      48.847  98.719  35.152  1.00  0.00     0.061 C
HETATM   18  C8  UNL     1      46.906  97.230  35.296  1.00  0.00     0.061 C
BRANCH  16  19
HETATM   19  C9  UNL     1      48.828  97.000  36.834  1.00  0.00     0.212 C
HETATM   20  O5  UNL     1      50.025  96.983  37.198  1.00  0.00    -0.646 OA
HETATM   21  O6  UNL     1      47.775  96.751  37.740  1.00  0.00    -0.646 OA
ENDBRANCH  16  19
ENDBRANCH  15  16
ENDBRANCH  14  15
ENDBRANCH   3  12
BRANCH   9  22
HETATM   22  C12 UNL     1      49.092  91.030  37.849  1.00  0.00     0.050 C
HETATM   23  C16 UNL     1      48.712  91.457  39.007  1.00  0.00     0.120 C
HETATM   24  C17 UNL     1      48.136  90.437  39.955  1.00  0.00     0.106 C
HETATM   25  N8  UNL     1      47.672  89.671  40.701  1.00  0.00    -0.191 NA
BRANCH  22  26
HETATM   26  C13 UNL     1      48.876  89.499  37.690  1.00  0.00     0.140 C
BRANCH  26  27
HETATM   27  S1  UNL     1      50.439  88.741  37.337  1.00  0.00    -0.097 SA
BRANCH  27  28
HETATM   28  C14 UNL     1      50.962  87.509  38.515  1.00  0.00     0.129 A
HETATM   29  N6  UNL     1      50.400  87.218  39.700  1.00  0.00    -0.287 N
HETATM   30  N7  UNL     1      50.868  86.281  40.393  1.00  0.00    -0.281 N
ATOM     31  H6  UNL     1      49.600  87.754  40.035  1.00  0.00     0.188 HD
HETATM   32  C15 UNL     1      51.909  85.569  39.965  1.00  0.00     0.209 A
ATOM     33  H7  UNL     1      50.445  86.062  41.295  1.00  0.00     0.188 HD
HETATM   34  S3  UNL     1      52.217  86.329  38.459  1.00  0.00    -0.030 SA
BRANCH  32  35
HETATM   35  S2  UNL     1      52.745  84.226  40.730  1.00  0.00     0.163 S
HETATM   36  O7  UNL     1      51.793  83.106  41.048  1.00  0.00    -0.590 OA
HETATM   37  O8  UNL     1      53.723  83.642  39.723  1.00  0.00    -0.590 OA
HETATM   38  O9  UNL     1      53.604  84.769  42.031  1.00  0.00    -0.590 OA
ENDBRANCH  32  35
ENDBRANCH  27  28
ENDBRANCH  26  27
ENDBRANCH  22  26
BRANCH  23  39
HETATM   39  C18 UNL     1      48.718  92.782  39.578  1.00  0.00     0.183 C
HETATM   40  N9  UNL     1      49.044  93.821  38.925  1.00  0.00    -0.246 N
ATOM     41  H9  UNL     1      49.315  93.697  37.950  1.00  0.00     0.196 HD
BRANCH  39  42
HETATM   42  O10 UNL     1      48.348  92.972  40.914  1.00  0.00    -0.344 OA
ATOM     43  H10 UNL     1      48.195  93.849  41.247  1.00  0.00     0.219 HD
ENDBRANCH  39  42
BRANCH  40  44
HETATM   44  O11 UNL     1      49.059  95.076  39.422  1.00  0.00    -0.288 OA
ATOM     45  H11 UNL     1      49.067  95.869  38.899  1.00  0.00     0.244 HD
ENDBRANCH  40  44
ENDBRANCH  23  39
ENDBRANCH   9  22
BRANCH  11  46
HETATM   46  O12 UNL     1      51.121  94.634  36.041  1.00  0.00    -0.307 OA
ATOM     47  H12 UNL     1      51.171  95.213  36.793  1.00  0.00     0.237 HD
ENDBRANCH  11  46
BRANCH   1  48
HETATM   48  N1  UNL     1      52.326  90.954  35.066  1.00  0.00    -0.332 N
HETATM   49  C2  UNL     1      53.687  90.809  34.710  1.00  0.00     0.215 C
HETATM   50  C1  UNL     1      54.140  89.401  34.300  1.00  0.00     0.117 C
HETATM   51  O1  UNL     1      54.563  91.698  34.682  1.00  0.00    -0.274 OA
ATOM     52  H1  UNL     1      51.725  90.130  35.051  1.00  0.00     0.165 HD
ENDBRANCH   1  48
TORSDOF 14
ENDMDL