MODEL 3
REMARK VINA RESULT: -9.337767595      0.946      2.592
REMARK  17 active torsions:
REMARK  status: ('A' for Active; 'I' for Inactive)
REMARK    1  A    between atoms: C1_2  and  C2_4
REMARK    2  A    between atoms: C3_5  and  S1_6
REMARK    3  A    between atoms: S1_6  and  C4_7
REMARK    4  A    between atoms: C4_7  and  C5_8
REMARK    5  A    between atoms: C5_8  and  O3_9
REMARK    6  A    between atoms: C5_8  and  C6_11
REMARK    7  A    between atoms: C6_11  and  O4_12
REMARK    8  A    between atoms: C6_11  and  C7_14
REMARK    9  A    between atoms: C7_14  and  O5_15
REMARK   10  A    between atoms: C8_19  and  C9_20
REMARK       I    between atoms: N2_25  and  C12_27
REMARK   11  A    between atoms: C12_27  and  C13_29
REMARK   12  A    between atoms: C14_33  and  C15_34
REMARK   13  A    between atoms: C16_35  and  N4_36
REMARK   14  A    between atoms: C18_40  and  S2_41
REMARK   15  A    between atoms: C19_47  and  N6_48
REMARK   16  A    between atoms: N6_48  and  O15_49
REMARK   17  A    between atoms: N6_48  and  O16_51
ROOT
HETATM    1  C2  UNL     1      48.598  93.789  37.453  1.00  0.00     0.096 C
HETATM    2  C3  UNL     1      48.112  94.325  36.324  1.00  0.00     0.085 C
HETATM    3  N1  UNL     1      47.498  93.438  35.434  1.00  0.00    -0.369 N
ATOM      4  H1  UNL     1      46.747  93.791  34.841  1.00  0.00     0.161 HD
HETATM    5  C8  UNL     1      47.874  92.040  35.313  1.00  0.00     0.189 C
HETATM    6  C10 UNL     1      48.503  91.462  36.525  1.00  0.00     0.094 C
HETATM    7  C11 UNL     1      48.452  92.329  37.733  1.00  0.00     0.034 C
HETATM    8  N2  UNL     1      48.296  91.990  38.895  1.00  0.00    -0.327 N
ATOM      9  H2  UNL     1      48.307  92.857  39.432  1.00  0.00     0.168 HD
HETATM   10  C12 UNL     1      48.119  91.016  39.800  1.00  0.00     0.261 C
HETATM   11  O8  UNL     1      47.073  90.266  39.712  1.00  0.00    -0.270 OA
ENDROOT
BRANCH  10  12
HETATM   12  C13 UNL     1      49.011  90.705  40.926  1.00  0.00     0.320 C
HETATM   13  O9  UNL     1      48.630  89.519  41.627  1.00  0.00    -0.257 OA
HETATM   14  N3  UNL     1      49.328  88.461  41.179  1.00  0.00    -0.261 N
HETATM   15  C14 UNL     1      50.282  88.766  40.348  1.00  0.00     0.119 C
ATOM     16  H3  UNL     1      49.127  87.503  41.465  1.00  0.00     0.194 HD
HETATM   17  C20 UNL     1      50.381  90.222  40.480  1.00  0.00     0.219 C
HETATM   18  O17 UNL     1      51.362  90.987  40.296  1.00  0.00    -0.287 OA
BRANCH  15  19
HETATM   19  C15 UNL     1      51.198  87.823  39.697  1.00  0.00     0.072 A
HETATM   20  C16 UNL     1      51.858  86.830  40.351  1.00  0.00     0.121 A
HETATM   21  C17 UNL     1      52.437  85.789  39.597  1.00  0.00     0.082 A
HETATM   22  C18 UNL     1      52.381  85.731  38.244  1.00  0.00     0.154 A
HETATM   23  N5  UNL     1      51.739  86.718  37.617  1.00  0.00    -0.331 N
HETATM   24  C19 UNL     1      51.158  87.740  38.276  1.00  0.00     0.152 A
ATOM     25  H5  UNL     1      51.685  86.698  36.598  1.00  0.00     0.168 HD
BRANCH  20  26
HETATM   26  N4  UNL     1      52.151  86.810  41.751  1.00  0.00    -0.115 N
HETATM   27  O10 UNL     1      53.290  86.482  42.108  1.00  0.00    -0.532 OA
HETATM   28  O11 UNL     1      51.216  87.140  42.663  1.00  0.00    -0.532 OA
ENDBRANCH  20  26
BRANCH  22  29
HETATM   29  S2  UNL     1      53.116  84.424  37.317  1.00  0.00     0.154 S
HETATM   30  O12 UNL     1      52.196  84.121  36.176  1.00  0.00    -0.590 OA
HETATM   31  O13 UNL     1      53.130  83.216  38.231  1.00  0.00    -0.590 OA
HETATM   32  O14 UNL     1      54.643  84.854  36.835  1.00  0.00    -0.590 OA
ENDBRANCH  22  29
BRANCH  24  33
HETATM   33  N6  UNL     1      50.525  88.713  37.482  1.00  0.00    -0.018 NA
BRANCH  33  34
HETATM   34  O15 UNL     1      49.243  88.230  37.206  1.00  0.00    -0.283 OA
ATOM     35  H15 UNL     1      48.632  88.879  37.536  1.00  0.00     0.240 HD
ENDBRANCH  33  34
BRANCH  33  36
HETATM   36  O16 UNL     1      51.110  88.741  36.260  1.00  0.00    -0.283 OA
ATOM     37  H16 UNL     1      51.884  89.292  36.296  1.00  0.00     0.240 HD
ENDBRANCH  33  36
ENDBRANCH  24  33
ENDBRANCH  15  19
ENDBRANCH  10  12
BRANCH   1  38
HETATM   38  C1  UNL     1      49.237  94.657  38.410  1.00  0.00     0.214 C
HETATM   39  O1  UNL     1      48.694  94.807  39.550  1.00  0.00    -0.644 OA
HETATM   40  O2  UNL     1      50.407  95.309  38.104  1.00  0.00    -0.644 OA
ENDBRANCH   1  38
BRANCH   2  41
HETATM   41  S1  UNL     1      48.243  96.050  36.006  1.00  0.00    -0.109 SA
BRANCH  41  42
HETATM   42  C4  UNL     1      49.191  96.399  34.538  1.00  0.00     0.115 C
BRANCH  42  43
HETATM   43  C5  UNL     1      50.624  95.972  34.584  1.00  0.00     0.158 C
BRANCH  43  44
HETATM   44  O3  UNL     1      51.267  96.534  35.665  1.00  0.00    -0.392 OA
ATOM     45  H3  UNL     1      52.204  96.392  35.610  1.00  0.00     0.210 HD
ENDBRANCH  43  44
BRANCH  43  46
HETATM   46  C6  UNL     1      50.670  94.449  34.693  1.00  0.00     0.171 C
BRANCH  46  47
HETATM   47  O4  UNL     1      50.255  93.809  33.538  1.00  0.00    -0.391 OA
ATOM     48  H4  UNL     1      50.886  93.869  32.832  1.00  0.00     0.210 HD
ENDBRANCH  46  47
BRANCH  46  49
HETATM   49  C7  UNL     1      52.014  93.946  35.090  1.00  0.00     0.198 C
BRANCH  49  50
HETATM   50  O5  UNL     1      52.000  93.664  36.464  1.00  0.00    -0.398 OA
ATOM     51  H5  UNL     1      52.053  92.723  36.582  1.00  0.00     0.209 HD
ENDBRANCH  49  50
ENDBRANCH  46  49
ENDBRANCH  43  46
ENDBRANCH  42  43
ENDBRANCH  41  42
ENDBRANCH   2  41
BRANCH   5  52
HETATM   52  C9  UNL     1      46.718  91.242  34.846  1.00  0.00     0.197 C
HETATM   53  O6  UNL     1      45.758  91.806  34.308  1.00  0.00    -0.646 OA
HETATM   54  O7  UNL     1      46.800  89.858  35.056  1.00  0.00    -0.646 OA
ENDBRANCH   5  52
TORSDOF 17
ENDMDL