MODEL 5
REMARK VINA RESULT: -9.943167605      2.261      4.182
REMARK  16 active torsions:
REMARK  status: ('A' for Active; 'I' for Inactive)
REMARK    1  A    between atoms: O1_2  and  C2_3
REMARK    2  A    between atoms: C2_3  and  C3_5
REMARK    3  A    between atoms: C3_5  and  C15_46
REMARK       I    between atoms: N1_6  and  C4_8
REMARK       I    between atoms: C4_8  and  N2_10
REMARK    4  A    between atoms: N2_10  and  C5_12
REMARK    5  A    between atoms: C5_12  and  C6_13
REMARK    6  A    between atoms: C6_13  and  N5_27
REMARK    7  A    between atoms: N3_14  and  O4_16
REMARK    8  A    between atoms: O4_16  and  S1_17
REMARK    9  A    between atoms: S1_17  and  C7_20
REMARK   10  A    between atoms: N5_27  and  N6_29
REMARK       I    between atoms: N7_32  and  C13_33
REMARK   11  A    between atoms: C14_40  and  N11_41
REMARK   12  A    between atoms: N11_41  and  N12_43
REMARK   13  A    between atoms: C15_46  and  O11_48
REMARK   14  A    between atoms: O11_48  and  C16_49
REMARK   15  A    between atoms: C16_49  and  C17_50
REMARK   16  A    between atoms: C19_52  and  N13_53
ROOT
HETATM    1  C6  UNL     1      49.466  89.767  38.843  1.00  0.00     0.135 C
HETATM    2  N3  UNL     1      48.736  89.305  37.890  1.00  0.00    -0.234 N
ATOM      3  H3  UNL     1      48.205  88.458  38.089  1.00  0.00     0.197 HD
ENDROOT
BRANCH   1   4
HETATM    4  C5  UNL     1      49.499  89.069  40.140  1.00  0.00     0.204 C
BRANCH   4   5
HETATM    5  N2  UNL     1      49.796  87.657  39.929  1.00  0.00    -0.336 N
HETATM    6  C4  UNL     1      50.977  87.259  39.257  1.00  0.00     0.321 C
HETATM    7  N1  UNL     1      51.347  85.936  39.008  1.00  0.00    -0.299 N
HETATM    8  O3  UNL     1      51.775  88.166  38.840  1.00  0.00    -0.247 OA
HETATM    9  C3  UNL     1      52.023  85.159  39.743  1.00  0.00     0.188 C
ATOM     10  H1  UNL     1      51.032  85.546  38.120  1.00  0.00     0.171 HD
ATOM     11  H2  UNL     1      49.146  86.949  40.269  1.00  0.00     0.164 HD
BRANCH   9  12
HETATM   12  C2  UNL     1      52.521  85.607  41.025  1.00  0.00     0.316 C
HETATM   13  O2  UNL     1      51.731  86.158  41.824  1.00  0.00    -0.257 OA
BRANCH  12  14
HETATM   14  O1  UNL     1      53.839  85.453  41.407  1.00  0.00    -0.321 OA
HETATM   15  C1  UNL     1      54.936  86.016  40.711  1.00  0.00     0.213 C
ENDBRANCH  12  14
ENDBRANCH   9  12
BRANCH   9  16
HETATM   16  C15 UNL     1      52.343  83.774  39.350  1.00  0.00     0.316 C
HETATM   17  O10 UNL     1      51.637  82.837  39.802  1.00  0.00    -0.257 OA
BRANCH  16  18
HETATM   18  O11 UNL     1      53.380  83.463  38.512  1.00  0.00    -0.310 OA
BRANCH  18  19
HETATM   19  C16 UNL     1      53.340  83.479  37.119  1.00  0.00     0.238 C
BRANCH  19  20
HETATM   20  C17 UNL     1      53.050  82.154  36.524  1.00  0.00     0.061 A
HETATM   21  C18 UNL     1      53.609  81.640  35.375  1.00  0.00     0.087 A
HETATM   22  C19 UNL     1      53.061  80.368  35.165  1.00  0.00     0.166 A
HETATM   23  O12 UNL     1      52.238  80.183  36.149  1.00  0.00    -0.220 OA
HETATM   24  N14 UNL     1      52.207  81.207  36.963  1.00  0.00    -0.261 N
ATOM     25  H14 UNL     1      51.631  81.275  37.801  1.00  0.00     0.194 HD
BRANCH  22  26
HETATM   26  N13 UNL     1      53.342  79.573  34.183  1.00  0.00    -0.378 N
ATOM     27 2H13 UNL     1      54.250  79.365  33.769  1.00  0.00     0.158 HD
ATOM     28 1H13 UNL     1      52.671  79.012  33.656  1.00  0.00     0.158 HD
ENDBRANCH  22  26
ENDBRANCH  19  20
ENDBRANCH  18  19
ENDBRANCH  16  18
ENDBRANCH   9  16
ENDBRANCH   4   5
ENDBRANCH   1   4
BRANCH   1  29
HETATM   29  N5  UNL     1      50.233  90.940  38.641  1.00  0.00    -0.270 N
ATOM     30  H5  UNL     1      51.244  90.872  38.757  1.00  0.00     0.189 HD
BRANCH  29  31
HETATM   31  N6  UNL     1      49.696  92.189  38.293  1.00  0.00    -0.118 N
HETATM   32  C11 UNL     1      48.744  92.802  39.177  1.00  0.00     0.190 C
HETATM   33  C12 UNL     1      48.719  94.314  39.082  1.00  0.00     0.175 C
HETATM   34  N7  UNL     1      48.968  94.781  37.747  1.00  0.00    -0.249 N
HETATM   35  C13 UNL     1      48.407  96.024  37.348  1.00  0.00     0.203 C
HETATM   36  N10 UNL     1      49.737  94.077  36.821  1.00  0.00    -0.124 N
HETATM   37  N8  UNL     1      47.202  96.121  36.915  1.00  0.00    -0.372 N
HETATM   38  N9  UNL     1      49.208  97.190  37.431  1.00  0.00    -0.062 NA
ATOM     39  H82 UNL     1      46.626  95.282  36.856  1.00  0.00     0.158 HD
ATOM     40  H81 UNL     1      46.800  97.013  36.629  1.00  0.00     0.158 HD
HETATM   41  C14 UNL     1      50.065  92.865  37.100  1.00  0.00     0.733 C
ATOM     42  H10 UNL     1      50.032  94.511  35.946  1.00  0.00     0.206 HD
BRANCH  41  43
HETATM   43  N11 UNL     1      50.860  92.116  36.159  1.00  0.00    -0.069 N
ATOM     44  H11 UNL     1      50.828  91.097  36.141  1.00  0.00     0.212 HD
BRANCH  43  45
HETATM   45  N12 UNL     1      51.684  92.830  35.263  1.00  0.00    -0.024 N
HETATM   46  O8  UNL     1      51.608  92.691  34.030  1.00  0.00    -0.516 OA
HETATM   47  O9  UNL     1      52.600  93.712  35.819  1.00  0.00    -0.516 OA
ENDBRANCH  43  45
ENDBRANCH  41  43
ENDBRANCH  29  31
ENDBRANCH   1  29
BRANCH   2  48
HETATM   48  O4  UNL     1      48.600  89.828  36.649  1.00  0.00    -0.144 OA
BRANCH  48  49
HETATM   49  S1  UNL     1      47.144  90.012  35.825  1.00  0.00     0.342 S
HETATM   50  O5  UNL     1      47.105  88.975  34.729  1.00  0.00    -0.189 OA
HETATM   51  O6  UNL     1      45.951  89.848  36.736  1.00  0.00    -0.189 OA
BRANCH  49  52
HETATM   52  C7  UNL     1      47.069  91.615  35.123  1.00  0.00     0.216 A
HETATM   53  C8  UNL     1      45.936  92.343  34.866  1.00  0.00     0.142 A
HETATM   54  N4  UNL     1      46.288  93.531  34.322  1.00  0.00    -0.347 N
HETATM   55  C9  UNL     1      47.635  93.513  34.254  1.00  0.00     0.121 A
ATOM     56  H4  UNL     1      45.665  94.281  34.025  1.00  0.00     0.167 HD
HETATM   57  C10 UNL     1      48.446  94.645  33.709  1.00  0.00     0.098 C
HETATM   58  O7  UNL     1      48.074  92.371  34.733  1.00  0.00    -0.283 OA
ENDBRANCH  49  52
ENDBRANCH  48  49
ENDBRANCH   2  48
TORSDOF 16
ENDMDL