MODEL 1
REMARK VINA RESULT: -10.390485112      0.000      0.000
REMARK  14 active torsions:
REMARK  status: ('A' for Active; 'I' for Inactive)
REMARK       I    between atoms: C2_2  and  N1_4
REMARK    1  A    between atoms: C3_6  and  C4_7
REMARK       I    between atoms: N2_13  and  C8_15
REMARK    2  A    between atoms: C8_15  and  C9_17
REMARK    3  A    between atoms: C9_17  and  C22_57
REMARK    4  A    between atoms: N3_18  and  O3_20
REMARK    5  A    between atoms: O3_20  and  C10_21
REMARK    6  A    between atoms: C10_21  and  C11_22
REMARK    7  A    between atoms: C11_22  and  C15_35
REMARK    8  A    between atoms: N4_23  and  O4_25
REMARK    9  A    between atoms: O4_25  and  C12_26
REMARK   10  A    between atoms: C12_26  and  N5_28
REMARK   11  A    between atoms: C12_26  and  C14_32
REMARK   12  A    between atoms: C17_39  and  N7_40
REMARK   13  A    between atoms: N7_40  and  C18_42
REMARK   14  A    between atoms: C21_48  and  N10_49
ROOT
HETATM    1  C11 UNL     1      50.441  88.808  38.005  1.00  0.00     0.076 C
HETATM    2  N4  UNL     1      49.217  88.743  38.344  1.00  0.00    -0.264 N
ATOM      3  H4  UNL     1      48.819  87.851  38.639  1.00  0.00     0.194 HD
ENDROOT
BRANCH   1   4
HETATM    4  C10 UNL     1      51.031  90.085  37.579  1.00  0.00     0.261 C
BRANCH   4   5
HETATM    5  O3  UNL     1      50.946  90.285  36.168  1.00  0.00    -0.274 OA
BRANCH   5   6
HETATM    6  N3  UNL     1      52.104  90.450  35.458  1.00  0.00    -0.255 N
HETATM    7  C9  UNL     1      52.196  91.390  34.593  1.00  0.00     0.199 C
ATOM      8  H3  UNL     1      52.894  89.825  35.617  1.00  0.00     0.195 HD
BRANCH   7   9
HETATM    9  C8  UNL     1      51.073  92.274  34.371  1.00  0.00     0.281 C
HETATM   10  N2  UNL     1      50.202  92.676  35.419  1.00  0.00    -0.327 N
HETATM   11  C7  UNL     1      50.331  93.847  35.990  1.00  0.00     0.010 C
ATOM     12  H2  UNL     1      49.465  92.043  35.730  1.00  0.00     0.168 HD
HETATM   13  C4  UNL     1      49.370  94.140  37.058  1.00  0.00     0.081 C
HETATM   14  C6  UNL     1      51.401  94.727  35.515  1.00  0.00     0.139 C
HETATM   15  C5  UNL     1      49.535  95.443  37.753  1.00  0.00     0.102 C
HETATM   16  S1  UNL     1      49.367  96.854  36.589  1.00  0.00    -0.096 SA
HETATM   17  S2  UNL     1      50.589  96.263  34.911  1.00  0.00    -0.092 SA
HETATM   18  O2  UNL     1      50.821  92.727  33.226  1.00  0.00    -0.265 OA
BRANCH  13  19
HETATM   19  C3  UNL     1      47.971  94.086  36.525  1.00  0.00     0.075 C
HETATM   20  N1  UNL     1      47.539  92.950  36.127  1.00  0.00    -0.340 N
HETATM   21  C2  UNL     1      46.252  92.716  35.598  1.00  0.00     0.217 C
ATOM     22  H1  UNL     1      48.173  92.154  36.198  1.00  0.00     0.167 HD
HETATM   23  C1  UNL     1      45.048  93.461  36.037  1.00  0.00     0.117 C
HETATM   24  O1  UNL     1      46.125  91.832  34.713  1.00  0.00    -0.274 OA
ENDBRANCH  13  19
ENDBRANCH   7   9
BRANCH   7  25
HETATM   25  C22 UNL     1      53.436  91.546  33.851  1.00  0.00     0.234 C
HETATM   26  O7  UNL     1      54.310  92.353  34.286  1.00  0.00    -0.643 OA
HETATM   27  O8  UNL     1      53.658  90.824  32.687  1.00  0.00    -0.643 OA
ENDBRANCH   7  25
ENDBRANCH   5   6
ENDBRANCH   4   5
ENDBRANCH   1   4
BRANCH   1  28
HETATM   28  C15 UNL     1      51.294  87.615  38.028  1.00  0.00     0.050 A
HETATM   29  C16 UNL     1      52.566  87.471  37.522  1.00  0.00     0.111 A
HETATM   30  N6  UNL     1      53.144  86.314  37.654  1.00  0.00    -0.345 N
HETATM   31  C17 UNL     1      52.487  85.332  38.267  1.00  0.00     0.146 A
ATOM     32  H6  UNL     1      54.086  86.161  37.293  1.00  0.00     0.167 HD
HETATM   33  S3  UNL     1      51.000  86.056  38.672  1.00  0.00    -0.051 SA
BRANCH  31  34
HETATM   34  N7  UNL     1      52.907  84.113  38.489  1.00  0.00    -0.342 N
ATOM     35  H7  UNL     1      53.785  83.959  38.984  1.00  0.00     0.163 HD
BRANCH  34  36
HETATM   36  C18 UNL     1      52.139  83.000  38.038  1.00  0.00     0.297 C
HETATM   37  C19 UNL     1      52.955  82.001  37.240  1.00  0.00     0.127 C
HETATM   38  C20 UNL     1      51.984  80.992  36.727  1.00  0.00     0.095 C
HETATM   39  N8  UNL     1      52.253  80.398  35.470  1.00  0.00    -0.088 NA
HETATM   40  N9  UNL     1      50.973  80.735  37.464  1.00  0.00    -0.333 N
HETATM   41  C21 UNL     1      50.675  81.316  38.734  1.00  0.00     0.486 C
ATOM     42  H9  UNL     1      50.312  80.045  37.109  1.00  0.00     0.164 HD
HETATM   43  N11 UNL     1      51.630  82.289  39.196  1.00  0.00    -0.008 N
ATOM     44 2H11 UNL     1      52.371  81.878  39.764  1.00  0.00     0.284 HD
ATOM     45 1H11 UNL     1      51.246  82.914  39.905  1.00  0.00     0.284 HD
BRANCH  41  46
HETATM   46  N10 UNL     1      50.539  80.319  39.786  1.00  0.00    -0.033 N
ATOM     47 3H10 UNL     1      50.487  79.379  39.395  1.00  0.00     0.278 HD
ATOM     48 2H10 UNL     1      51.404  80.229  40.319  1.00  0.00     0.278 HD
ATOM     49 1H10 UNL     1      49.747  80.505  40.401  1.00  0.00     0.278 HD
ENDBRANCH  41  46
ENDBRANCH  34  36
ENDBRANCH  31  34
ENDBRANCH   1  28
BRANCH   2  50
HETATM   50  O4  UNL     1      48.441  89.850  38.317  1.00  0.00    -0.229 OA
BRANCH  50  51
HETATM   51  C12 UNL     1      47.837  90.434  39.454  1.00  0.00     0.331 C
HETATM   52  C13 UNL     1      48.207  91.894  39.597  1.00  0.00     0.093 C
BRANCH  51  53
HETATM   53  N5  UNL     1      46.396  90.347  39.418  1.00  0.00    -0.034 N
ATOM     54  H53 UNL     1      45.996  91.104  38.863  1.00  0.00     0.278 HD
ATOM     55  H52 UNL     1      46.089  89.554  38.855  1.00  0.00     0.278 HD
ATOM     56  H51 UNL     1      45.984  90.318  40.350  1.00  0.00     0.278 HD
ENDBRANCH  51  53
BRANCH  51  57
HETATM   57  C14 UNL     1      48.339  89.720  40.656  1.00  0.00     0.241 C
HETATM   58  O5  UNL     1      47.661  88.887  41.308  1.00  0.00    -0.644 OA
HETATM   59  O6  UNL     1      49.634  89.969  41.108  1.00  0.00    -0.644 OA
ENDBRANCH  51  57
ENDBRANCH  50  51
ENDBRANCH   2  50
TORSDOF 14
ENDMDL