MODEL 3
REMARK VINA RESULT: -10.387899913      1.086      1.354
REMARK  14 active torsions:
REMARK  status: ('A' for Active; 'I' for Inactive)
REMARK    1  A    between atoms: C6_15  and  C7_16
REMARK    2  A    between atoms: C7_16  and  O4_17
REMARK    3  A    between atoms: O4_17  and  S1_18
REMARK    4  A    between atoms: S1_18  and  C8_21
REMARK    5  A    between atoms: C11_24  and  O7_25
REMARK    6  A    between atoms: C12_27  and  N5_28
REMARK    7  A    between atoms: C14_30  and  C15_31
REMARK    8  A    between atoms: C15_31  and  S2_32
REMARK    9  A    between atoms: S2_32  and  C16_33
REMARK   10  A    between atoms: C16_33  and  C17_34
REMARK   11  A    between atoms: C17_34  and  O8_35
REMARK   12  A    between atoms: C18_41  and  O9_42
REMARK   13  A    between atoms: O9_42  and  S3_43
REMARK   14  A    between atoms: C19_47  and  C20_48
ROOT
HETATM    1  C8  UNL     1      49.340  89.565  37.734  1.00  0.00     0.124 A
HETATM    2  C9  UNL     1      50.160  89.976  36.724  1.00  0.00     0.032 A
HETATM    3  C10 UNL     1      51.420  89.428  36.573  1.00  0.00     0.040 A
HETATM    4  C11 UNL     1      51.898  88.467  37.411  1.00  0.00     0.097 A
HETATM    5  C12 UNL     1      51.112  88.007  38.454  1.00  0.00     0.126 A
HETATM    6  C18 UNL     1      49.864  88.572  38.576  1.00  0.00     0.147 A
ENDROOT
BRANCH   1   7
HETATM    7  S1  UNL     1      47.602  90.242  38.107  1.00  0.00     0.305 S
HETATM    8  O5  UNL     1      47.278  89.133  36.018  1.00  0.00    -0.193 OA
HETATM    9  O6  UNL     1      46.213  89.704  38.104  1.00  0.00    -0.193 OA
BRANCH   7  10
HETATM   10  O4  UNL     1      47.572  91.666  38.133  1.00  0.00    -0.240 OA
BRANCH  10  11
HETATM   11  C7  UNL     1      48.236  92.788  38.180  1.00  0.00     0.176 C
BRANCH  11  12
HETATM   12  C6  UNL     1      48.390  93.949  37.391  1.00  0.00     0.090 C
HETATM   13  C5  UNL     1      48.884  95.084  38.283  1.00  0.00     0.258 C
HETATM   14  N4  UNL     1      49.437  96.334  37.986  1.00  0.00    -0.327 N
HETATM   15  O3  UNL     1      48.767  94.838  39.528  1.00  0.00    -0.267 OA
HETATM   16  C4  UNL     1      49.687  96.999  36.705  1.00  0.00     0.283 C
ATOM     17  H4  UNL     1      49.713  96.878  38.803  1.00  0.00     0.165 HD
HETATM   18  C3  UNL     1      48.474  96.652  35.814  1.00  0.00     0.283 C
HETATM   19  N3  UNL     1      50.838  96.399  36.093  1.00  0.00    -0.331 N
HETATM   20  N2  UNL     1      48.497  95.337  35.319  1.00  0.00    -0.216 N
HETATM   21  O2  UNL     1      47.664  97.582  35.672  1.00  0.00    -0.267 OA
HETATM   22  N1  UNL     1      48.885  94.794  34.103  1.00  0.00    -0.121 NA
HETATM   23  C19 UNL     1      48.226  94.094  36.098  1.00  0.00     0.150 C
HETATM   24  C2  UNL     1      50.329  95.055  33.913  1.00  0.00     0.238 C
HETATM   25  C1  UNL     1      50.993  95.364  35.151  1.00  0.00     0.235 C
HETATM   26  O1  UNL     1      51.914  94.533  35.467  1.00  0.00    -0.272 OA
ATOM     27  H3  UNL     1      51.722  96.804  36.401  1.00  0.00     0.165 HD
BRANCH  23  28
HETATM   28  C20 UNL     1      47.688  93.049  35.334  1.00  0.00     0.229 C
HETATM   29  O13 UNL     1      48.252  92.143  34.745  1.00  0.00    -0.643 OA
HETATM   30  O14 UNL     1      46.269  92.950  35.163  1.00  0.00    -0.643 OA
ENDBRANCH  23  28
ENDBRANCH  11  12
ENDBRANCH  10  11
ENDBRANCH   7  10
ENDBRANCH   1   7
BRANCH   6  31
HETATM   31  O9  UNL     1      49.044  88.112  39.637  1.00  0.00    -0.210 OA
BRANCH  31  32
HETATM   32  S3  UNL     1      49.257  88.817  41.154  1.00  0.00     0.257 S
HETATM   33  O10 UNL     1      49.843  90.201  41.054  1.00  0.00    -0.572 OA
HETATM   34  O11 UNL     1      47.913  89.000  41.848  1.00  0.00    -0.572 OA
HETATM   35  O12 UNL     1      50.246  87.940  42.178  1.00  0.00    -0.572 OA
ENDBRANCH  31  32
ENDBRANCH   6  31
BRANCH   5  36
HETATM   36  N5  UNL     1      51.633  87.008  39.282  1.00  0.00    -0.246 N
HETATM   37  C13 UNL     1      51.397  85.696  39.178  1.00  0.00     0.145 A
HETATM   38  C14 UNL     1      52.087  85.015  40.188  1.00  0.00     0.054 A
HETATM   39  N6  UNL     1      52.715  85.992  40.859  1.00  0.00    -0.288 N
HETATM   40  N7  UNL     1      52.436  87.178  40.310  1.00  0.00    -0.236 N
ATOM     41  H6  UNL     1      53.318  85.851  41.670  1.00  0.00     0.188 HD
ATOM     42  H7  UNL     1      52.790  88.076  40.638  1.00  0.00     0.209 HD
BRANCH  38  43
HETATM   43  C15 UNL     1      52.064  83.555  40.336  1.00  0.00     0.134 C
BRANCH  43  44
HETATM   44  S2  UNL     1      51.755  82.602  38.866  1.00  0.00    -0.161 SA
BRANCH  44  45
HETATM   45  C16 UNL     1      50.912  81.057  39.051  1.00  0.00     0.100 C
BRANCH  45  46
HETATM   46  C17 UNL     1      50.647  80.308  37.785  1.00  0.00     0.174 C
BRANCH  46  47
HETATM   47  O8  UNL     1      51.758  79.562  37.360  1.00  0.00    -0.400 OA
ATOM     48  H8  UNL     1      51.551  78.644  37.231  1.00  0.00     0.209 HD
ENDBRANCH  46  47
ENDBRANCH  45  46
ENDBRANCH  44  45
ENDBRANCH  43  44
ENDBRANCH  38  43
ENDBRANCH   5  36
BRANCH   4  49
HETATM   49  O7  UNL     1      53.191  87.936  37.219  1.00  0.00    -0.358 OA
ATOM     50  H7  UNL     1      53.415  87.083  37.571  1.00  0.00     0.217 HD
ENDBRANCH   4  49
TORSDOF 14
ENDMDL