MODEL 3
REMARK VINA RESULT: -9.042193232      2.217      9.004
REMARK  20 active torsions:
REMARK  status: ('A' for Active; 'I' for Inactive)
REMARK    1  A    between atoms: O1_2  and  C2_3
REMARK    2  A    between atoms: C2_3  and  C3_5
REMARK    3  A    between atoms: C3_5  and  O3_6
REMARK    4  A    between atoms: C5_9  and  C6_10
REMARK    5  A    between atoms: C6_10  and  O4_11
REMARK    6  A    between atoms: C6_10  and  O5_13
REMARK    7  A    between atoms: O5_13  and  C7_14
REMARK    8  A    between atoms: C9_16  and  O6_17
REMARK    9  A    between atoms: C13_22  and  N1_23
REMARK   10  A    between atoms: N1_23  and  C14_25
REMARK   11  A    between atoms: C14_25  and  O7_26
REMARK   12  A    between atoms: C14_25  and  C15_28
REMARK   13  A    between atoms: C15_28  and  O8_29
REMARK   14  A    between atoms: O8_29  and  C16_30
REMARK   15  A    between atoms: C23_41  and  C24_42
REMARK   16  A    between atoms: C24_42  and  N4_43
REMARK   17  A    between atoms: N5_47  and  C26_49
REMARK   18  A    between atoms: C26_49  and  O12_50
REMARK   19  A    between atoms: C26_49  and  C27_52
REMARK   20  A    between atoms: C29_55  and  O14_56
ROOT
HETATM    1  C6  UNL     1      50.798  88.545  37.218  1.00  0.00     0.267 C
ENDROOT
BRANCH   1   2
HETATM    2  C5  UNL     1      51.551  88.824  38.537  1.00  0.00     0.056 C
HETATM    3  C4  UNL     1      52.614  87.801  38.686  1.00  0.00     0.062 C
HETATM    4  C3  UNL     1      52.696  87.004  39.926  1.00  0.00     0.176 C
HETATM    5  C29 UNL     1      52.401  87.896  41.130  1.00  0.00     0.208 C
HETATM    6  C25 UNL     1      51.071  88.483  40.952  1.00  0.00     0.023 C
HETATM    7  C23 UNL     1      50.591  89.007  39.633  1.00  0.00     0.067 C
HETATM    8  N5  UNL     1      50.252  88.587  41.894  1.00  0.00    -0.362 N
ATOM      9  H5  UNL     1      49.372  89.017  41.609  1.00  0.00     0.162 HD
BRANCH   4  10
HETATM   10  C2  UNL     1      51.924  85.772  39.975  1.00  0.00     0.296 C
HETATM   11  O2  UNL     1      51.181  85.439  39.023  1.00  0.00    -0.262 OA
BRANCH  10  12
HETATM   12  O1  UNL     1      51.981  84.931  41.061  1.00  0.00    -0.324 OA
HETATM   13  C1  UNL     1      52.432  83.587  40.970  1.00  0.00     0.213 C
ENDBRANCH  10  12
ENDBRANCH   4  10
BRANCH   4  14
HETATM   14  O3  UNL     1      54.066  86.599  40.035  1.00  0.00    -0.377 OA
ATOM     15  H3  UNL     1      54.162  86.271  40.922  1.00  0.00     0.211 HD
ENDBRANCH   4  14
BRANCH   5  16
HETATM   16  O14 UNL     1      52.578  87.182  42.298  1.00  0.00    -0.386 OA
ATOM     17  H14 UNL     1      52.954  87.744  42.966  1.00  0.00     0.210 HD
ENDBRANCH   5  16
BRANCH   7  18
HETATM   18  C24 UNL     1      50.131  90.424  39.883  1.00  0.00     0.212 C
BRANCH  18  19
HETATM   19  N4  UNL     1      48.712  90.620  39.754  1.00  0.00    -0.155 N
HETATM   20  O10 UNL     1      48.216  91.651  40.259  1.00  0.00    -0.537 OA
HETATM   21  O11 UNL     1      47.835  89.783  39.129  1.00  0.00    -0.537 OA
ENDBRANCH  18  19
ENDBRANCH   7  18
BRANCH   8  22
HETATM   22  C26 UNL     1      50.275  88.245  43.241  1.00  0.00     0.288 C
BRANCH  22  23
HETATM   23  O12 UNL     1      51.016  89.133  44.020  1.00  0.00    -0.370 OA
ATOM     24  H12 UNL     1      50.476  89.681  44.578  1.00  0.00     0.212 HD
ENDBRANCH  22  23
BRANCH  22  25
HETATM   25  C27 UNL     1      48.851  88.263  43.731  1.00  0.00     0.171 C
HETATM   26  C28 UNL     1      48.558  87.903  45.121  1.00  0.00     0.096 C
HETATM   27  O13 UNL     1      47.982  88.576  42.955  1.00  0.00    -0.294 OA
ENDBRANCH  22  25
ENDBRANCH   8  22
ENDBRANCH   1   2
BRANCH   1  28
HETATM   28  O4  UNL     1      49.495  88.235  37.546  1.00  0.00    -0.370 OA
ATOM     29  H4  UNL     1      49.500  87.885  38.429  1.00  0.00     0.212 HD
ENDBRANCH   1  28
BRANCH   1  30
HETATM   30  O5  UNL     1      50.966  89.649  36.383  1.00  0.00    -0.331 OA
BRANCH  30  31
HETATM   31  C7  UNL     1      51.239  90.921  36.813  1.00  0.00     0.154 C
HETATM   32  C8  UNL     1      50.301  91.845  36.809  1.00  0.00     0.049 A
HETATM   33  C9  UNL     1      50.536  93.140  37.233  1.00  0.00     0.087 A
HETATM   34  C19 UNL     1      49.041  91.528  36.372  1.00  0.00     0.076 A
HETATM   35  C10 UNL     1      49.519  94.096  37.215  1.00  0.00    -0.014 A
HETATM   36  C11 UNL     1      49.923  95.419  37.762  1.00  0.00     0.052 C
HETATM   37  C12 UNL     1      48.260  93.778  36.773  1.00  0.00     0.017 A
HETATM   38  C13 UNL     1      47.324  94.671  36.671  1.00  0.00     0.099 C
HETATM   39  C18 UNL     1      48.012  92.463  36.342  1.00  0.00     0.075 A
HETATM   40  N3  UNL     1      46.954  91.783  35.871  1.00  0.00    -0.339 N
HETATM   41  C20 UNL     1      47.288  90.480  35.608  1.00  0.00     0.080 A
HETATM   42  C22 UNL     1      45.620  92.278  35.657  1.00  0.00     0.158 C
HETATM   43  N2  UNL     1      48.554  90.335  35.916  1.00  0.00    -0.343 N
HETATM   44  C21 UNL     1      46.345  89.455  35.074  1.00  0.00     0.089 C
ATOM     45  H2  UNL     1      49.090  89.472  35.829  1.00  0.00     0.167 HD
BRANCH  33  46
HETATM   46  O6  UNL     1      51.800  93.406  37.653  1.00  0.00    -0.359 OA
ATOM     47  H6  UNL     1      52.208  92.735  38.188  1.00  0.00     0.217 HD
ENDBRANCH  33  46
BRANCH  38  48
HETATM   48  N1  UNL     1      47.316  96.069  36.946  1.00  0.00    -0.371 N
ATOM     49  H1  UNL     1      47.484  96.391  37.899  1.00  0.00     0.161 HD
BRANCH  48  50
HETATM   50  C14 UNL     1      47.079  97.028  35.919  1.00  0.00     0.241 C
BRANCH  50  51
HETATM   51  O7  UNL     1      45.962  96.662  35.159  1.00  0.00    -0.375 OA
ATOM     52  H7  UNL     1      46.059  95.775  34.833  1.00  0.00     0.212 HD
ENDBRANCH  50  51
BRANCH  50  53
HETATM   53  C15 UNL     1      48.209  97.420  35.052  1.00  0.00     0.232 C
BRANCH  53  54
HETATM   54  O8  UNL     1      48.705  96.471  34.172  1.00  0.00    -0.317 OA
BRANCH  54  55
HETATM   55  C16 UNL     1      50.049  96.141  34.207  1.00  0.00     0.254 C
HETATM   56  C17 UNL     1      50.514  94.740  33.933  1.00  0.00     0.126 C
HETATM   57  O9  UNL     1      50.948  96.981  34.466  1.00  0.00    -0.266 OA
ENDBRANCH  54  55
ENDBRANCH  53  54
ENDBRANCH  50  53
ENDBRANCH  48  50
ENDBRANCH  38  48
ENDBRANCH  30  31
ENDBRANCH   1  30
TORSDOF 20
ENDMDL