MODEL 3
REMARK VINA RESULT: -8.353867459      2.144      8.047
REMARK  15 active torsions:
REMARK  status: ('A' for Active; 'I' for Inactive)
REMARK    1  A    between atoms: O1_2  and  C2_3
REMARK    2  A    between atoms: C4_5  and  O2_6
REMARK    3  A    between atoms: C5_8  and  O3_9
REMARK    4  A    between atoms: O3_9  and  C6_10
REMARK    5  A    between atoms: C7_12  and  O5_13
REMARK    6  A    between atoms: O5_13  and  S1_14
REMARK    7  A    between atoms: C8_18  and  O9_19
REMARK    8  A    between atoms: C8_18  and  C9_21
REMARK    9  A    between atoms: C10_24  and  O12_25
REMARK   10  A    between atoms: O12_25  and  S2_26
REMARK   11  A    between atoms: C11_30  and  O16_31
REMARK   12  A    between atoms: C12_33  and  O17_34
REMARK   13  A    between atoms: O17_34  and  S3_35
REMARK   14  A    between atoms: C13_39  and  O21_40
REMARK   15  A    between atoms: O21_40  and  S4_41
ROOT
HETATM    1  C6  UNL     1      50.321  88.243  37.906  1.00  0.00     0.301 C
HETATM    2  O4  UNL     1      50.994  87.098  37.690  1.00  0.00    -0.323 OA
HETATM    3  C7  UNL     1      52.015  86.730  38.502  1.00  0.00     0.332 C
HETATM    4  C8  UNL     1      51.579  87.031  39.938  1.00  0.00     0.227 C
HETATM    5  C10 UNL     1      51.704  88.547  40.017  1.00  0.00     0.229 C
HETATM    6  C11 UNL     1      50.663  89.085  39.073  1.00  0.00     0.208 C
ENDROOT
BRANCH   1   7
HETATM    7  O3  UNL     1      50.301  88.983  36.670  1.00  0.00    -0.312 OA
BRANCH   7   8
HETATM    8  C5  UNL     1      49.540  90.098  36.452  1.00  0.00     0.143 A
HETATM    9  C4  UNL     1      48.176  89.984  36.537  1.00  0.00     0.104 A
HETATM   10  C3  UNL     1      47.356  91.075  36.326  1.00  0.00     0.079 A
HETATM   11  C2  UNL     1      47.881  92.282  36.030  1.00  0.00     0.108 A
HETATM   12  C13 UNL     1      49.271  92.469  35.927  1.00  0.00     0.160 A
HETATM   13  C12 UNL     1      50.054  91.361  36.144  1.00  0.00     0.165 A
BRANCH   9  14
HETATM   14  O2  UNL     1      47.567  88.768  36.841  1.00  0.00    -0.358 OA
ATOM     15  H2  UNL     1      46.633  88.691  36.683  1.00  0.00     0.217 HD
ENDBRANCH   9  14
BRANCH  11  16
HETATM   16  O1  UNL     1      47.042  93.365  35.820  1.00  0.00    -0.353 OA
HETATM   17  C1  UNL     1      45.653  93.319  36.045  1.00  0.00     0.210 C
ENDBRANCH  11  16
BRANCH  12  18
HETATM   18  O21 UNL     1      49.714  93.726  35.617  1.00  0.00    -0.227 OA
BRANCH  18  19
HETATM   19  S4  UNL     1      50.433  94.875  36.584  1.00  0.00     0.266 S
HETATM   20  C14 UNL     1      49.342  96.000  37.373  1.00  0.00     0.194 C
HETATM   21  O22 UNL     1      51.278  94.208  37.659  1.00  0.00    -0.199 OA
HETATM   22  O23 UNL     1      51.441  95.715  35.800  1.00  0.00    -0.199 OA
ENDBRANCH  18  19
ENDBRANCH  12  18
BRANCH  13  23
HETATM   23  O17 UNL     1      51.429  91.427  36.065  1.00  0.00    -0.208 OA
BRANCH  23  24
HETATM   24  S3  UNL     1      52.378  91.394  34.688  1.00  0.00     0.257 S
HETATM   25  O18 UNL     1      53.201  90.180  34.497  1.00  0.00    -0.572 OA
HETATM   26  O19 UNL     1      51.498  91.648  33.484  1.00  0.00    -0.572 OA
HETATM   27  O20 UNL     1      53.499  92.677  34.837  1.00  0.00    -0.572 OA
ENDBRANCH  23  24
ENDBRANCH  13  23
ENDBRANCH   7   8
ENDBRANCH   1   7
BRANCH   6  28
HETATM   28  O16 UNL     1      49.547  89.374  39.897  1.00  0.00    -0.388 OA
ATOM     29  H16 UNL     1      49.693  90.113  40.476  1.00  0.00     0.210 HD
ENDBRANCH   6  28
BRANCH   3  30
HETATM   30  O5  UNL     1      53.165  87.448  38.187  1.00  0.00    -0.220 OA
BRANCH  30  31
HETATM   31  S1  UNL     1      54.480  86.505  37.818  1.00  0.00     0.254 S
HETATM   32  O6  UNL     1      54.049  85.045  37.761  1.00  0.00    -0.572 OA
HETATM   33  O7  UNL     1      55.469  86.611  38.953  1.00  0.00    -0.572 OA
HETATM   34  O8  UNL     1      55.208  86.897  36.370  1.00  0.00    -0.572 OA
ENDBRANCH  30  31
ENDBRANCH   3  30
BRANCH   5  35
HETATM   35  O12 UNL     1      51.517  89.032  41.287  1.00  0.00    -0.245 OA
BRANCH  35  36
HETATM   36  S2  UNL     1      52.493  90.337  41.671  1.00  0.00     0.252 S
HETATM   37  O13 UNL     1      52.264  90.848  43.044  1.00  0.00    -0.572 OA
HETATM   38  O14 UNL     1      52.325  91.465  40.700  1.00  0.00    -0.572 OA
HETATM   39  O15 UNL     1      54.093  89.795  41.585  1.00  0.00    -0.572 OA
ENDBRANCH  35  36
ENDBRANCH   5  35
BRANCH   4  40
HETATM   40  O9  UNL     1      50.193  86.746  39.970  1.00  0.00    -0.373 OA
ATOM     41  H9  UNL     1      50.124  85.825  39.746  1.00  0.00     0.211 HD
ENDBRANCH   4  40
BRANCH   4  42
HETATM   42  C9  UNL     1      52.313  86.311  40.957  1.00  0.00     0.217 C
HETATM   43  O10 UNL     1      51.860  85.252  41.431  1.00  0.00    -0.645 OA
HETATM   44  O11 UNL     1      53.519  86.784  41.419  1.00  0.00    -0.645 OA
ENDBRANCH   4  42
TORSDOF 15
ENDMDL