MODEL 3
REMARK VINA RESULT: -7.266633022      3.831      7.865
REMARK  4 active torsions:
REMARK  status: ('A' for Active; 'I' for Inactive)
REMARK    1  A    between atoms: C2_2  and  C3_3
REMARK    2  A    between atoms: C2_2  and  C8_12
REMARK    3  A    between atoms: C3_3  and  N1_4
REMARK    4  A    between atoms: C15_19  and  O1_20
ROOT
HETATM    1  C8  UNL     1      34.410  27.949  21.061  1.00  0.00    -0.008 C
HETATM    2  C9  UNL     1      33.440  27.045  20.383  1.00  0.00     0.005 C
HETATM    3  C10 UNL     1      33.769  25.644  20.976  1.00  0.00     0.006 C
HETATM    4  C11 UNL     1      35.060  25.271  20.270  1.00  0.00    -0.002 C
HETATM    5  C12 UNL     1      35.382  23.818  20.416  1.00  0.00    -0.003 C
HETATM    6  C13 UNL     1      34.332  23.180  21.313  1.00  0.00     0.008 C
HETATM    7  C14 UNL     1      34.934  21.842  21.616  1.00  0.00     0.032 C
HETATM    8  C15 UNL     1      36.415  22.072  21.644  1.00  0.00     0.122 C
HETATM    9  C16 UNL     1      36.650  23.471  21.089  1.00  0.00     0.019 C
HETATM   10  C17 UNL     1      36.921  24.457  22.188  1.00  0.00     0.008 C
HETATM   11  C18 UNL     1      37.163  25.789  21.583  1.00  0.00     0.010 C
HETATM   12  C19 UNL     1      36.192  26.206  20.509  1.00  0.00    -0.040 C
HETATM   13  C20 UNL     1      37.018  26.154  19.200  1.00  0.00     0.015 C
HETATM   14  C21 UNL     1      35.837  27.639  20.727  1.00  0.00     0.014 C
ENDROOT
BRANCH   1  15
HETATM   15  C2  UNL     1      34.160  29.432  20.711  1.00  0.00     0.014 C
HETATM   16  C1  UNL     1      35.478  30.150  20.575  1.00  0.00     0.012 C
BRANCH  15  17
HETATM   17  C3  UNL     1      33.308  29.538  19.494  1.00  0.00     0.277 C
BRANCH  17  18
HETATM   18  N1  UNL     1      32.142  30.302  19.559  1.00  0.00     0.092 N
HETATM   19  C4  UNL     1      32.181  31.704  19.578  1.00  0.00     0.300 C
HETATM   20  C5  UNL     1      31.248  32.335  18.543  1.00  0.00     0.262 C
HETATM   21  N2  UNL     1      29.913  31.839  18.719  1.00  0.00    -0.072 N
HETATM   22  C6  UNL     1      29.843  30.409  18.824  1.00  0.00     0.262 C
ATOM     23  H22 UNL     1      29.466  32.282  19.523  1.00  0.00     0.277 HD
ATOM     24  H21 UNL     1      29.301  32.176  17.977  1.00  0.00     0.277 HD
HETATM   25  C7  UNL     1      31.212  29.835  18.551  1.00  0.00     0.300 C
ENDBRANCH  17  18
ENDBRANCH  15  17
ENDBRANCH   1  15
BRANCH   8  26
HETATM   26  O1  UNL     1      36.850  21.972  22.962  1.00  0.00    -0.395 OA
ATOM     27  H1  UNL     1      37.525  21.304  23.005  1.00  0.00     0.210 HD
ENDBRANCH   8  26
TORSDOF 4
ENDMDL