MODEL 1
REMARK VINA RESULT: -7.911605723      0.000      0.000
REMARK  5 active torsions:
REMARK  status: ('A' for Active; 'I' for Inactive)
REMARK    1  A    between atoms: C2_2  and  C3_3
REMARK    2  A    between atoms: C3_3  and  C4_4
REMARK    3  A    between atoms: C4_4  and  O1_6
REMARK    4  A    between atoms: C4_4  and  C6_8
REMARK    5  A    between atoms: C11_13  and  O2_14
ROOT
HETATM    1  C6  UNL     1      35.815  24.364  21.533  1.00  0.00     0.028 C
HETATM    2  C7  UNL     1      34.311  24.256  21.446  1.00  0.00     0.009 C
HETATM    3  C8  UNL     1      33.895  25.593  20.935  1.00  0.00     0.006 C
HETATM    4  C9  UNL     1      35.163  26.353  20.553  1.00  0.00     0.001 C
HETATM    5  C10 UNL     1      35.490  27.282  21.621  1.00  0.00     0.028 C
HETATM    6  C11 UNL     1      34.680  28.578  21.459  1.00  0.00     0.124 C
HETATM    7  C12 UNL     1      35.911  29.330  21.827  1.00  0.00     0.042 C
HETATM    8  C13 UNL     1      36.716  28.041  21.628  1.00  0.00    -0.021 C
HETATM    9  C14 UNL     1      37.632  27.887  22.839  1.00  0.00     0.088 C
HETATM   10  C15 UNL     1      38.853  28.566  22.404  1.00  0.00     0.128 C
HETATM   11  O3  UNL     1      39.636  29.203  23.107  1.00  0.00    -0.298 OA
HETATM   12  C16 UNL     1      38.978  28.342  20.945  1.00  0.00     0.083 C
HETATM   13  C17 UNL     1      37.550  28.135  20.431  1.00  0.00     0.002 C
HETATM   14  C18 UNL     1      37.569  26.979  19.509  1.00  0.00     0.006 C
HETATM   15  C19 UNL     1      37.546  25.645  20.224  1.00  0.00     0.010 C
HETATM   16  C20 UNL     1      36.137  25.203  20.344  1.00  0.00    -0.034 C
HETATM   17  C21 UNL     1      35.725  24.580  19.019  1.00  0.00     0.016 C
ENDROOT
BRANCH   1  18
HETATM   18  C4  UNL     1      36.522  23.102  21.701  1.00  0.00     0.061 C
HETATM   19  C5  UNL     1      37.493  22.721  20.622  1.00  0.00     0.046 C
BRANCH  18  20
HETATM   20  C3  UNL     1      35.496  21.965  21.756  1.00  0.00     0.064 C
BRANCH  20  21
HETATM   21  C2  UNL     1      35.582  21.039  20.626  1.00  0.00    -0.034 C
HETATM   22  C1  UNL     1      34.819  19.960  20.595  1.00  0.00     0.007 C
ENDBRANCH  20  21
ENDBRANCH  18  20
BRANCH  18  23
HETATM   23  O1  UNL     1      37.194  23.072  22.911  1.00  0.00    -0.390 OA
ATOM     24  H1  UNL     1      36.902  23.836  23.394  1.00  0.00     0.210 HD
ENDBRANCH  18  23
ENDBRANCH   1  18
BRANCH   6  25
HETATM   25  O2  UNL     1      33.592  28.684  22.289  1.00  0.00    -0.395 OA
ATOM     26  H2  UNL     1      33.132  29.514  22.237  1.00  0.00     0.210 HD
ENDBRANCH   6  25
TORSDOF 5
ENDMDL