MODEL 3
REMARK VINA RESULT: -6.710269944      2.593      4.957
REMARK  4 active torsions:
REMARK  status: ('A' for Active; 'I' for Inactive)
REMARK    1  A    between atoms: C2_2  and  C3_3
REMARK    2  A    between atoms: C3_3  and  C4_4
REMARK    3  A    between atoms: C4_4  and  C5_5
REMARK    4  A    between atoms: C13_14  and  O2_15
ROOT
HETATM    1  C3  UNL     1      35.983  25.361  20.934  1.00  0.00    -0.017 C
HETATM    2  C8  UNL     1      34.607  25.199  21.519  1.00  0.00     0.021 C
HETATM    3  C9  UNL     1      34.207  26.140  22.582  1.00  0.00     0.080 C
HETATM    4  C10 UNL     1      35.165  27.218  22.853  1.00  0.00     0.138 C
HETATM    5  O1  UNL     1      35.078  27.813  23.912  1.00  0.00    -0.297 OA
HETATM    6  C11 UNL     1      36.239  27.644  21.933  1.00  0.00     0.050 C
HETATM    7  C12 UNL     1      37.483  27.856  22.769  1.00  0.00     0.027 C
HETATM    8  C13 UNL     1      35.771  28.998  21.365  1.00  0.00     0.157 C
HETATM    9  C14 UNL     1      36.468  28.964  20.066  1.00  0.00     0.122 C
HETATM   10  N1  UNL     1      36.136  29.973  19.127  1.00  0.00    -0.353 N
ATOM     11  H1  UNL     1      35.534  30.762  19.362  1.00  0.00     0.163 HD
HETATM   12  C15 UNL     1      36.703  29.805  17.830  1.00  0.00     0.218 C
HETATM   13  O3  UNL     1      36.870  30.761  17.022  1.00  0.00    -0.274 OA
HETATM   14  C16 UNL     1      37.110  28.479  17.408  1.00  0.00     0.103 C
HETATM   15  C17 UNL     1      37.087  27.378  18.390  1.00  0.00     0.021 C
HETATM   16  C18 UNL     1      36.127  27.538  19.552  1.00  0.00    -0.015 C
HETATM   17  C19 UNL     1      34.757  27.575  19.020  1.00  0.00     0.018 C
HETATM   18  C20 UNL     1      36.454  26.769  20.745  1.00  0.00     0.026 C
ENDROOT
BRANCH   1  19
HETATM   19  C2  UNL     1      36.947  24.772  21.903  1.00  0.00    -0.027 C
HETATM   20  C1  UNL     1      37.145  23.521  22.181  1.00  0.00     0.008 C
ENDBRANCH   1  19
BRANCH   1  21
HETATM   21  C4  UNL     1      36.047  24.585  19.679  1.00  0.00     0.017 C
BRANCH  21  22
HETATM   22  C5  UNL     1      34.851  23.800  19.243  1.00  0.00    -0.022 C
HETATM   23  C6  UNL     1      34.602  24.108  17.725  1.00  0.00     0.009 C
HETATM   24  C7  UNL     1      34.955  22.308  19.279  1.00  0.00     0.009 C
ENDBRANCH  21  22
ENDBRANCH   1  21
BRANCH   8  25
HETATM   25  O2  UNL     1      36.200  30.040  22.195  1.00  0.00    -0.392 OA
ATOM     26  H2  UNL     1      36.524  30.762  21.670  1.00  0.00     0.210 HD
ENDBRANCH   8  25
TORSDOF 4
ENDMDL