MODEL 2
REMARK VINA RESULT: -7.090333370      0.979      1.074
REMARK  5 active torsions:
REMARK  status: ('A' for Active; 'I' for Inactive)
REMARK    1  A    between atoms: C2_2  and  C4_4
REMARK    2  A    between atoms: C8_9  and  C9_10
REMARK    3  A    between atoms: C10_11  and  C11_12
REMARK    4  A    between atoms: C12_13  and  O2_14
REMARK    5  A    between atoms: C13_16  and  O3_17
ROOT
HETATM    1  C11 UNL     1      35.527  24.391  20.720  1.00  0.00     0.045 C
HETATM    2  C12 UNL     1      36.694  24.254  21.677  1.00  0.00     0.155 C
HETATM    3  C13 UNL     1      36.839  22.785  21.992  1.00  0.00     0.156 C
HETATM    4  C14 UNL     1      35.843  22.034  21.174  1.00  0.00    -0.010 C
HETATM    5  C15 UNL     1      34.904  21.138  21.952  1.00  0.00     0.018 C
HETATM    6  C16 UNL     1      36.412  21.323  19.963  1.00  0.00     0.021 C
HETATM    7  C17 UNL     1      35.892  22.462  19.083  1.00  0.00    -0.042 C
HETATM    8  C18 UNL     1      36.989  23.228  18.456  1.00  0.00     0.015 C
HETATM    9  C19 UNL     1      34.987  21.856  18.002  1.00  0.00     0.015 C
HETATM   10  C20 UNL     1      35.189  23.007  20.254  1.00  0.00     0.014 C
ENDROOT
BRANCH   1  11
HETATM   11  C10 UNL     1      34.374  24.880  21.528  1.00  0.00    -0.021 C
HETATM   12  C9  UNL     1      33.746  26.029  21.316  1.00  0.00     0.002 C
BRANCH  12  13
HETATM   13  C8  UNL     1      34.177  26.908  20.230  1.00  0.00     0.148 C
HETATM   14  O1  UNL     1      33.075  27.692  19.811  1.00  0.00    -0.381 OA
HETATM   15  C7  UNL     1      32.939  28.637  20.834  1.00  0.00     0.173 C
HETATM   16  C6  UNL     1      34.347  29.108  21.137  1.00  0.00     0.017 C
HETATM   17  C5  UNL     1      34.850  28.800  22.531  1.00  0.00     0.012 C
HETATM   18  C21 UNL     1      35.163  27.960  20.597  1.00  0.00     0.029 C
HETATM   19  C4  UNL     1      35.863  27.877  21.907  1.00  0.00    -0.004 C
BRANCH  19  20
HETATM   20  C2  UNL     1      37.208  28.617  21.802  1.00  0.00    -0.018 C
HETATM   21  C1  UNL     1      38.098  28.359  22.965  1.00  0.00     0.010 C
HETATM   22  C3  UNL     1      37.915  28.254  20.526  1.00  0.00     0.010 C
ENDBRANCH  19  20
ENDBRANCH  12  13
ENDBRANCH   1  11
BRANCH   2  23
HETATM   23  O2  UNL     1      37.866  24.794  21.177  1.00  0.00    -0.392 OA
ATOM     24  H2  UNL     1      37.787  25.072  20.272  1.00  0.00     0.210 HD
ENDBRANCH   2  23
BRANCH   3  25
HETATM   25  O3  UNL     1      38.159  22.356  21.767  1.00  0.00    -0.392 OA
ATOM     26  H3  UNL     1      38.468  22.649  20.918  1.00  0.00     0.210 HD
ENDBRANCH   3  25
TORSDOF 5
ENDMDL