MODEL 3
REMARK VINA RESULT: -7.541431498      1.187      1.573
REMARK  5 active torsions:
REMARK  status: ('A' for Active; 'I' for Inactive)
REMARK    1  A    between atoms: C2_2  and  C4_4
REMARK    2  A    between atoms: C4_4  and  N1_5
REMARK    3  A    between atoms: C7_8  and  C9_10
REMARK    4  A    between atoms: C14_15  and  O1_16
REMARK    5  A    between atoms: C14_15  and  O2_18
ROOT
HETATM    1  C9  UNL     1      34.601  26.722  21.484  1.00  0.00     0.018 C
HETATM    2  C10 UNL     1      35.988  26.536  21.991  1.00  0.00    -0.025 C
HETATM    3  C11 UNL     1      36.766  25.457  22.060  1.00  0.00    -0.025 C
HETATM    4  C12 UNL     1      36.469  24.048  21.634  1.00  0.00     0.018 C
HETATM    5  C13 UNL     1      37.673  23.564  20.852  1.00  0.00     0.077 C
HETATM    6  C14 UNL     1      37.101  22.766  19.701  1.00  0.00     0.167 C
HETATM    7  C15 UNL     1      35.696  23.209  19.487  1.00  0.00     0.017 C
HETATM    8  C16 UNL     1      34.687  22.112  19.238  1.00  0.00     0.021 C
HETATM    9  C17 UNL     1      35.464  24.390  18.592  1.00  0.00     0.020 C
HETATM   10  C18 UNL     1      35.561  25.292  19.771  1.00  0.00    -0.007 C
HETATM   11  C19 UNL     1      34.419  26.204  20.069  1.00  0.00     0.014 C
HETATM   12  C20 UNL     1      35.345  24.056  20.657  1.00  0.00     0.011 C
ENDROOT
BRANCH   1  13
HETATM   13  C7  UNL     1      34.325  28.208  21.470  1.00  0.00    -0.009 C
HETATM   14  C6  UNL     1      35.547  29.030  21.116  1.00  0.00     0.041 C
HETATM   15  C5  UNL     1      34.857  30.316  20.640  1.00  0.00     0.273 C
HETATM   16  N1  UNL     1      33.735  29.854  19.873  1.00  0.00     0.089 N
HETATM   17  C21 UNL     1      33.402  28.514  20.337  1.00  0.00     0.282 C
HETATM   18  C8  UNL     1      33.814  28.635  22.819  1.00  0.00     0.018 C
BRANCH  16  19
HETATM   19  C4  UNL     1      32.559  30.658  20.006  1.00  0.00     0.276 C
BRANCH  19  20
HETATM   20  C2  UNL     1      32.440  31.766  19.009  1.00  0.00     0.006 C
HETATM   21  C1  UNL     1      32.978  31.409  17.652  1.00  0.00     0.011 C
HETATM   22  C3  UNL     1      30.941  32.052  18.848  1.00  0.00     0.011 C
ENDBRANCH  19  20
ENDBRANCH  16  19
ENDBRANCH   1  13
BRANCH   6  23
HETATM   23  O1  UNL     1      37.899  22.852  18.558  1.00  0.00    -0.365 OA
ATOM     24  H1  UNL     1      38.759  22.473  18.697  1.00  0.00     0.213 HD
ENDBRANCH   6  23
BRANCH   6  25
HETATM   25  O2  UNL     1      37.049  21.425  20.148  1.00  0.00    -0.365 OA
ATOM     26  H2  UNL     1      36.666  21.454  21.017  1.00  0.00     0.213 HD
ENDBRANCH   6  25
TORSDOF 5
ENDMDL