MODEL 4
REMARK VINA RESULT: -7.239848049      1.893      2.740
REMARK  3 active torsions:
REMARK  status: ('A' for Active; 'I' for Inactive)
REMARK    1  A    between atoms: C2_3  and  C3_4
REMARK       I    between atoms: C3_4  and  N2_6
REMARK    2  A    between atoms: N2_6  and  C4_8
REMARK    3  A    between atoms: C14_18  and  N3_19
ROOT
HETATM    1  N1  UNL     1      37.069  27.453  18.936  1.00  0.00    -0.196 NA
HETATM    2  C1  UNL     1      36.585  27.375  19.997  1.00  0.00     0.081 C
HETATM    3  C2  UNL     1      35.998  27.258  21.330  1.00  0.00     0.149 C
HETATM    4  C11 UNL     1      37.101  27.339  22.393  1.00  0.00     0.037 C
HETATM    5  C12 UNL     1      36.758  28.477  23.299  1.00  0.00     0.004 C
HETATM    6  C13 UNL     1      35.269  28.678  23.109  1.00  0.00     0.027 C
HETATM    7  C14 UNL     1      35.165  28.489  21.585  1.00  0.00     0.114 C
ENDROOT
BRANCH   3   8
HETATM    8  C3  UNL     1      35.272  26.007  21.541  1.00  0.00     0.243 C
HETATM    9  O1  UNL     1      34.489  25.904  22.517  1.00  0.00    -0.271 OA
HETATM   10  N2  UNL     1      35.416  24.888  20.679  1.00  0.00    -0.355 N
ATOM     11  H2  UNL     1      36.051  24.967  19.885  1.00  0.00     0.162 HD
BRANCH  10  12
HETATM   12  C4  UNL     1      34.708  23.645  20.872  1.00  0.00     0.084 C
HETATM   13  C5  UNL     1      35.605  22.640  21.558  1.00  0.00     0.025 C
HETATM   14  C6  UNL     1      34.939  21.300  21.633  1.00  0.00     0.002 C
HETATM   15  C7  UNL     1      35.345  20.363  20.539  1.00  0.00     0.000 C
HETATM   16  C8  UNL     1      34.788  20.722  19.191  1.00  0.00     0.000 C
HETATM   17  C9  UNL     1      35.053  22.179  18.865  1.00  0.00     0.002 C
HETATM   18  C10 UNL     1      34.125  23.095  19.592  1.00  0.00     0.025 C
ENDBRANCH  10  12
ENDBRANCH   3   8
BRANCH   7  19
HETATM   19  N3  UNL     1      33.840  28.418  21.147  1.00  0.00    -0.373 N
HETATM   20  C15 UNL     1      33.315  29.169  20.272  1.00  0.00     0.073 C
HETATM   21  C16 UNL     1      33.934  30.260  19.525  1.00  0.00     0.076 C
HETATM   22  N4  UNL     1      31.907  28.942  19.939  1.00  0.00    -0.380 N
HETATM   23  C17 UNL     1      33.087  31.511  19.459  1.00  0.00     0.009 C
HETATM   24  C18 UNL     1      31.623  31.270  19.564  1.00  0.00     0.020 C
HETATM   25  C19 UNL     1      31.354  29.877  18.979  1.00  0.00     0.121 C
ATOM     26  H4  UNL     1      31.359  28.186  20.349  1.00  0.00     0.160 HD
ATOM     27  H3  UNL     1      33.246  27.703  21.567  1.00  0.00     0.161 HD
ENDBRANCH   7  19
TORSDOF 3
ENDMDL