MODEL 5
REMARK VINA RESULT: -7.318742285      2.587      6.121
REMARK  4 active torsions:
REMARK  status: ('A' for Active; 'I' for Inactive)
REMARK    1  A    between atoms: C15_15  and  C16_16
REMARK    2  A    between atoms: C16_16  and  C17_18
REMARK    3  A    between atoms: C17_18  and  O2_19
REMARK    4  A    between atoms: C20_23  and  O3_25
ROOT
HETATM    1  C1  UNL     1      33.376  31.197  17.760  1.00  0.00     0.010 C
HETATM    2  C2  UNL     1      33.325  31.389  19.226  1.00  0.00    -0.014 C
HETATM    3  C3  UNL     1      31.897  31.592  19.695  1.00  0.00     0.005 C
HETATM    4  C4  UNL     1      31.479  30.539  20.706  1.00  0.00     0.001 C
HETATM    5  C5  UNL     1      31.917  29.205  20.081  1.00  0.00     0.008 C
HETATM    6  C6  UNL     1      33.424  29.093  20.277  1.00  0.00     0.024 C
HETATM    7  C7  UNL     1      34.062  30.375  20.066  1.00  0.00    -0.004 C
HETATM    8  C8  UNL     1      35.514  30.394  19.665  1.00  0.00     0.006 C
HETATM    9  C9  UNL     1      36.411  29.719  20.663  1.00  0.00     0.006 C
HETATM   10  C10 UNL     1      36.004  28.318  21.000  1.00  0.00    -0.003 C
HETATM   11  C11 UNL     1      37.224  27.470  21.398  1.00  0.00    -0.009 C
HETATM   12  C12 UNL     1      38.045  27.072  20.222  1.00  0.00     0.005 C
HETATM   13  C13 UNL     1      37.287  26.286  19.171  1.00  0.00     0.006 C
HETATM   14  C14 UNL     1      35.842  26.186  19.732  1.00  0.00     0.004 C
HETATM   15  C15 UNL     1      36.016  25.431  21.000  1.00  0.00     0.062 C
HETATM   16  C18 UNL     1      36.614  26.288  22.128  1.00  0.00     0.017 C
HETATM   17  C19 UNL     1      35.389  27.614  19.826  1.00  0.00     0.029 C
HETATM   18  C20 UNL     1      33.940  27.861  19.606  1.00  0.00     0.062 C
HETATM   19  C21 UNL     1      33.678  27.791  18.117  1.00  0.00     0.046 C
ENDROOT
BRANCH  15  20
HETATM   20  C16 UNL     1      34.909  24.603  21.464  1.00  0.00     0.154 C
HETATM   21  O1  UNL     1      34.125  25.048  22.280  1.00  0.00    -0.295 OA
BRANCH  20  22
HETATM   22  C17 UNL     1      34.733  23.230  20.954  1.00  0.00     0.242 C
BRANCH  22  23
HETATM   23  O2  UNL     1      34.961  22.256  21.919  1.00  0.00    -0.394 OA
ATOM     24  H2  UNL     1      34.489  21.449  21.752  1.00  0.00     0.209 HD
ENDBRANCH  22  23
ENDBRANCH  20  22
ENDBRANCH  15  20
BRANCH  18  25
HETATM   25  O3  UNL     1      33.111  26.822  20.111  1.00  0.00    -0.389 OA
ATOM     26  H3  UNL     1      33.189  26.904  21.054  1.00  0.00     0.210 HD
ENDBRANCH  18  25
TORSDOF 4
ENDMDL