MODEL 3
REMARK VINA RESULT: -6.364074095      1.384      1.505
REMARK  4 active torsions:
REMARK  status: ('A' for Active; 'I' for Inactive)
REMARK    1  A    between atoms: C7_7  and  N1_8
REMARK    2  A    between atoms: N1_8  and  C8_10
REMARK    3  A    between atoms: C8_10  and  C17_21
REMARK    4  A    between atoms: N2_11  and  C9_13
ROOT
HETATM    1  C8  UNL     1      34.643  27.316  20.401  1.00  0.00     0.108 C
HETATM    2  N2  UNL     1      34.390  26.226  19.903  1.00  0.00    -0.351 N
ATOM      3  H2  UNL     1      33.549  26.268  19.327  1.00  0.00     0.166 HD
ENDROOT
BRANCH   1   4
HETATM    4  N1  UNL     1      33.781  28.439  20.127  1.00  0.00    -0.372 N
ATOM      5  H1  UNL     1      33.447  29.007  20.905  1.00  0.00     0.161 HD
BRANCH   4   6
HETATM    6  C7  UNL     1      33.383  28.780  18.804  1.00  0.00     0.086 C
HETATM    7  C2  UNL     1      33.936  30.104  18.349  1.00  0.00     0.004 C
HETATM    8  C1  UNL     1      35.429  30.172  18.359  1.00  0.00     0.012 C
HETATM    9  C3  UNL     1      33.389  31.256  19.157  1.00  0.00     0.006 C
HETATM   10  C4  UNL     1      32.222  30.869  20.033  1.00  0.00     0.001 C
HETATM   11  C5  UNL     1      31.249  29.953  19.352  1.00  0.00     0.002 C
HETATM   12  C6  UNL     1      31.887  28.839  18.590  1.00  0.00     0.025 C
ENDBRANCH   4   6
ENDBRANCH   1   4
BRANCH   1  13
HETATM   13  C17 UNL     1      35.787  27.597  21.283  1.00  0.00     0.214 C
HETATM   14  C18 UNL     1      35.709  28.972  21.917  1.00  0.00     0.272 C
HETATM   15  N3  UNL     1      36.574  28.964  23.077  1.00  0.00    -0.070 N
HETATM   16  C19 UNL     1      37.821  28.327  22.680  1.00  0.00     0.258 C
ATOM     17  H32 UNL     1      36.710  29.891  23.480  1.00  0.00     0.277 HD
ATOM     18  H31 UNL     1      36.145  28.528  23.893  1.00  0.00     0.277 HD
HETATM   19  C20 UNL     1      37.966  28.348  21.167  1.00  0.00     0.196 C
HETATM   20  O1  UNL     1      36.998  27.591  20.547  1.00  0.00    -0.375 OA
ENDBRANCH   1  13
BRANCH   2  21
HETATM   21  C9  UNL     1      34.946  24.918  19.910  1.00  0.00    -0.012 C
HETATM   22  C10 UNL     1      36.109  24.677  19.025  1.00  0.00     0.052 C
HETATM   23  C11 UNL     1      35.950  23.350  18.320  1.00  0.00     0.006 C
HETATM   24  C12 UNL     1      36.846  22.348  18.968  1.00  0.00     0.000 C
HETATM   25  C13 UNL     1      36.473  22.009  20.390  1.00  0.00     0.000 C
HETATM   26  C14 UNL     1      37.120  22.848  21.423  1.00  0.00     0.000 C
HETATM   27  C15 UNL     1      36.460  24.115  21.776  1.00  0.00     0.006 C
HETATM   28  C16 UNL     1      35.079  24.329  21.296  1.00  0.00     0.052 C
ENDBRANCH   2  21
TORSDOF 4
ENDMDL