MODEL 5
REMARK VINA RESULT: -6.663305178      1.739      2.574
REMARK  3 active torsions:
REMARK  status: ('A' for Active; 'I' for Inactive)
REMARK    1  A    between atoms: C2_2  and  C3_3
REMARK       I    between atoms: C3_3  and  N1_5
REMARK    2  A    between atoms: N1_5  and  C4_7
REMARK    3  A    between atoms: C7_10  and  N2_11
ROOT
HETATM    1  C3  UNL     1      36.343  25.177  21.253  1.00  0.00     0.226 C
HETATM    2  O1  UNL     1      37.501  24.725  21.530  1.00  0.00    -0.273 OA
HETATM    3  N1  UNL     1      35.453  24.213  20.699  1.00  0.00    -0.356 N
ATOM      4  H1  UNL     1      34.510  24.513  20.454  1.00  0.00     0.162 HD
ENDROOT
BRANCH   1   5
HETATM    5  C2  UNL     1      36.016  26.579  21.508  1.00  0.00     0.041 C
HETATM    6  C1  UNL     1      36.268  26.804  23.022  1.00  0.00     0.025 C
HETATM    7  C13 UNL     1      36.881  27.536  20.793  1.00  0.00     0.051 C
HETATM    8  C14 UNL     1      36.376  28.303  19.626  1.00  0.00     0.187 C
HETATM    9  C15 UNL     1      36.287  29.821  19.924  1.00  0.00     0.033 C
HETATM   10  N3  UNL     1      34.976  27.984  19.472  1.00  0.00    -0.067 N
HETATM   11  C16 UNL     1      35.008  30.435  19.483  1.00  0.00     0.002 C
HETATM   12  C17 UNL     1      33.843  30.425  20.386  1.00  0.00     0.002 C
HETATM   13  C18 UNL     1      33.275  29.018  20.681  1.00  0.00     0.033 C
HETATM   14  C19 UNL     1      34.455  28.186  20.819  1.00  0.00     0.187 C
HETATM   15  C20 UNL     1      34.495  26.835  21.378  1.00  0.00     0.051 C
ATOM     16  H32 UNL     1      34.495  28.510  18.743  1.00  0.00     0.278 HD
ATOM     17  H31 UNL     1      34.788  27.064  19.074  1.00  0.00     0.278 HD
ENDBRANCH   1   5
BRANCH   3  18
HETATM   18  C4  UNL     1      35.814  22.831  20.464  1.00  0.00     0.086 C
HETATM   19  C5  UNL     1      35.626  22.067  21.729  1.00  0.00     0.027 C
HETATM   20  C6  UNL     1      34.966  20.782  21.358  1.00  0.00     0.038 C
HETATM   21  C7  UNL     1      34.608  20.796  19.914  1.00  0.00     0.225 C
HETATM   22  C12 UNL     1      34.990  22.168  19.417  1.00  0.00     0.061 C
BRANCH  21  23
HETATM   23  N2  UNL     1      35.180  19.737  19.150  1.00  0.00     0.093 N
HETATM   24  C8  UNL     1      35.439  20.002  17.776  1.00  0.00     0.273 C
HETATM   25  C9  UNL     1      35.400  18.652  17.059  1.00  0.00     0.032 C
HETATM   26  C10 UNL     1      34.498  17.815  17.928  1.00  0.00     0.032 C
HETATM   27  C11 UNL     1      34.523  18.480  19.265  1.00  0.00     0.273 C
ENDBRANCH  21  23
ENDBRANCH   3  18
TORSDOF 3
ENDMDL