MODEL 3
REMARK VINA RESULT: -6.510986721      2.299      4.450
REMARK  4 active torsions:
REMARK  status: ('A' for Active; 'I' for Inactive)
REMARK    1  A    between atoms: C2_2  and  C3_3
REMARK    2  A    between atoms: C7_7  and  N1_8
REMARK    3  A    between atoms: C9_11  and  C10_12
REMARK    4  A    between atoms: C10_12  and  O1_13
ROOT
HETATM    1  C3  UNL     1      35.245  25.040  17.936  1.00  0.00     0.053 C
HETATM    2  C4  UNL     1      35.495  23.954  18.633  1.00  0.00    -0.024 C
HETATM    3  C5  UNL     1      34.980  22.637  18.274  1.00  0.00     0.008 C
HETATM    4  C6  UNL     1      34.912  21.686  19.188  1.00  0.00    -0.001 C
HETATM    5  C7  UNL     1      35.358  21.948  20.580  1.00  0.00     0.105 C
HETATM    6  C9  UNL     1      36.520  22.876  20.608  1.00  0.00     0.044 C
HETATM    7  C11 UNL     1      36.353  24.152  19.840  1.00  0.00     0.036 C
HETATM    8  C12 UNL     1      35.871  25.299  20.648  1.00  0.00     0.030 C
HETATM    9  C13 UNL     1      34.403  25.502  20.815  1.00  0.00     0.016 C
HETATM   10  C14 UNL     1      34.573  26.957  20.339  1.00  0.00     0.022 C
HETATM   11  C15 UNL     1      34.575  27.914  21.444  1.00  0.00     0.016 C
HETATM   12  C16 UNL     1      35.815  28.722  21.638  1.00  0.00    -0.047 C
HETATM   13  C17 UNL     1      35.835  29.172  23.100  1.00  0.00     0.015 C
HETATM   14  C18 UNL     1      35.828  29.955  20.790  1.00  0.00     0.015 C
HETATM   15  C19 UNL     1      37.080  27.950  21.401  1.00  0.00     0.012 C
HETATM   16  C20 UNL     1      37.054  27.388  20.027  1.00  0.00     0.040 C
HETATM   17  C21 UNL     1      35.864  26.532  19.752  1.00  0.00     0.075 C
HETATM   18  O2  UNL     1      35.798  26.228  18.385  1.00  0.00    -0.343 OA
ENDROOT
BRANCH   5  19
HETATM   19  N1  UNL     1      35.618  20.735  21.262  1.00  0.00    -0.418 N
HETATM   20  C8  UNL     1      34.889  19.575  20.910  1.00  0.00     0.140 C
ATOM     21  H1  UNL     1      36.322  20.698  21.998  1.00  0.00     0.153 HD
ENDBRANCH   5  19
BRANCH   6  22
HETATM   22  C10 UNL     1      36.899  23.185  22.045  1.00  0.00     0.171 C
BRANCH  22  23
HETATM   23  O1  UNL     1      38.261  23.306  22.229  1.00  0.00    -0.400 OA
ATOM     24  H1  UNL     1      38.596  22.732  22.908  1.00  0.00     0.209 HD
ENDBRANCH  22  23
ENDBRANCH   6  22
BRANCH   1  25
HETATM   25  C2  UNL     1      34.406  24.973  16.725  1.00  0.00     0.060 C
HETATM   26  C1  UNL     1      33.014  25.568  16.937  1.00  0.00     0.012 C
ENDBRANCH   1  25
TORSDOF 4
ENDMDL