MODEL 5
REMARK VINA RESULT: -6.449846152      2.545      8.218
REMARK  10 active torsions:
REMARK  status: ('A' for Active; 'I' for Inactive)
REMARK       I    between atoms: C2_2  and  N1_4
REMARK    1  A    between atoms: N1_4  and  C3_6
REMARK    2  A    between atoms: C6_9  and  C7_10
REMARK    3  A    between atoms: C8_14  and  O5_15
REMARK    4  A    between atoms: O5_15  and  C9_16
REMARK    5  A    between atoms: C9_16  and  C10_17
REMARK    6  A    between atoms: C14_21  and  O6_22
REMARK    7  A    between atoms: O6_22  and  C15_23
REMARK    8  A    between atoms: C18_27  and  O8_28
REMARK    9  A    between atoms: C19_30  and  O9_31
REMARK   10  A    between atoms: C20_33  and  O10_34
ROOT
HETATM    1  C10 UNL     1       6.688  28.298  35.667  1.00  0.00     0.148 C
HETATM    2  C11 UNL     1       5.351  28.780  36.171  1.00  0.00     0.034 C
HETATM    3  C12 UNL     1       4.259  28.009  35.449  1.00  0.00     0.007 C
HETATM    4  C13 UNL     1       4.505  28.231  33.951  1.00  0.00     0.061 C
HETATM    5  C14 UNL     1       5.872  27.641  33.663  1.00  0.00     0.263 C
HETATM    6  O11 UNL     1       6.810  28.445  34.306  1.00  0.00    -0.354 OA
ENDROOT
BRANCH   1   7
HETATM    7  C9  UNL     1       7.796  29.042  36.381  1.00  0.00     0.203 C
BRANCH   7   8
HETATM    8  O5  UNL     1       8.496  28.186  37.225  1.00  0.00    -0.357 OA
BRANCH   8   9
HETATM    9  C8  UNL     1       9.767  28.659  37.522  1.00  0.00     0.283 C
HETATM   10  C3  UNL     1       9.879  28.806  39.012  1.00  0.00     0.139 C
HETATM   11  C4  UNL     1      11.252  29.377  39.278  1.00  0.00     0.033 C
HETATM   12  C5  UNL     1      12.319  28.583  38.611  1.00  0.00     0.045 C
HETATM   13  C6  UNL     1      11.857  27.627  37.571  1.00  0.00     0.225 C
HETATM   14  O4  UNL     1      10.700  27.858  36.949  1.00  0.00    -0.343 OA
BRANCH  10  15
HETATM   15  N1  UNL     1       8.905  29.792  39.431  1.00  0.00    -0.352 N
HETATM   16  C2  UNL     1       7.810  29.472  40.274  1.00  0.00     0.214 C
HETATM   17  C1  UNL     1       6.823  30.491  40.693  1.00  0.00     0.117 C
HETATM   18  O1  UNL     1       7.626  28.294  40.709  1.00  0.00    -0.274 OA
ATOM     19  H1  UNL     1       9.010  30.753  39.107  1.00  0.00     0.163 HD
ENDBRANCH  10  15
BRANCH  13  20
HETATM   20  C7  UNL     1      12.939  27.477  36.571  1.00  0.00     0.203 C
HETATM   21  O2  UNL     1      13.338  28.498  35.963  1.00  0.00    -0.646 OA
HETATM   22  O3  UNL     1      13.547  26.271  36.257  1.00  0.00    -0.646 OA
ENDBRANCH  13  20
ENDBRANCH   8   9
ENDBRANCH   7   8
ENDBRANCH   1   7
BRANCH   5  23
HETATM   23  O6  UNL     1       5.908  26.389  34.266  1.00  0.00    -0.329 OA
BRANCH  23  24
HETATM   24  C15 UNL     1       6.665  25.467  33.557  1.00  0.00     0.294 C
HETATM   25  O7  UNL     1       5.934  24.655  32.734  1.00  0.00    -0.351 OA
HETATM   26  C16 UNL     1       6.097  23.308  32.932  1.00  0.00     0.152 C
HETATM   27  C17 UNL     1       5.391  22.598  31.772  1.00  0.00     0.042 C
HETATM   28  C18 UNL     1       7.542  22.863  32.940  1.00  0.00     0.178 C
HETATM   29  C19 UNL     1       8.382  23.669  33.877  1.00  0.00     0.183 C
HETATM   30  C20 UNL     1       7.545  24.743  34.527  1.00  0.00     0.204 C
BRANCH  28  31
HETATM   31  O8  UNL     1       8.102  22.930  31.665  1.00  0.00    -0.390 OA
ATOM     32  H8  UNL     1       7.468  22.704  30.995  1.00  0.00     0.210 HD
ENDBRANCH  28  31
BRANCH  29  33
HETATM   33  O9  UNL     1       9.516  24.195  33.263  1.00  0.00    -0.390 OA
ATOM     34  H9  UNL     1      10.284  24.161  33.822  1.00  0.00     0.210 HD
ENDBRANCH  29  33
BRANCH  30  35
HETATM   35  O10 UNL     1       8.329  25.679  35.182  1.00  0.00    -0.388 OA
ATOM     36  H10 UNL     1       9.060  25.224  35.585  1.00  0.00     0.210 HD
ENDBRANCH  30  35
ENDBRANCH  23  24
ENDBRANCH   5  23
TORSDOF 10
ENDMDL