MODEL 2
REMARK VINA RESULT: -5.332921574      4.598      6.820
REMARK  13 active torsions:
REMARK  status: ('A' for Active; 'I' for Inactive)
REMARK    1  A    between atoms: C2_2  and  C3_3
REMARK    2  A    between atoms: C3_3  and  O1_4
REMARK    3  A    between atoms: C3_3  and  C4_6
REMARK    4  A    between atoms: C3_3  and  C6_8
REMARK    5  A    between atoms: C6_8  and  O2_9
REMARK    6  A    between atoms: C8_12  and  C9_13
REMARK    7  A    between atoms: C9_13  and  O4_14
REMARK    8  A    between atoms: C11_17  and  O5_18
REMARK    9  A    between atoms: O5_18  and  C12_19
REMARK   10  A    between atoms: C13_21  and  C14_22
REMARK   11  A    between atoms: C14_22  and  O7_23
REMARK   12  A    between atoms: C15_25  and  O8_26
REMARK   13  A    between atoms: C21_34  and  O9_35
ROOT
HETATM    1  C12 UNL     1      10.170  23.204  32.547  1.00  0.00     0.266 C
HETATM    2  O6  UNL     1      11.059  24.037  31.923  1.00  0.00    -0.351 OA
HETATM    3  C13 UNL     1      12.323  23.592  31.748  1.00  0.00     0.178 C
HETATM    4  C15 UNL     1      12.372  22.278  31.035  1.00  0.00     0.167 C
HETATM    5  C16 UNL     1      11.367  21.271  31.470  1.00  0.00     0.132 C
HETATM    6  C17 UNL     1      11.979  20.325  32.430  1.00  0.00     0.067 C
HETATM    7  N1  UNL     1      12.451  19.566  33.173  1.00  0.00    -0.197 NA
HETATM    8  C18 UNL     1      10.068  21.829  31.967  1.00  0.00     0.057 C
HETATM    9  C19 UNL     1       9.023  21.758  30.848  1.00  0.00     0.016 C
ENDROOT
BRANCH   4  10
HETATM   10  O8  UNL     1      13.645  21.702  31.064  1.00  0.00    -0.392 OA
ATOM     11  H8  UNL     1      13.618  20.771  31.249  1.00  0.00     0.210 HD
ENDBRANCH   4  10
BRANCH   3  12
HETATM   12  C14 UNL     1      13.210  23.676  32.965  1.00  0.00     0.198 C
BRANCH  12  13
HETATM   13  O7  UNL     1      14.518  23.973  32.728  1.00  0.00    -0.398 OA
ATOM     14  H7  UNL     1      15.153  23.365  33.088  1.00  0.00     0.209 HD
ENDBRANCH  12  13
ENDBRANCH   3  12
BRANCH   1  15
HETATM   15  O5  UNL     1       8.914  23.802  32.408  1.00  0.00    -0.355 OA
BRANCH  15  16
HETATM   16  C11 UNL     1       8.547  24.545  33.519  1.00  0.00     0.134 C
HETATM   17  C10 UNL     1       7.046  24.477  33.640  1.00  0.00     0.058 C
HETATM   18  C8  UNL     1       6.685  24.158  35.068  1.00  0.00     0.156 C
HETATM   19  C22 UNL     1       6.493  25.820  33.415  1.00  0.00     0.089 C
HETATM   20  O3  UNL     1       5.622  24.992  35.380  1.00  0.00    -0.344 OA
HETATM   21  C6  UNL     1       5.880  26.225  34.826  1.00  0.00     0.202 C
HETATM   22  C21 UNL     1       7.590  26.725  33.005  1.00  0.00     0.130 C
HETATM   23  C20 UNL     1       8.875  26.000  33.381  1.00  0.00     0.065 C
BRANCH  18  24
HETATM   24  C9  UNL     1       6.231  22.716  35.112  1.00  0.00     0.196 C
BRANCH  24  25
HETATM   25  O4  UNL     1       7.207  21.883  35.653  1.00  0.00    -0.398 OA
ATOM     26  H4  UNL     1       6.848  21.300  36.311  1.00  0.00     0.209 HD
ENDBRANCH  24  25
ENDBRANCH  18  24
BRANCH  21  27
HETATM   27  C3  UNL     1       4.632  26.973  34.551  1.00  0.00     0.114 C
BRANCH  27  28
HETATM   28  C2  UNL     1       3.573  26.707  35.695  1.00  0.00     0.039 C
HETATM   29  C1  UNL     1       3.362  28.025  36.431  1.00  0.00     0.008 C
ENDBRANCH  27  28
BRANCH  27  30
HETATM   30  O1  UNL     1       4.755  28.375  34.680  1.00  0.00    -0.384 OA
ATOM     31  H1  UNL     1       5.061  28.581  33.805  1.00  0.00     0.210 HD
ENDBRANCH  27  30
BRANCH  27  32
HETATM   32  C4  UNL     1       3.885  26.661  33.314  1.00  0.00     0.039 C
HETATM   33  C5  UNL     1       2.665  25.813  33.394  1.00  0.00     0.008 C
ENDBRANCH  27  32
ENDBRANCH  21  27
BRANCH  21  34
HETATM   34  O2  UNL     1       6.872  26.852  35.451  1.00  0.00    -0.357 OA
HETATM   35  C7  UNL     1       7.075  27.040  36.736  1.00  0.00     0.205 C
ENDBRANCH  21  34
BRANCH  22  36
HETATM   36  O9  UNL     1       7.660  27.966  33.539  1.00  0.00    -0.395 OA
ATOM     37  H9  UNL     1       7.564  27.873  34.479  1.00  0.00     0.210 HD
ENDBRANCH  22  36
ENDBRANCH  15  16
ENDBRANCH   1  15
TORSDOF 13
ENDMDL