MODEL 1
REMARK VINA RESULT: -5.241925980      0.000      0.000
REMARK  15 active torsions:
REMARK  status: ('A' for Active; 'I' for Inactive)
REMARK    1  A    between atoms: O1_1  and  C1_3
REMARK    2  A    between atoms: C1_3  and  N1_4
REMARK    3  A    between atoms: C1_3  and  N2_13
REMARK    4  A    between atoms: C3_6  and  O2_7
REMARK    5  A    between atoms: C4_9  and  O3_10
REMARK    6  A    between atoms: C7_15  and  O4_16
REMARK    7  A    between atoms: C8_18  and  O5_19
REMARK    8  A    between atoms: C9_21  and  O6_22
REMARK    9  A    between atoms: C10_24  and  C11_25
REMARK   10  A    between atoms: C11_25  and  S1_26
REMARK   11  A    between atoms: S1_26  and  S2_27
REMARK   12  A    between atoms: S2_27  and  C12_28
REMARK   13  A    between atoms: C12_28  and  C13_29
REMARK   14  A    between atoms: C13_29  and  N3_30
REMARK   15  A    between atoms: N3_30  and  C14_33
ROOT
HETATM    1  N2  UNL     1      14.047  27.447  38.204  1.00  0.00    -0.337 N
HETATM    2  C6  UNL     1      13.189  27.979  37.212  1.00  0.00     0.161 C
HETATM    3  C7  UNL     1      11.752  28.205  37.658  1.00  0.00     0.167 C
HETATM    4  C8  UNL     1      11.520  27.481  38.970  1.00  0.00     0.179 C
HETATM    5  C9  UNL     1      12.530  27.985  39.998  1.00  0.00     0.173 C
HETATM    6  C10 UNL     1      13.931  27.627  39.670  1.00  0.00     0.129 C
ENDROOT
BRANCH   6   7
HETATM    7  C11 UNL     1      14.866  28.725  40.068  1.00  0.00     0.114 C
BRANCH   7   8
HETATM    8  S1  UNL     1      16.109  28.547  41.251  1.00  0.00    -0.096 SA
BRANCH   8   9
HETATM    9  S2  UNL     1      16.266  29.980  42.720  1.00  0.00    -0.096 SA
BRANCH   9  10
HETATM   10  C12 UNL     1      15.457  31.498  42.280  1.00  0.00     0.113 C
BRANCH  10  11
HETATM   11  C13 UNL     1      14.225  31.624  43.204  1.00  0.00     0.243 C
BRANCH  11  12
HETATM   12  N3  UNL     1      13.082  31.092  42.471  1.00  0.00    -0.068 N
ATOM     13  H32 UNL     1      12.874  31.639  41.635  1.00  0.00     0.277 HD
ATOM     14  H31 UNL     1      13.298  30.205  42.016  1.00  0.00     0.277 HD
BRANCH  12  15
HETATM   15  C14 UNL     1      11.952  30.990  43.340  1.00  0.00     0.211 C
HETATM   16  C15 UNL     1      10.725  31.529  42.625  1.00  0.00     0.061 C
HETATM   17  C16 UNL     1      10.047  32.306  43.708  1.00  0.00     0.169 C
HETATM   18  O7  UNL     1      10.935  32.572  44.714  1.00  0.00    -0.389 OA
HETATM   19  C17 UNL     1      12.117  31.907  44.513  1.00  0.00     0.200 C
ENDBRANCH  12  15
ENDBRANCH  11  12
ENDBRANCH  10  11
ENDBRANCH   9  10
ENDBRANCH   8   9
ENDBRANCH   7   8
ENDBRANCH   6   7
BRANCH   1  20
HETATM   20  C1  UNL     1      15.186  26.691  37.790  1.00  0.00     0.217 C
BRANCH  20  21
HETATM   21  O1  UNL     1      15.205  25.481  38.285  1.00  0.00    -0.332 OA
ATOM     22  H1  UNL     1      15.799  25.281  38.999  1.00  0.00     0.220 HD
ENDBRANCH  20  21
BRANCH  20  23
HETATM   23  N1  UNL     1      16.219  27.099  36.957  1.00  0.00    -0.343 N
HETATM   24  C2  UNL     1      15.972  28.265  36.022  1.00  0.00     0.160 C
HETATM   25  C3  UNL     1      17.310  28.891  35.809  1.00  0.00     0.166 C
HETATM   26  C4  UNL     1      18.225  28.121  36.735  1.00  0.00     0.166 C
HETATM   27  C5  UNL     1      17.563  26.728  36.625  1.00  0.00     0.160 C
BRANCH  25  28
HETATM   28  O2  UNL     1      17.781  28.647  34.502  1.00  0.00    -0.391 OA
ATOM     29  H2  UNL     1      18.466  29.261  34.266  1.00  0.00     0.210 HD
ENDBRANCH  25  28
BRANCH  26  30
HETATM   30  O3  UNL     1      18.057  28.643  38.011  1.00  0.00    -0.391 OA
ATOM     31  H3  UNL     1      18.556  28.097  38.607  1.00  0.00     0.210 HD
ENDBRANCH  26  30
ENDBRANCH  20  23
ENDBRANCH   1  20
BRANCH   5  32
HETATM   32  O6  UNL     1      12.438  29.377  40.024  1.00  0.00    -0.391 OA
ATOM     33  H6  UNL     1      12.967  29.682  40.752  1.00  0.00     0.210 HD
ENDBRANCH   5  32
BRANCH   4  34
HETATM   34  O5  UNL     1      11.655  26.115  38.827  1.00  0.00    -0.390 OA
ATOM     35  H5  UNL     1      11.897  25.699  39.646  1.00  0.00     0.210 HD
ENDBRANCH   4  34
BRANCH   3  36
HETATM   36  O4  UNL     1      11.545  29.566  37.834  1.00  0.00    -0.391 OA
ATOM     37  H4  UNL     1      10.649  29.775  37.595  1.00  0.00     0.210 HD
ENDBRANCH   3  36
TORSDOF 15
ENDMDL