MODEL 4
REMARK VINA RESULT: -5.969876892      2.399      8.685
REMARK  12 active torsions:
REMARK  status: ('A' for Active; 'I' for Inactive)
REMARK       I    between atoms: C2_2  and  N1_4
REMARK    1  A    between atoms: N1_4  and  C3_6
REMARK    2  A    between atoms: C4_7  and  S1_8
REMARK    3  A    between atoms: S1_8  and  C5_9
REMARK    4  A    between atoms: C6_11  and  C7_12
REMARK    5  A    between atoms: C7_12  and  S2_13
REMARK    6  A    between atoms: S2_13  and  C8_14
REMARK    7  A    between atoms: C8_14  and  C9_15
REMARK    8  A    between atoms: C9_15  and  C10_16
REMARK    9  A    between atoms: C11_19  and  O4_20
REMARK   10  A    between atoms: C12_22  and  O5_23
REMARK   11  A    between atoms: C14_27  and  O7_28
REMARK   12  A    between atoms: C15_30  and  O8_31
ROOT
HETATM    1  C3  UNL     1      14.915  27.666  37.727  1.00  0.00     0.130 C
HETATM    2  C4  UNL     1      14.838  26.811  38.978  1.00  0.00     0.209 C
HETATM    3  O6  UNL     1      16.025  26.085  38.824  1.00  0.00    -0.365 OA
HETATM    4  C13 UNL     1      17.014  27.086  38.646  1.00  0.00     0.160 C
HETATM    5  C14 UNL     1      18.286  26.510  38.206  1.00  0.00     0.176 C
HETATM    6  C15 UNL     1      18.722  26.780  36.815  1.00  0.00     0.149 C
HETATM    7  C16 UNL     1      18.435  28.201  36.408  1.00  0.00     0.035 C
HETATM    8  C17 UNL     1      16.943  28.402  36.495  1.00  0.00     0.012 C
HETATM    9  C18 UNL     1      16.376  28.132  37.837  1.00  0.00     0.043 C
ENDROOT
BRANCH   2  10
HETATM   10  S1  UNL     1      14.813  27.780  40.479  1.00  0.00    -0.101 SA
BRANCH  10  11
HETATM   11  C5  UNL     1      13.431  28.910  40.526  1.00  0.00     0.217 C
HETATM   12  O2  UNL     1      12.319  28.436  41.159  1.00  0.00    -0.364 OA
HETATM   13  C6  UNL     1      11.562  29.532  41.594  1.00  0.00     0.163 C
HETATM   14  C11 UNL     1      12.299  30.782  41.326  1.00  0.00     0.180 C
HETATM   15  C12 UNL     1      13.740  30.260  41.111  1.00  0.00     0.188 C
BRANCH  13  16
HETATM   16  C7  UNL     1      10.158  29.441  41.109  1.00  0.00     0.108 C
BRANCH  16  17
HETATM   17  S2  UNL     1       8.919  30.410  41.900  1.00  0.00    -0.166 SA
BRANCH  17  18
HETATM   18  C8  UNL     1       9.027  30.593  43.671  1.00  0.00     0.082 C
BRANCH  18  19
HETATM   19  C9  UNL     1       8.360  31.931  44.025  1.00  0.00     0.109 C
BRANCH  19  20
HETATM   20  C10 UNL     1       9.402  32.970  44.133  1.00  0.00     0.231 C
HETATM   21  N2  UNL     1      10.679  32.617  44.630  1.00  0.00    -0.062 NA
HETATM   22  O3  UNL     1       9.160  34.132  43.792  1.00  0.00    -0.277 OA
ENDBRANCH  19  20
ENDBRANCH  18  19
ENDBRANCH  17  18
ENDBRANCH  16  17
ENDBRANCH  13  16
BRANCH  14  23
HETATM   23  O4  UNL     1      12.294  31.601  42.466  1.00  0.00    -0.390 OA
ATOM     24  H4  UNL     1      11.403  31.844  42.690  1.00  0.00     0.210 HD
ENDBRANCH  14  23
BRANCH  15  25
HETATM   25  O5  UNL     1      14.378  31.123  40.250  1.00  0.00    -0.389 OA
ATOM     26  H5  UNL     1      14.584  31.973  40.623  1.00  0.00     0.210 HD
ENDBRANCH  15  25
ENDBRANCH  10  11
ENDBRANCH   2  10
BRANCH   1  27
HETATM   27  N1  UNL     1      14.670  26.951  36.523  1.00  0.00    -0.353 N
HETATM   28  C2  UNL     1      13.805  27.346  35.483  1.00  0.00     0.214 C
HETATM   29  C1  UNL     1      13.591  26.556  34.249  1.00  0.00     0.117 C
HETATM   30  O1  UNL     1      13.179  28.426  35.601  1.00  0.00    -0.274 OA
ATOM     31  H1  UNL     1      15.167  26.069  36.401  1.00  0.00     0.163 HD
ENDBRANCH   1  27
BRANCH   5  32
HETATM   32  O7  UNL     1      18.208  25.103  38.342  1.00  0.00    -0.390 OA
ATOM     33  H7  UNL     1      18.244  24.717  37.474  1.00  0.00     0.210 HD
ENDBRANCH   5  32
BRANCH   6  34
HETATM   34  O8  UNL     1      18.218  25.855  35.885  1.00  0.00    -0.393 OA
ATOM     35  H8  UNL     1      18.604  24.990  35.967  1.00  0.00     0.210 HD
ENDBRANCH   6  34
TORSDOF 12
ENDMDL