MODEL 3
REMARK VINA RESULT: -5.464551657      1.245      1.468
REMARK  13 active torsions:
REMARK  status: ('A' for Active; 'I' for Inactive)
REMARK    1  A    between atoms: N1_1  and  C1_5
REMARK    2  A    between atoms: C1_5  and  C2_6
REMARK    3  A    between atoms: C3_8  and  N2_9
REMARK       I    between atoms: N2_9  and  C4_11
REMARK    4  A    between atoms: C4_11  and  C5_13
REMARK    5  A    between atoms: C8_16  and  O3_17
REMARK    6  A    between atoms: O3_17  and  C9_18
REMARK    7  A    between atoms: C10_19  and  C11_20
REMARK    8  A    between atoms: C11_20  and  O4_21
REMARK    9  A    between atoms: C12_24  and  S1_25
REMARK   10  A    between atoms: S1_25  and  C13_26
REMARK   11  A    between atoms: C18_31  and  O6_32
REMARK   12  A    between atoms: C19_34  and  O7_35
REMARK   13  A    between atoms: C20_37  and  O8_38
ROOT
HETATM    1  C2  UNL     1      15.385  33.213  45.336  1.00  0.00     0.180 C
HETATM    2  O1  UNL     1      14.169  33.251  44.689  1.00  0.00    -0.354 OA
HETATM    3  C3  UNL     1      13.646  32.007  44.358  1.00  0.00     0.255 C
HETATM    4  C8  UNL     1      14.593  31.172  43.520  1.00  0.00     0.202 C
HETATM    5  C19 UNL     1      15.706  32.145  43.107  1.00  0.00     0.182 C
HETATM    6  C20 UNL     1      16.404  32.647  44.379  1.00  0.00     0.180 C
ENDROOT
BRANCH   4   7
HETATM    7  O3  UNL     1      13.886  30.714  42.444  1.00  0.00    -0.368 OA
BRANCH   7   8
HETATM    8  C9  UNL     1      13.634  29.391  42.359  1.00  0.00     0.185 C
HETATM    9  C10 UNL     1      12.274  28.921  42.093  1.00  0.00     0.178 C
HETATM   10  O5  UNL     1      12.334  27.849  41.205  1.00  0.00    -0.363 OA
HETATM   11  C12 UNL     1      13.476  27.965  40.464  1.00  0.00     0.215 C
HETATM   12  C18 UNL     1      14.461  28.834  41.207  1.00  0.00     0.188 C
BRANCH   9  13
HETATM   13  C11 UNL     1      11.602  28.368  43.341  1.00  0.00     0.198 C
BRANCH  13  14
HETATM   14  O4  UNL     1      12.282  28.674  44.497  1.00  0.00    -0.398 OA
ATOM     15  H4  UNL     1      12.530  29.590  44.550  1.00  0.00     0.209 HD
ENDBRANCH  13  14
ENDBRANCH   9  13
BRANCH  11  16
HETATM   16  S1  UNL     1      14.286  26.461  40.008  1.00  0.00    -0.130 SA
BRANCH  16  17
HETATM   17  C13 UNL     1      14.657  26.232  38.277  1.00  0.00     0.050 C
HETATM   18  C14 UNL     1      15.948  26.848  37.826  1.00  0.00     0.015 C
HETATM   19  C15 UNL     1      15.536  28.177  37.247  1.00  0.00     0.001 C
HETATM   20  C16 UNL     1      14.105  28.033  36.816  1.00  0.00     0.001 C
HETATM   21  C17 UNL     1      13.650  26.707  37.311  1.00  0.00     0.015 C
ENDBRANCH  16  17
ENDBRANCH  11  16
BRANCH  12  22
HETATM   22  O6  UNL     1      14.977  29.817  40.402  1.00  0.00    -0.389 OA
ATOM     23  H6  UNL     1      14.498  30.635  40.471  1.00  0.00     0.210 HD
ENDBRANCH  12  22
ENDBRANCH   7   8
ENDBRANCH   4   7
BRANCH   3  24
HETATM   24  N2  UNL     1      12.411  32.277  43.664  1.00  0.00    -0.332 N
HETATM   25  C4  UNL     1      11.174  31.950  44.256  1.00  0.00     0.223 C
HETATM   26  O2  UNL     1      11.158  31.422  45.386  1.00  0.00    -0.273 OA
ATOM     27  H2  UNL     1      12.433  32.708  42.740  1.00  0.00     0.165 HD
BRANCH  25  28
HETATM   28  C5  UNL     1       9.888  32.225  43.554  1.00  0.00     0.078 A
HETATM   29  C6  UNL     1       9.149  33.518  44.026  1.00  0.00     0.015 A
HETATM   30  C7  UNL     1       8.651  32.115  44.351  1.00  0.00     0.015 A
ENDBRANCH  25  28
ENDBRANCH   3  24
BRANCH   5  31
HETATM   31  O7  UNL     1      15.168  33.252  42.497  1.00  0.00    -0.390 OA
ATOM     32  H7  UNL     1      15.820  33.940  42.428  1.00  0.00     0.210 HD
ENDBRANCH   5  31
BRANCH   6  33
HETATM   33  O8  UNL     1      17.273  33.652  43.970  1.00  0.00    -0.390 OA
ATOM     34  H8  UNL     1      18.162  33.427  44.217  1.00  0.00     0.210 HD
ENDBRANCH   6  33
BRANCH   1  35
HETATM   35  C1  UNL     1      15.395  32.377  46.591  1.00  0.00     0.264 C
BRANCH  35  36
HETATM   36  N1  UNL     1      16.523  31.485  46.651  1.00  0.00    -0.077 N
ATOM     37  H13 UNL     1      16.615  30.950  45.788  1.00  0.00     0.274 HD
ATOM     38  H12 UNL     1      17.402  32.002  46.617  1.00  0.00     0.274 HD
ATOM     39  H11 UNL     1      16.492  30.868  47.463  1.00  0.00     0.274 HD
ENDBRANCH  35  36
ENDBRANCH   1  35
TORSDOF 13
ENDMDL