MODEL 4
REMARK VINA RESULT: -5.874349788      0.929      1.212
REMARK  11 active torsions:
REMARK  status: ('A' for Active; 'I' for Inactive)
REMARK    1  A    between atoms: C2_2  and  C3_3
REMARK    2  A    between atoms: C3_3  and  N1_4
REMARK    3  A    between atoms: C3_3  and  C11_17
REMARK       I    between atoms: N1_4  and  C4_6
REMARK    4  A    between atoms: C4_6  and  C5_8
REMARK    5  A    between atoms: N2_10  and  O2_12
REMARK    6  A    between atoms: O2_12  and  C7_13
REMARK       I    between atoms: C11_17  and  N3_19
REMARK    7  A    between atoms: N3_19  and  C12_21
REMARK    8  A    between atoms: C13_22  and  O4_23
REMARK    9  A    between atoms: C14_26  and  O6_27
REMARK   10  A    between atoms: C16_29  and  N4_30
REMARK       I    between atoms: N4_30  and  C17_32
REMARK   11  A    between atoms: C19_35  and  O8_36
ROOT
HETATM    1  C11 UNL     1      10.984  28.424  37.957  1.00  0.00     0.264 C
HETATM    2  O3  UNL     1      10.590  27.283  37.537  1.00  0.00    -0.266 OA
HETATM    3  N3  UNL     1      12.361  28.660  37.966  1.00  0.00    -0.344 N
ATOM      4  H3  UNL     1      12.671  29.573  38.300  1.00  0.00     0.163 HD
ENDROOT
BRANCH   3   5
HETATM    5  C12 UNL     1      13.374  27.748  37.554  1.00  0.00     0.170 C
HETATM    6  C13 UNL     1      13.726  27.757  36.106  1.00  0.00     0.285 C
HETATM    7  O5  UNL     1      14.945  28.348  35.810  1.00  0.00    -0.327 OA
HETATM    8  C14 UNL     1      16.039  27.642  36.357  1.00  0.00     0.287 C
HETATM    9  C16 UNL     1      15.661  26.984  37.638  1.00  0.00     0.170 C
HETATM   10  C19 UNL     1      14.677  27.917  38.348  1.00  0.00     0.173 C
BRANCH   6  11
HETATM   11  O4  UNL     1      13.586  26.491  35.521  1.00  0.00    -0.369 OA
ATOM     12  H4  UNL     1      12.676  26.268  35.365  1.00  0.00     0.212 HD
ENDBRANCH   6  11
BRANCH   8  13
HETATM   13  O6  UNL     1      17.042  28.594  36.506  1.00  0.00    -0.364 OA
HETATM   14  C15 UNL     1      17.669  28.802  35.305  1.00  0.00     0.204 C
ENDBRANCH   8  13
BRANCH   9  15
HETATM   15  N4  UNL     1      16.758  26.607  38.490  1.00  0.00    -0.349 N
HETATM   16  C17 UNL     1      16.767  25.497  39.345  1.00  0.00     0.214 C
HETATM   17  C18 UNL     1      17.941  25.200  40.178  1.00  0.00     0.117 C
HETATM   18  O7  UNL     1      15.772  24.748  39.410  1.00  0.00    -0.274 OA
ATOM     19  H4  UNL     1      17.593  27.194  38.471  1.00  0.00     0.163 HD
ENDBRANCH   9  15
BRANCH  10  20
HETATM   20  O8  UNL     1      15.109  29.233  38.310  1.00  0.00    -0.391 OA
ATOM     21  H8  UNL     1      15.903  29.313  37.795  1.00  0.00     0.210 HD
ENDBRANCH  10  20
ENDBRANCH   3   5
BRANCH   1  22
HETATM   22  C3  UNL     1       9.926  29.364  38.386  1.00  0.00     0.080 C
BRANCH  22  23
HETATM   23  C2  UNL     1       9.856  29.612  39.847  1.00  0.00     0.058 C
HETATM   24  C1  UNL     1      10.107  28.369  40.655  1.00  0.00     0.011 C
ENDBRANCH  22  23
BRANCH  22  25
HETATM   25  N1  UNL     1       8.727  29.244  37.642  1.00  0.00    -0.321 N
HETATM   26  C4  UNL     1       7.457  28.743  37.837  1.00  0.00     0.270 C
HETATM   27  O1  UNL     1       7.073  28.186  38.882  1.00  0.00    -0.266 OA
ATOM     28  H1  UNL     1       8.831  29.635  36.705  1.00  0.00     0.169 HD
BRANCH  26  29
HETATM   29  C5  UNL     1       6.410  28.837  36.780  1.00  0.00     0.096 C
HETATM   30  C6  UNL     1       5.042  29.172  37.218  1.00  0.00     0.076 C
HETATM   31  N2  UNL     1       6.650  28.645  35.554  1.00  0.00    -0.265 N
ATOM     32  H2  UNL     1       5.860  28.734  34.915  1.00  0.00     0.194 HD
BRANCH  31  33
HETATM   33  O2  UNL     1       7.865  28.328  34.992  1.00  0.00    -0.270 OA
BRANCH  33  34
HETATM   34  C7  UNL     1       8.007  27.179  34.166  1.00  0.00     0.078 C
HETATM   35  C8  UNL     1       7.180  27.364  32.884  1.00  0.00     0.048 C
HETATM   36  C9  UNL     1       7.544  25.914  34.820  1.00  0.00     0.048 C
HETATM   37  C10 UNL     1       9.456  27.042  33.794  1.00  0.00     0.048 C
ENDBRANCH  33  34
ENDBRANCH  31  33
ENDBRANCH  26  29
ENDBRANCH  22  25
ENDBRANCH   1  22
TORSDOF 11
ENDMDL