MODEL 2
REMARK VINA RESULT: -6.887527964      3.681      5.526
REMARK  12 active torsions:
REMARK  status: ('A' for Active; 'I' for Inactive)
REMARK       I    between atoms: C1_2  and  N1_3
REMARK    1  A    between atoms: C1_2  and  O3_12
REMARK    2  A    between atoms: N1_3  and  C2_5
REMARK    3  A    between atoms: C5_8  and  O2_9
REMARK    4  A    between atoms: O3_12  and  N2_13
REMARK    5  A    between atoms: N2_13  and  C7_14
REMARK    6  A    between atoms: C8_16  and  C9_17
REMARK    7  A    between atoms: C9_17  and  O5_18
REMARK    8  A    between atoms: C10_20  and  O6_21
REMARK    9  A    between atoms: C11_23  and  N3_24
REMARK       I    between atoms: N3_24  and  C12_26
REMARK   10  A    between atoms: C12_26  and  C13_28
REMARK   11  A    between atoms: C13_28  and  C14_29
REMARK   12  A    between atoms: C13_28  and  C20_35
ROOT
HETATM    1  C7  UNL     1      13.551  28.861  39.179  1.00  0.00     0.390 C
HETATM    2  O4  UNL     1      13.878  28.130  38.048  1.00  0.00    -0.335 OA
HETATM    3  C8  UNL     1      12.847  27.320  37.607  1.00  0.00     0.182 C
HETATM    4  C10 UNL     1      11.623  27.385  38.472  1.00  0.00     0.198 C
HETATM    5  C11 UNL     1      11.323  28.753  38.994  1.00  0.00     0.259 C
HETATM    6  O9  UNL     1      12.417  29.601  38.881  1.00  0.00    -0.318 OA
ENDROOT
BRANCH   5   7
HETATM    7  N3  UNL     1      10.873  28.783  40.367  1.00  0.00    -0.332 N
HETATM    8  C12 UNL     1       9.674  29.368  40.793  1.00  0.00     0.230 C
HETATM    9  O7  UNL     1       8.909  29.914  39.969  1.00  0.00    -0.273 OA
ATOM     10  H3  UNL     1      11.468  28.350  41.072  1.00  0.00     0.165 HD
BRANCH   8  11
HETATM   11  C13 UNL     1       9.278  29.359  42.218  1.00  0.00     0.142 C
BRANCH  11  12
HETATM   12  C14 UNL     1       9.351  30.709  42.826  1.00  0.00    -0.043 A
HETATM   13  C15 UNL     1      10.550  31.289  43.201  1.00  0.00     0.008 A
HETATM   14  C16 UNL     1      10.607  32.543  43.767  1.00  0.00     0.001 A
HETATM   15  C17 UNL     1       9.439  33.254  43.971  1.00  0.00     0.000 A
HETATM   16  C18 UNL     1       8.227  32.705  43.608  1.00  0.00     0.001 A
HETATM   17  C19 UNL     1       8.208  31.447  43.045  1.00  0.00     0.008 A
ENDBRANCH  11  12
BRANCH  11  18
HETATM   18  C20 UNL     1      10.110  28.354  42.987  1.00  0.00     0.162 A
HETATM   19  C21 UNL     1       9.418  27.083  43.435  1.00  0.00     0.201 A
HETATM   20  O8  UNL     1       9.710  28.139  44.295  1.00  0.00    -0.380 OA
ENDBRANCH  11  18
ENDBRANCH   8  11
ENDBRANCH   5   7
BRANCH   4  21
HETATM   21  O6  UNL     1      10.505  26.933  37.774  1.00  0.00    -0.389 OA
ATOM     22  H6  UNL     1       9.751  26.881  38.349  1.00  0.00     0.210 HD
ENDBRANCH   4  21
BRANCH   3  23
HETATM   23  C9  UNL     1      12.555  27.697  36.171  1.00  0.00     0.199 C
BRANCH  23  24
HETATM   24  O5  UNL     1      13.564  28.497  35.635  1.00  0.00    -0.398 OA
ATOM     25  H5  UNL     1      13.207  29.215  35.125  1.00  0.00     0.209 HD
ENDBRANCH  23  24
ENDBRANCH   3  23
BRANCH   1  26
HETATM   26  N2  UNL     1      14.624  29.810  39.409  1.00  0.00    -0.029 NA
BRANCH  26  27
HETATM   27  O3  UNL     1      14.216  30.857  40.205  1.00  0.00    -0.184 OA
BRANCH  27  28
HETATM   28  C1  UNL     1      14.833  31.180  41.397  1.00  0.00     0.379 C
HETATM   29  O1  UNL     1      15.927  30.626  41.648  1.00  0.00    -0.237 OA
HETATM   30  N1  UNL     1      14.299  32.093  42.337  1.00  0.00    -0.331 N
ATOM     31  H1  UNL     1      13.409  32.555  42.156  1.00  0.00     0.165 HD
BRANCH  30  32
HETATM   32  C2  UNL     1      15.023  32.363  43.553  1.00  0.00     0.089 C
HETATM   33  C3  UNL     1      14.110  32.415  44.764  1.00  0.00     0.028 C
HETATM   34  C4  UNL     1      15.062  32.955  45.821  1.00  0.00     0.034 C
HETATM   35  C5  UNL     1      15.971  33.911  45.056  1.00  0.00     0.120 C
HETATM   36  C6  UNL     1      15.669  33.710  43.595  1.00  0.00     0.057 C
BRANCH  35  37
HETATM   37  O2  UNL     1      15.732  35.228  45.454  1.00  0.00    -0.396 OA
ATOM     38  H2  UNL     1      15.498  35.256  46.374  1.00  0.00     0.210 HD
ENDBRANCH  35  37
ENDBRANCH  30  32
ENDBRANCH  27  28
ENDBRANCH  26  27
ENDBRANCH   1  26
TORSDOF 12
ENDMDL