MODEL 2
REMARK VINA RESULT: -5.866288263      3.320      4.543
REMARK  12 active torsions:
REMARK  status: ('A' for Active; 'I' for Inactive)
REMARK    1  A    between atoms: C3_3  and  O1_4
REMARK    2  A    between atoms: O1_4  and  C4_5
REMARK    3  A    between atoms: C6_9  and  N1_10
REMARK    4  A    between atoms: C7_14  and  O4_15
REMARK    5  A    between atoms: O4_15  and  C8_16
REMARK    6  A    between atoms: C8_16  and  C9_17
REMARK    7  A    between atoms: C9_17  and  O5_18
REMARK    8  A    between atoms: C10_20  and  N2_21
REMARK       I    between atoms: N2_21  and  C11_23
REMARK    9  A    between atoms: C13_27  and  N4_28
REMARK       I    between atoms: N4_28  and  C14_30
REMARK   10  A    between atoms: C14_30  and  O8_32
REMARK   11  A    between atoms: O8_32  and  C15_33
REMARK   12  A    between atoms: C19_37  and  O9_38
ROOT
HETATM    1  C4  UNL     1      13.305  27.186  37.806  1.00  0.00     0.322 C
HETATM    2  O2  UNL     1      13.644  26.001  37.169  1.00  0.00    -0.206 OA
HETATM    3  O3  UNL     1      13.367  26.081  35.908  1.00  0.00    -0.236 OA
HETATM    4  C5  UNL     1      13.784  27.223  35.274  1.00  0.00     0.245 C
HETATM    5  C6  UNL     1      15.201  27.614  35.536  1.00  0.00     0.241 C
HETATM    6  C7  UNL     1      15.643  27.462  36.954  1.00  0.00     0.181 C
HETATM    7  C10 UNL     1      14.558  28.038  37.849  1.00  0.00     0.174 C
ENDROOT
BRANCH   1   8
HETATM    8  O1  UNL     1      12.971  26.903  39.122  1.00  0.00    -0.350 OA
BRANCH   8   9
HETATM    9  C3  UNL     1      11.712  27.269  39.483  1.00  0.00     0.133 C
HETATM   10  C2  UNL     1      11.549  26.944  40.974  1.00  0.00     0.041 C
HETATM   11  C1  UNL     1      11.537  25.478  41.240  1.00  0.00     0.015 C
HETATM   12  C19 UNL     1      10.280  27.657  41.305  1.00  0.00     0.147 C
HETATM   13  C13 UNL     1      10.181  28.825  40.325  1.00  0.00     0.118 C
HETATM   14  C12 UNL     1      11.487  28.771  39.520  1.00  0.00     0.060 C
BRANCH  12  15
HETATM   15  O9  UNL     1       9.198  26.820  41.186  1.00  0.00    -0.393 OA
ATOM     16  H9  UNL     1       8.436  27.290  40.871  1.00  0.00     0.210 HD
ENDBRANCH  12  15
BRANCH  13  17
HETATM   17  N4  UNL     1      10.029  30.055  41.034  1.00  0.00    -0.330 N
HETATM   18  C14 UNL     1       8.746  30.428  41.496  1.00  0.00     0.361 C
HETATM   19  O7  UNL     1       7.723  29.702  41.297  1.00  0.00    -0.238 OA
ATOM     20  H4  UNL     1      10.836  30.656  41.206  1.00  0.00     0.165 HD
BRANCH  18  21
HETATM   21  O8  UNL     1       8.499  31.612  42.201  1.00  0.00    -0.294 OA
BRANCH  21  22
HETATM   22  C15 UNL     1       8.996  31.819  43.509  1.00  0.00     0.061 C
HETATM   23  C16 UNL     1      10.472  32.187  43.485  1.00  0.00     0.046 C
HETATM   24  C17 UNL     1       8.214  32.963  44.113  1.00  0.00     0.046 C
HETATM   25  C18 UNL     1       8.853  30.576  44.359  1.00  0.00     0.046 C
ENDBRANCH  21  22
ENDBRANCH  18  21
ENDBRANCH  13  17
ENDBRANCH   8   9
ENDBRANCH   1   8
BRANCH   7  26
HETATM   26  N2  UNL     1      15.071  28.186  39.198  1.00  0.00    -0.333 N
HETATM   27  C11 UNL     1      15.032  29.400  39.913  1.00  0.00     0.329 C
HETATM   28  N3  UNL     1      15.557  29.448  41.222  1.00  0.00    -0.040 NA
HETATM   29  O6  UNL     1      14.540  30.457  39.418  1.00  0.00    -0.251 OA
ATOM     30  H2  UNL     1      15.481  27.370  39.652  1.00  0.00     0.164 HD
ENDBRANCH   7  26
BRANCH   6  31
HETATM   31  O4  UNL     1      16.812  28.160  37.165  1.00  0.00    -0.379 OA
BRANCH  31  32
HETATM   32  C8  UNL     1      17.890  27.338  37.463  1.00  0.00     0.194 C
BRANCH  32  33
HETATM   33  C9  UNL     1      18.809  28.087  38.410  1.00  0.00     0.190 C
BRANCH  33  34
HETATM   34  O5  UNL     1      18.162  28.489  39.568  1.00  0.00    -0.399 OA
ATOM     35  H5  UNL     1      18.231  29.425  39.717  1.00  0.00     0.209 HD
ENDBRANCH  33  34
ENDBRANCH  32  33
ENDBRANCH  31  32
ENDBRANCH   6  31
BRANCH   5  36
HETATM   36  N1  UNL     1      16.094  26.921  34.632  1.00  0.00    -0.070 N
ATOM     37  H13 UNL     1      15.590  26.285  34.015  1.00  0.00     0.274 HD
ATOM     38  H12 UNL     1      16.478  27.548  33.924  1.00  0.00     0.274 HD
ATOM     39  H11 UNL     1      16.829  26.442  35.153  1.00  0.00     0.274 HD
ENDBRANCH   5  36
TORSDOF 12
ENDMDL