MODEL 2
REMARK VINA RESULT: -5.535023419      1.911      2.434
REMARK  14 active torsions:
REMARK  status: ('A' for Active; 'I' for Inactive)
REMARK    1  A    between atoms: N1_1  and  N2_4
REMARK    2  A    between atoms: N2_4  and  N3_5
REMARK    3  A    between atoms: N3_5  and  C1_7
REMARK    4  A    between atoms: C2_8  and  C3_9
REMARK    5  A    between atoms: C3_9  and  O1_10
REMARK    6  A    between atoms: C4_13  and  O3_14
REMARK    7  A    between atoms: O3_14  and  C5_15
REMARK    8  A    between atoms: C6_17  and  C7_18
REMARK    9  A    between atoms: C7_18  and  O5_19
REMARK   10  A    between atoms: C8_21  and  N4_22
REMARK   11  A    between atoms: N4_22  and  S1_24
REMARK   12  A    between atoms: S1_24  and  N5_25
REMARK   13  A    between atoms: C10_31  and  N6_32
REMARK   14  A    between atoms: C11_36  and  C12_37
ROOT
HETATM    1  O3  UNL     1      15.273  30.060  42.305  1.00  0.00    -0.329 OA
ENDROOT
BRANCH   1   2
HETATM    2  C4  UNL     1      15.737  31.368  42.262  1.00  0.00     0.271 C
HETATM    3  O2  UNL     1      14.905  32.135  43.074  1.00  0.00    -0.351 OA
HETATM    4  C2  UNL     1      15.716  33.108  43.649  1.00  0.00     0.174 C
HETATM    5  C1  UNL     1      17.011  32.383  43.957  1.00  0.00     0.155 C
HETATM    6  C11 UNL     1      17.150  31.532  42.718  1.00  0.00     0.088 C
BRANCH   4   7
HETATM    7  C3  UNL     1      15.086  33.742  44.850  1.00  0.00     0.198 C
BRANCH   7   8
HETATM    8  O1  UNL     1      15.845  34.834  45.216  1.00  0.00    -0.398 OA
ATOM      9  H1  UNL     1      15.760  34.958  46.154  1.00  0.00     0.209 HD
ENDBRANCH   7   8
ENDBRANCH   4   7
BRANCH   5  10
HETATM   10  N3  UNL     1      18.116  33.305  44.112  1.00  0.00    -0.245 N
ATOM     11  H3  UNL     1      18.595  33.715  43.311  1.00  0.00     0.197 HD
BRANCH  10  12
HETATM   12  N2  UNL     1      18.445  33.568  45.282  1.00  0.00    -0.248 NA
BRANCH  12  13
HETATM   13  N1  UNL     1      18.739  33.843  46.454  1.00  0.00    -0.261 N
ATOM     14  H12 UNL     1      17.849  33.424  46.187  1.00  0.00     0.193 HD
ATOM     15  H11 UNL     1      19.009  34.080  47.408  1.00  0.00     0.193 HD
ENDBRANCH  12  13
ENDBRANCH  10  12
ENDBRANCH   5  10
BRANCH   6  16
HETATM   16  C12 UNL     1      17.904  30.266  42.959  1.00  0.00     0.104 C
HETATM   17  S2  UNL     1      19.670  30.658  43.221  1.00  0.00    -0.152 SA
HETATM   18  C13 UNL     1      19.309  29.408  44.487  1.00  0.00     0.127 C
HETATM   19  C14 UNL     1      17.826  29.655  44.303  1.00  0.00     0.004 C
HETATM   20  N7  UNL     1      16.863  29.399  45.091  1.00  0.00    -0.404 N
ATOM     21  H72 UNL     1      15.864  29.565  44.967  1.00  0.00     0.155 HD
ATOM     22  H71 UNL     1      16.810  28.977  46.018  1.00  0.00     0.155 HD
ENDBRANCH   6  16
ENDBRANCH   1   2
BRANCH   1  23
HETATM   23  C5  UNL     1      15.057  29.512  41.064  1.00  0.00     0.293 C
HETATM   24  O4  UNL     1      13.686  29.218  40.865  1.00  0.00    -0.350 OA
HETATM   25  C6  UNL     1      13.523  29.266  39.463  1.00  0.00     0.171 C
HETATM   26  C8  UNL     1      14.161  28.075  38.868  1.00  0.00     0.127 C
HETATM   27  C9  UNL     1      15.248  27.424  39.698  1.00  0.00     0.066 C
HETATM   28  C10 UNL     1      15.856  28.277  40.752  1.00  0.00     0.240 C
BRANCH  25  29
HETATM   29  C7  UNL     1      12.050  29.305  39.120  1.00  0.00     0.198 C
BRANCH  29  30
HETATM   30  O5  UNL     1      11.826  29.828  37.853  1.00  0.00    -0.398 OA
ATOM     31  H5  UNL     1      11.941  29.175  37.174  1.00  0.00     0.209 HD
ENDBRANCH  29  30
ENDBRANCH  25  29
BRANCH  26  32
HETATM   32  N4  UNL     1      14.726  28.476  37.568  1.00  0.00    -0.296 N
ATOM     33  H4  UNL     1      15.406  29.224  37.429  1.00  0.00     0.174 HD
BRANCH  32  34
HETATM   34  S1  UNL     1      14.066  27.497  36.325  1.00  0.00     0.313 S
HETATM   35  O6  UNL     1      13.505  26.248  36.934  1.00  0.00    -0.183 OA
HETATM   36  O7  UNL     1      12.989  28.224  35.545  1.00  0.00    -0.183 OA
BRANCH  34  37
HETATM   37  N5  UNL     1      15.361  27.026  35.250  1.00  0.00    -0.312 N
ATOM     38  H52 UNL     1      16.227  27.546  35.113  1.00  0.00     0.170 HD
ATOM     39  H51 UNL     1      15.098  26.152  34.794  1.00  0.00     0.170 HD
ENDBRANCH  34  37
ENDBRANCH  32  34
ENDBRANCH  26  32
BRANCH  28  40
HETATM   40  N6  UNL     1      15.843  27.474  41.990  1.00  0.00    -0.070 N
ATOM     41  H63 UNL     1      16.312  27.924  42.775  1.00  0.00     0.274 HD
ATOM     42  H62 UNL     1      14.921  27.405  42.422  1.00  0.00     0.274 HD
ATOM     43  H61 UNL     1      16.245  26.572  41.735  1.00  0.00     0.274 HD
ENDBRANCH  28  40
ENDBRANCH   1  23
TORSDOF 14
ENDMDL