MODEL 2
REMARK VINA RESULT: -5.858338760      5.083      8.512
REMARK  13 active torsions:
REMARK  status: ('A' for Active; 'I' for Inactive)
REMARK    1  A    between atoms: C2_2  and  N1_3
REMARK       I    between atoms: N1_3  and  C3_5
REMARK    2  A    between atoms: C3_5  and  C4_7
REMARK    3  A    between atoms: C5_9  and  O3_10
REMARK    4  A    between atoms: O3_10  and  C6_11
REMARK    5  A    between atoms: C7_12  and  O4_13
REMARK    6  A    between atoms: C8_15  and  S1_16
REMARK    7  A    between atoms: S1_16  and  C9_17
REMARK    8  A    between atoms: C14_22  and  O5_23
REMARK    9  A    between atoms: C15_25  and  N2_26
REMARK   10  A    between atoms: N2_26  and  N3_28
REMARK   11  A    between atoms: C16_33  and  O6_34
REMARK   12  A    between atoms: C17_36  and  O7_37
REMARK   13  A    between atoms: C18_39  and  O8_40
ROOT
HETATM    1  C6  UNL     1      13.796  30.218  41.132  1.00  0.00     0.181 C
HETATM    2  C7  UNL     1      12.496  30.646  41.763  1.00  0.00     0.165 C
HETATM    3  C8  UNL     1      12.969  31.292  43.073  1.00  0.00     0.110 C
HETATM    4  C14 UNL     1      13.981  30.248  43.527  1.00  0.00     0.161 C
HETATM    5  C15 UNL     1      14.797  30.059  42.266  1.00  0.00     0.162 C
ENDROOT
BRANCH   1   6
HETATM    6  O3  UNL     1      13.730  29.024  40.461  1.00  0.00    -0.348 OA
BRANCH   6   7
HETATM    7  C5  UNL     1      13.681  29.158  39.081  1.00  0.00     0.292 C
HETATM    8  O2  UNL     1      14.658  28.295  38.543  1.00  0.00    -0.341 OA
HETATM    9  C4  UNL     1      14.383  28.129  37.190  1.00  0.00     0.247 C
HETATM   10  C18 UNL     1      13.284  27.091  37.077  1.00  0.00     0.188 C
HETATM   11  C17 UNL     1      12.424  27.221  38.310  1.00  0.00     0.183 C
HETATM   12  C16 UNL     1      12.310  28.687  38.643  1.00  0.00     0.204 C
BRANCH   9  13
HETATM   13  C3  UNL     1      15.556  27.622  36.442  1.00  0.00     0.249 C
HETATM   14  N1  UNL     1      16.695  27.058  37.067  1.00  0.00    -0.359 N
ATOM     15  H1  UNL     1      16.739  26.984  38.083  1.00  0.00     0.162 HD
HETATM   16  O1  UNL     1      15.534  27.698  35.194  1.00  0.00    -0.271 OA
BRANCH  14  17
HETATM   17  C2  UNL     1      17.800  26.586  36.253  1.00  0.00     0.118 C
HETATM   18  C1  UNL     1      18.890  25.951  37.088  1.00  0.00     0.026 C
ENDBRANCH  14  17
ENDBRANCH   9  13
BRANCH  10  19
HETATM   19  O8  UNL     1      13.892  25.840  37.127  1.00  0.00    -0.390 OA
ATOM     20  H8  UNL     1      13.202  25.190  37.074  1.00  0.00     0.210 HD
ENDBRANCH  10  19
BRANCH  11  21
HETATM   21  O7  UNL     1      11.218  26.574  38.218  1.00  0.00    -0.390 OA
ATOM     22  H7  UNL     1      10.790  26.671  37.376  1.00  0.00     0.210 HD
ENDBRANCH  11  21
BRANCH  12  23
HETATM   23  O6  UNL     1      11.814  29.437  37.585  1.00  0.00    -0.388 OA
ATOM     24  H6  UNL     1      11.250  28.924  37.017  1.00  0.00     0.210 HD
ENDBRANCH  12  23
ENDBRANCH   6   7
ENDBRANCH   1   6
BRANCH   2  25
HETATM   25  O4  UNL     1      11.679  29.591  42.115  1.00  0.00    -0.392 OA
ATOM     26  H4  UNL     1      11.369  29.633  43.012  1.00  0.00     0.210 HD
ENDBRANCH   2  25
BRANCH   5  27
HETATM   27  N2  UNL     1      15.363  28.737  42.295  1.00  0.00    -0.313 N
ATOM     28  H2  UNL     1      15.012  28.062  42.974  1.00  0.00     0.182 HD
BRANCH  27  29
HETATM   29  N3  UNL     1      16.251  28.402  41.529  1.00  0.00    -0.253 N
HETATM   30  N4  UNL     1      16.769  27.921  40.501  1.00  0.00    -0.331 N
ATOM     31  H42 UNL     1      15.912  27.646  40.022  1.00  0.00     0.178 HD
ATOM     32  H41 UNL     1      17.511  27.641  39.861  1.00  0.00     0.178 HD
ATOM     33  H3  UNL     1      17.079  28.695  42.047  1.00  0.00     0.207 HD
ENDBRANCH  27  29
ENDBRANCH   5  27
BRANCH   3  34
HETATM   34  S1  UNL     1      11.615  31.407  44.272  1.00  0.00    -0.154 SA
BRANCH  34  35
HETATM   35  C9  UNL     1      10.120  32.068  43.535  1.00  0.00     0.048 C
HETATM   36  C10 UNL     1       9.001  31.054  43.800  1.00  0.00     0.015 C
HETATM   37  C11 UNL     1       7.764  31.853  43.555  1.00  0.00     0.001 C
HETATM   38  C12 UNL     1       8.081  33.233  44.097  1.00  0.00     0.001 C
HETATM   39  C13 UNL     1       9.599  33.300  44.208  1.00  0.00     0.015 C
ENDBRANCH  34  35
ENDBRANCH   3  34
BRANCH   4  40
HETATM   40  O5  UNL     1      14.724  30.662  44.604  1.00  0.00    -0.392 OA
ATOM     41  H5  UNL     1      14.361  30.377  45.434  1.00  0.00     0.210 HD
ENDBRANCH   4  40
TORSDOF 13
ENDMDL