MODEL 3
REMARK VINA RESULT: -6.430469541      1.747      2.804
REMARK  2 active torsions:
REMARK  status: ('A' for Active; 'I' for Inactive)
REMARK    1  A    between atoms: N1_1  and  C1_4
REMARK    2  A    between atoms: C2_7  and  N3_8
ROOT
HETATM    1  C1  UNL     1       5.296  23.167  34.051  1.00  0.00     0.727 A
HETATM    2  N2  UNL     1       5.412  21.824  33.923  1.00  0.00    -0.020 N
ATOM      3  H2  UNL     1       4.981  21.349  33.130  1.00  0.00     0.203 HD
HETATM    4  C2  UNL     1       6.092  21.117  34.838  1.00  0.00     0.709 A
HETATM    5  N4  UNL     1       6.644  21.778  35.866  1.00  0.00    -0.019 N
ATOM      6  H4  UNL     1       7.163  21.247  36.566  1.00  0.00     0.203 HD
HETATM    7  C7  UNL     1       6.542  23.112  36.013  1.00  0.00     0.737 A
HETATM    8  N5  UNL     1       7.022  23.941  36.967  1.00  0.00    -0.137 N
ATOM      9  H5  UNL     1       7.574  23.681  37.784  1.00  0.00     0.189 HD
HETATM   10  C8  UNL     1       6.621  25.184  36.620  1.00  0.00     0.354 A
HETATM   11  O1  UNL     1       6.899  26.209  37.299  1.00  0.00    -0.245 OA
HETATM   12  N6  UNL     1       5.916  25.082  35.478  1.00  0.00    -0.215 N
ATOM     13  H6  UNL     1       5.490  25.864  34.982  1.00  0.00     0.193 HD
HETATM   14  N7  UNL     1       5.856  23.803  35.087  1.00  0.00     0.095 N
ENDROOT
BRANCH   4  15
HETATM   15  N3  UNL     1       6.248  19.711  34.757  1.00  0.00    -0.217 N
HETATM   16  C3  UNL     1       7.418  18.901  35.033  1.00  0.00     0.141 C
HETATM   17  C4  UNL     1       6.858  17.657  35.637  1.00  0.00     0.022 C
HETATM   18  C5  UNL     1       5.340  17.728  35.475  1.00  0.00     0.022 C
HETATM   19  C6  UNL     1       5.221  18.755  34.364  1.00  0.00     0.141 C
ENDBRANCH   4  15
BRANCH   1  20
HETATM   20  N1  UNL     1       4.651  23.884  33.196  1.00  0.00    -0.232 N
ATOM     21  H12 UNL     1       4.315  23.417  32.353  1.00  0.00     0.174 HD
ATOM     22  H11 UNL     1       4.476  24.878  33.344  1.00  0.00     0.174 HD
ENDBRANCH   1  20
TORSDOF 2
ENDMDL