MODEL 2
REMARK VINA RESULT: -6.495771935      0.102      1.177
REMARK  1 active torsions:
REMARK  status: ('A' for Active; 'I' for Inactive)
REMARK    1  A    between atoms: C2_3  and  C3_4
ROOT
HETATM    1  N1  UNL     1       8.643  20.311  36.089  1.00  0.00    -0.192 NA
HETATM    2  C1  UNL     1       7.669  20.772  36.507  1.00  0.00     0.119 C
HETATM    3  C2  UNL     1       6.423  21.381  37.034  1.00  0.00     0.229 A
HETATM    4  N2  UNL     1       6.777  22.108  38.207  1.00  0.00    -0.322 N
ATOM      5  H2  UNL     1       7.484  22.838  38.128  1.00  0.00     0.166 HD
HETATM    6  C9  UNL     1       6.254  21.894  39.355  1.00  0.00     0.193 A
HETATM    7  N3  UNL     1       6.695  22.689  40.442  1.00  0.00    -0.063 NA
HETATM    8  N4  UNL     1       5.269  20.892  39.516  1.00  0.00    -0.305 N
ATOM      9  H4  UNL     1       4.865  20.738  40.439  1.00  0.00     0.171 HD
HETATM   10  C10 UNL     1       4.871  20.172  38.530  1.00  0.00     0.193 A
HETATM   11  N5  UNL     1       3.881  19.167  38.696  1.00  0.00    -0.063 NA
HETATM   12  N6  UNL     1       5.418  20.373  37.247  1.00  0.00    -0.322 N
ATOM     13  H6  UNL     1       5.100  19.801  36.465  1.00  0.00     0.166 HD
ENDROOT
BRANCH   3  14
HETATM   14  C3  UNL     1       5.937  22.313  35.979  1.00  0.00     0.005 A
HETATM   15  C4  UNL     1       5.716  23.637  36.293  1.00  0.00     0.012 A
HETATM   16  C5  UNL     1       5.268  24.524  35.347  1.00  0.00     0.001 A
HETATM   17  C6  UNL     1       5.015  24.151  34.043  1.00  0.00     0.000 A
HETATM   18  C7  UNL     1       5.245  22.815  33.751  1.00  0.00     0.001 A
HETATM   19  C8  UNL     1       5.695  21.908  34.686  1.00  0.00     0.012 A
ENDBRANCH   3  14
TORSDOF 1
ENDMDL