MODEL 2
REMARK VINA RESULT: -6.198596184      0.948      1.721
REMARK  2 active torsions:
REMARK  status: ('A' for Active; 'I' for Inactive)
REMARK    1  A    between atoms: C4_7  and  N3_8
REMARK    2  A    between atoms: C5_13  and  N5_14
ROOT
HETATM    1  N1  UNL     1       6.656  22.670  38.771  1.00  0.00    -0.191 NA
HETATM    2  C1  UNL     1       6.304  22.931  37.691  1.00  0.00     0.104 C
HETATM    3  C2  UNL     1       5.860  23.280  36.358  1.00  0.00     0.104 A
HETATM    4  C3  UNL     1       5.628  24.611  36.040  1.00  0.00     0.132 A
HETATM    5  N2  UNL     1       5.213  24.931  34.800  1.00  0.00    -0.201 N
ATOM      6  H2  UNL     1       5.043  25.911  34.570  1.00  0.00     0.183 HD
HETATM    7  C4  UNL     1       5.018  23.997  33.860  1.00  0.00     0.677 A
HETATM    8  N4  UNL     1       5.243  22.709  34.168  1.00  0.00    -0.175 N
ATOM      9  H4  UNL     1       5.094  21.997  33.452  1.00  0.00     0.186 HD
HETATM   10  C5  UNL     1       5.657  22.325  35.387  1.00  0.00     0.141 A
ENDROOT
BRANCH  10  11
HETATM   11  N5  UNL     1       5.897  20.974  35.713  1.00  0.00    -0.364 N
HETATM   12  C6  UNL     1       7.257  20.485  35.768  1.00  0.00     0.126 C
HETATM   13  C7  UNL     1       7.519  19.458  34.694  1.00  0.00     0.047 C
HETATM   14  C8  UNL     1       7.074  18.090  35.050  1.00  0.00     0.234 C
HETATM   15  N6  UNL     1       5.747  18.016  35.593  1.00  0.00    -0.074 N
HETATM   16  C9  UNL     1       4.837  18.968  35.012  1.00  0.00     0.252 C
ATOM     17  H62 UNL     1       5.378  17.068  35.516  1.00  0.00     0.277 HD
ATOM     18  H61 UNL     1       5.767  18.107  36.609  1.00  0.00     0.277 HD
HETATM   19  C10 UNL     1       4.722  20.129  35.981  1.00  0.00     0.152 C
ENDBRANCH  10  11
BRANCH   7  20
HETATM   20  N3  UNL     1       4.619  24.341  32.683  1.00  0.00    -0.234 N
ATOM     21  H32 UNL     1       5.261  24.759  32.010  1.00  0.00     0.174 HD
ATOM     22  H31 UNL     1       3.647  24.193  32.411  1.00  0.00     0.174 HD
ENDBRANCH   7  20
TORSDOF 2
ENDMDL