MODEL 1
REMARK VINA RESULT: -6.354211085      0.000      0.000
REMARK  3 active torsions:
REMARK  status: ('A' for Active; 'I' for Inactive)
REMARK    1  A    between atoms: C4_8  and  N3_9
REMARK    2  A    between atoms: N3_9  and  N4_11
REMARK    3  A    between atoms: N5_17  and  N6_18
ROOT
HETATM    1  N1  UNL     1       7.229  25.085  37.037  1.00  0.00    -0.080 NA
HETATM    2  C1  UNL     1       6.312  24.256  36.311  1.00  0.00     0.161 A
HETATM    3  C2  UNL     1       5.606  24.776  35.246  1.00  0.00     0.122 A
HETATM    4  C3  UNL     1       4.732  23.934  34.577  1.00  0.00     0.262 A
HETATM    5  O1  UNL     1       4.056  24.361  33.589  1.00  0.00    -0.268 OA
HETATM    6  N2  UNL     1       4.589  22.654  34.966  1.00  0.00    -0.153 N
ATOM      7  H2  UNL     1       3.941  22.049  34.461  1.00  0.00     0.187 HD
HETATM    8  C4  UNL     1       5.277  22.156  36.000  1.00  0.00     0.721 A
HETATM    9  N5  UNL     1       6.127  22.956  36.660  1.00  0.00    -0.077 N
ENDROOT
BRANCH   8  10
HETATM   10  N3  UNL     1       5.141  20.951  36.364  1.00  0.00    -0.132 N
ATOM     11  H3  UNL     1       4.820  20.779  37.317  1.00  0.00     0.205 HD
BRANCH  10  12
HETATM   12  N4  UNL     1       5.398  19.840  35.558  1.00  0.00    -0.314 N
HETATM   13  C5  UNL     1       4.303  18.948  35.282  1.00  0.00     0.143 C
HETATM   14  C6  UNL     1       4.628  18.219  34.008  1.00  0.00     0.021 C
HETATM   15  C7  UNL     1       5.892  17.427  34.204  1.00  0.00     0.003 C
HETATM   16  C8  UNL     1       7.052  18.240  34.671  1.00  0.00     0.021 C
HETATM   17  C9  UNL     1       6.724  19.646  35.053  1.00  0.00     0.143 C
ENDBRANCH  10  12
ENDBRANCH   8  10
BRANCH   9  18
HETATM   18  N6  UNL     1       6.875  22.503  37.745  1.00  0.00    -0.323 N
ATOM     19  H62 UNL     1       7.653  23.041  38.128  1.00  0.00     0.178 HD
ATOM     20  H61 UNL     1       6.599  21.601  38.134  1.00  0.00     0.178 HD
ENDBRANCH   9  18
TORSDOF 3
ENDMDL