MODEL 5
REMARK VINA RESULT: -6.326027978      1.435      2.864
REMARK  2 active torsions:
REMARK  status: ('A' for Active; 'I' for Inactive)
REMARK    1  A    between atoms: C2_3  and  C3_5
REMARK    2  A    between atoms: C3_5  and  N3_6
ROOT
HETATM    1  N1  UNL     1       6.777  19.440  39.179  1.00  0.00    -0.190 NA
HETATM    2  C1  UNL     1       7.199  19.441  38.087  1.00  0.00     0.116 C
HETATM    3  C2  UNL     1       7.697  19.448  36.750  1.00  0.00     0.142 C
HETATM    4  N2  UNL     1       7.933  18.246  36.035  1.00  0.00    -0.089 NA
ENDROOT
BRANCH   3   5
HETATM    5  C3  UNL     1       7.946  20.593  36.158  1.00  0.00     0.137 C
BRANCH   5   6
HETATM    6  N3  UNL     1       6.920  21.283  35.423  1.00  0.00    -0.300 N
HETATM    7  C4  UNL     1       6.120  20.764  34.482  1.00  0.00     0.190 A
HETATM    8  N4  UNL     1       5.325  21.779  34.082  1.00  0.00    -0.344 N
HETATM    9  C5  UNL     1       5.610  22.901  34.743  1.00  0.00     0.147 A
ATOM     10  H4  UNL     1       4.602  21.699  33.367  1.00  0.00     0.167 HD
HETATM   11  C6  UNL     1       5.156  24.202  34.764  1.00  0.00     0.280 A
HETATM   12  C8  UNL     1       6.645  22.585  35.614  1.00  0.00     0.149 A
HETATM   13  O1  UNL     1       4.223  24.493  33.979  1.00  0.00    -0.265 OA
HETATM   14  N5  UNL     1       5.705  25.106  35.599  1.00  0.00    -0.273 N
HETATM   15  C7  UNL     1       6.705  24.783  36.436  1.00  0.00     0.328 A
ATOM     16  H5  UNL     1       5.351  26.062  35.596  1.00  0.00     0.173 HD
HETATM   17  O2  UNL     1       7.210  25.656  37.220  1.00  0.00    -0.247 OA
HETATM   18  N6  UNL     1       7.163  23.516  36.431  1.00  0.00    -0.292 N
ATOM     19  H6  UNL     1       7.921  23.259  37.062  1.00  0.00     0.172 HD
ENDBRANCH   5   6
ENDBRANCH   3   5
TORSDOF 2
ENDMDL