MODEL 4
REMARK VINA RESULT: -6.040670213      3.131      3.902
REMARK  2 active torsions:
REMARK  status: ('A' for Active; 'I' for Inactive)
REMARK    1  A    between atoms: N1_1  and  C1_4
REMARK    2  A    between atoms: C6_15  and  N4_16
ROOT
HETATM    1  C1  UNL     1       8.083  20.607  36.413  1.00  0.00     0.686 A
HETATM    2  N2  UNL     1       8.358  21.911  36.642  1.00  0.00    -0.156 N
ATOM      3  H2  UNL     1       9.320  22.230  36.763  1.00  0.00     0.187 HD
HETATM    4  C2  UNL     1       7.334  22.774  36.704  1.00  0.00     0.263 A
HETATM    5  O1  UNL     1       7.607  23.983  36.919  1.00  0.00    -0.268 OA
HETATM    6  C3  UNL     1       6.037  22.330  36.537  1.00  0.00     0.124 A
HETATM    7  C4  UNL     1       5.768  20.995  36.303  1.00  0.00     0.136 A
HETATM    8  N3  UNL     1       4.488  20.564  36.138  1.00  0.00    -0.306 N
ATOM      9  H3  UNL     1       3.733  21.248  36.191  1.00  0.00     0.170 HD
HETATM   10  C5  UNL     1       4.177  19.287  35.910  1.00  0.00     0.281 A
HETATM   11  O2  UNL     1       3.020  18.831  35.752  1.00  0.00    -0.265 OA
HETATM   12  C6  UNL     1       5.226  18.399  35.846  1.00  0.00     0.187 A
HETATM   13  C7  UNL     1       6.523  18.857  36.016  1.00  0.00     0.158 A
HETATM   14  N5  UNL     1       6.822  20.145  36.245  1.00  0.00    -0.141 N
ENDROOT
BRANCH   1  15
HETATM   15  N1  UNL     1       9.068  19.804  36.357  1.00  0.00    -0.234 N
ATOM     16  H12 UNL     1       9.805  19.851  37.060  1.00  0.00     0.174 HD
ATOM     17  H11 UNL     1       9.078  19.128  35.593  1.00  0.00     0.174 HD
ENDBRANCH   1  15
BRANCH  12  18
HETATM   18  N4  UNL     1       4.970  17.030  35.606  1.00  0.00    -0.108 N
HETATM   19  O3  UNL     1       5.010  16.611  34.438  1.00  0.00    -0.532 OA
HETATM   20  O4  UNL     1       4.689  16.201  36.652  1.00  0.00    -0.532 OA
ENDBRANCH  12  18
TORSDOF 2
ENDMDL