MODEL 5
REMARK VINA RESULT: -6.622993885      1.839      2.253
REMARK  3 active torsions:
REMARK  status: ('A' for Active; 'I' for Inactive)
REMARK    1  A    between atoms: N1_1  and  C1_4
REMARK    2  A    between atoms: N3_7  and  C2_8
REMARK    3  A    between atoms: N4_16  and  O2_17
ROOT
HETATM    1  C1  UNL     1       5.568  18.993  37.658  1.00  0.00     0.186 A
HETATM    2  N2  UNL     1       5.365  20.197  37.143  1.00  0.00    -0.270 N
ATOM      3  H2  UNL     1       4.621  20.767  37.543  1.00  0.00     0.189 HD
HETATM    4  N3  UNL     1       6.074  20.710  36.135  1.00  0.00    -0.202 N
HETATM    5  C8  UNL     1       7.049  19.919  35.636  1.00  0.00     0.375 A
HETATM    6  O1  UNL     1       7.757  20.320  34.697  1.00  0.00    -0.242 OA
HETATM    7  N4  UNL     1       7.294  18.690  36.124  1.00  0.00    -0.129 N
HETATM    8  C9  UNL     1       6.567  18.197  37.139  1.00  0.00     0.320 A
HETATM    9  O3  UNL     1       6.794  17.040  37.601  1.00  0.00    -0.261 OA
ENDROOT
BRANCH   4  10
HETATM   10  C2  UNL     1       5.805  22.012  35.629  1.00  0.00     0.061 A
HETATM   11  C3  UNL     1       5.126  22.236  34.464  1.00  0.00     0.032 A
HETATM   12  C4  UNL     1       4.864  23.508  33.972  1.00  0.00     0.002 A
HETATM   13  C5  UNL     1       5.316  24.585  34.701  1.00  0.00     0.000 A
HETATM   14  C6  UNL     1       6.009  24.414  35.889  1.00  0.00     0.002 A
HETATM   15  C7  UNL     1       6.241  23.119  36.330  1.00  0.00     0.032 A
ENDBRANCH   4  10
BRANCH   1  16
HETATM   16  N1  UNL     1       4.865  18.523  38.634  1.00  0.00    -0.380 N
ATOM     17  H12 UNL     1       3.860  18.419  38.493  1.00  0.00     0.158 HD
ATOM     18  H11 UNL     1       5.274  18.256  39.530  1.00  0.00     0.158 HD
ENDBRANCH   1  16
BRANCH   7  19
HETATM   19  O2  UNL     1       8.290  17.903  35.602  1.00  0.00    -0.276 OA
ATOM     20  H2  UNL     1       8.886  17.422  36.166  1.00  0.00     0.245 HD
ENDBRANCH   7  19
TORSDOF 3
ENDMDL