MODEL 1
REMARK VINA RESULT: -7.065291203      0.000      0.000
REMARK  2 active torsions:
REMARK  status: ('A' for Active; 'I' for Inactive)
REMARK    1  A    between atoms: N1_1  and  C1_4
REMARK    2  A    between atoms: C4_15  and  N6_16
ROOT
HETATM    1  C1  UNL     1       8.419  19.965  36.561  1.00  0.00     0.679 A
HETATM    2  N2  UNL     1       7.801  19.556  37.680  1.00  0.00    -0.173 N
ATOM      3  H2  UNL     1       8.213  18.807  38.237  1.00  0.00     0.186 HD
HETATM    4  C2  UNL     1       6.653  20.119  38.076  1.00  0.00     0.169 A
HETATM    5  N3  UNL     1       5.853  19.899  39.135  1.00  0.00    -0.268 N
ATOM      6  H3  UNL     1       5.992  19.213  39.876  1.00  0.00     0.190 HD
HETATM    7  N4  UNL     1       4.857  20.746  39.019  1.00  0.00    -0.240 N
ATOM      8  H4  UNL     1       4.081  20.818  39.678  1.00  0.00     0.208 HD
HETATM    9  N5  UNL     1       4.991  21.495  37.937  1.00  0.00    -0.279 N
ATOM     10  H5  UNL     1       4.344  22.224  37.636  1.00  0.00     0.189 HD
HETATM   11  C3  UNL     1       6.121  21.137  37.295  1.00  0.00     0.140 A
HETATM   12  C4  UNL     1       6.741  21.570  36.144  1.00  0.00     0.158 A
HETATM   13  N7  UNL     1       7.902  20.950  35.809  1.00  0.00    -0.174 N
ATOM     14  H7  UNL     1       8.393  21.240  34.964  1.00  0.00     0.186 HD
ENDROOT
BRANCH  12  15
HETATM   15  N6  UNL     1       6.156  22.611  35.389  1.00  0.00    -0.301 N
HETATM   16  C5  UNL     1       5.537  22.378  34.099  1.00  0.00     0.134 C
HETATM   17  C6  UNL     1       4.876  23.649  33.688  1.00  0.00     0.029 C
HETATM   18  C7  UNL     1       4.887  24.521  34.903  1.00  0.00     0.105 C
HETATM   19  C8  UNL     1       6.042  23.992  35.670  1.00  0.00     0.225 C
HETATM   20  O1  UNL     1       6.807  24.623  36.442  1.00  0.00    -0.273 OA
ENDBRANCH  12  15
BRANCH   1  21
HETATM   21  N1  UNL     1       9.517  19.383  36.239  1.00  0.00    -0.234 N
ATOM     22  H12 UNL     1      10.161  19.033  36.948  1.00  0.00     0.174 HD
ATOM     23  H11 UNL     1       9.726  19.281  35.246  1.00  0.00     0.174 HD
ENDBRANCH   1  21
TORSDOF 2
ENDMDL