MODEL 4
REMARK VINA RESULT: -6.214992391      1.544      1.776
REMARK  2 active torsions:
REMARK  status: ('A' for Active; 'I' for Inactive)
REMARK    1  A    between atoms: N1_1  and  N2_4
REMARK    2  A    between atoms: C6_14  and  N4_15
ROOT
HETATM    1  N2  UNL     1       4.972  19.575  36.929  1.00  0.00    -0.220 N
HETATM    2  C1  UNL     1       5.691  18.785  37.733  1.00  0.00     0.334 A
HETATM    3  O1  UNL     1       5.132  17.746  38.210  1.00  0.00    -0.260 OA
HETATM    4  C2  UNL     1       7.001  19.051  38.061  1.00  0.00     0.316 A
HETATM    5  O2  UNL     1       7.643  18.284  38.821  1.00  0.00    -0.262 OA
HETATM    6  N3  UNL     1       7.621  20.133  37.580  1.00  0.00    -0.317 N
ATOM      7  H3  UNL     1       8.591  20.341  37.817  1.00  0.00     0.169 HD
HETATM    8  C3  UNL     1       6.902  20.947  36.759  1.00  0.00     0.064 A
HETATM    9  C4  UNL     1       7.482  22.087  36.223  1.00  0.00     0.034 A
HETATM   10  C5  UNL     1       6.752  22.904  35.396  1.00  0.00     0.038 A
HETATM   11  C6  UNL     1       5.426  22.649  35.055  1.00  0.00     0.105 A
HETATM   12  C7  UNL     1       4.870  21.510  35.599  1.00  0.00     0.070 A
HETATM   13  C8  UNL     1       5.591  20.681  36.430  1.00  0.00     0.088 A
ENDROOT
BRANCH   1  14
HETATM   14  N1  UNL     1       3.650  19.323  36.586  1.00  0.00    -0.335 N
ATOM     15  H12 UNL     1       2.975  19.108  37.321  1.00  0.00     0.177 HD
ATOM     16  H11 UNL     1       3.302  19.341  35.627  1.00  0.00     0.177 HD
ENDBRANCH   1  14
BRANCH  11  17
HETATM   17  N4  UNL     1       4.705  23.515  34.199  1.00  0.00    -0.116 N
HETATM   18  O3  UNL     1       5.006  23.631  33.009  1.00  0.00    -0.532 OA
HETATM   19  O4  UNL     1       3.661  24.231  34.701  1.00  0.00    -0.532 OA
ENDBRANCH  11  17
TORSDOF 2
ENDMDL