MODEL 1
REMARK VINA RESULT: -6.723175814      0.000      0.000
REMARK  1 active torsions:
REMARK  status: ('A' for Active; 'I' for Inactive)
REMARK    1  A    between atoms: C5_11  and  C6_12
ROOT
HETATM    1  N1  UNL     1       7.581  18.650  38.345  1.00  0.00    -0.190 NA
HETATM    2  C1  UNL     1       7.247  19.595  37.756  1.00  0.00     0.121 C
HETATM    3  C2  UNL     1       6.808  20.763  37.028  1.00  0.00     0.157 A
HETATM    4  N2  UNL     1       7.085  22.050  37.311  1.00  0.00    -0.326 N
ATOM      5  H2  UNL     1       7.653  22.371  38.095  1.00  0.00     0.168 HD
HETATM    6  C3  UNL     1       6.495  22.847  36.400  1.00  0.00     0.183 A
HETATM    7  C4  UNL     1       6.483  24.221  36.262  1.00  0.00     0.290 A
HETATM    8  O1  UNL     1       7.120  24.925  37.109  1.00  0.00    -0.264 OA
HETATM    9  N3  UNL     1       5.809  24.837  35.247  1.00  0.00    -0.315 N
ATOM     10  H3  UNL     1       5.813  25.854  35.162  1.00  0.00     0.169 HD
HETATM   11  C5  UNL     1       5.141  24.076  34.359  1.00  0.00     0.117 A
HETATM   12  C7  UNL     1       5.158  22.706  34.504  1.00  0.00     0.135 A
HETATM   13  N5  UNL     1       5.825  22.091  35.509  1.00  0.00    -0.287 N
HETATM   14  C8  UNL     1       6.015  20.813  35.891  1.00  0.00     0.162 A
HETATM   15  N6  UNL     1       5.473  19.690  35.216  1.00  0.00    -0.079 NA
ENDROOT
BRANCH  11  16
HETATM   16  C6  UNL     1       4.418  24.732  33.272  1.00  0.00     0.282 C
HETATM   17  N4  UNL     1       4.880  24.648  31.934  1.00  0.00    -0.056 NA
HETATM   18  O2  UNL     1       3.369  25.388  33.487  1.00  0.00    -0.269 OA
ENDBRANCH  11  16
TORSDOF 1
ENDMDL