MODEL 3
REMARK VINA RESULT: -10.081047603      1.738      3.046
REMARK  4 active torsions:
REMARK  status: ('A' for Active; 'I' for Inactive)
REMARK    1  A    between atoms: C2_2  and  C3_3
REMARK    2  A    between atoms: C3_3  and  C4_4
REMARK    3  A    between atoms: C4_4  and  C5_5
REMARK    4  A    between atoms: C6_6  and  O1_7
ROOT
HETATM    1  C5  UNL     1      26.557  27.540   7.775  1.00  0.00     0.019 C
HETATM    2  C6  UNL     1      27.813  27.433   7.027  1.00  0.00     0.122 C
HETATM    3  C7  UNL     1      28.694  28.678   7.086  1.00  0.00     0.033 C
HETATM    4  C8  UNL     1      27.950  29.937   6.777  1.00  0.00     0.012 C
HETATM    5  C9  UNL     1      26.815  30.075   7.808  1.00  0.00    -0.036 C
HETATM    6  C10 UNL     1      27.471  30.255   9.123  1.00  0.00     0.016 C
HETATM    7  C11 UNL     1      25.939  28.907   7.606  1.00  0.00     0.001 C
HETATM    8  C12 UNL     1      24.642  29.094   8.310  1.00  0.00     0.006 C
HETATM    9  C13 UNL     1      23.877  30.173   7.566  1.00  0.00     0.006 C
HETATM   10  C14 UNL     1      24.751  31.082   6.758  1.00  0.00    -0.001 C
HETATM   11  C15 UNL     1      26.033  31.334   7.521  1.00  0.00    -0.001 C
HETATM   12  C16 UNL     1      25.678  32.123   8.750  1.00  0.00     0.006 C
HETATM   13  C17 UNL     1      25.182  33.496   8.345  1.00  0.00     0.006 C
HETATM   14  C18 UNL     1      24.831  33.587   6.893  1.00  0.00    -0.006 C
HETATM   15  C19 UNL     1      23.924  34.819   6.758  1.00  0.00     0.005 C
HETATM   16  C20 UNL     1      23.588  35.028   5.317  1.00  0.00     0.000 C
HETATM   17  C21 UNL     1      24.098  33.905   4.448  1.00  0.00     0.001 C
HETATM   18  C22 UNL     1      23.777  32.554   4.960  1.00  0.00     0.010 C
HETATM   19  C23 UNL     1      24.063  32.388   6.460  1.00  0.00    -0.036 C
HETATM   20  C24 UNL     1      22.670  32.440   7.107  1.00  0.00     0.016 C
ENDROOT
BRANCH   1  21
HETATM   21  C4  UNL     1      26.405  26.960   9.114  1.00  0.00     0.011 C
BRANCH  21  22
HETATM   22  C3  UNL     1      27.561  26.313   9.792  1.00  0.00     0.027 C
BRANCH  22  23
HETATM   23  C2  UNL     1      28.384  27.113  10.685  1.00  0.00    -0.037 C
HETATM   24  C1  UNL     1      29.666  27.386  10.374  1.00  0.00     0.007 C
ENDBRANCH  22  23
ENDBRANCH  21  22
ENDBRANCH   1  21
BRANCH   2  25
HETATM   25  O1  UNL     1      27.501  27.329   5.637  1.00  0.00    -0.395 OA
ATOM     26  H1  UNL     1      28.093  26.698   5.245  1.00  0.00     0.210 HD
ENDBRANCH   2  25
TORSDOF 4
ENDMDL