MODEL 3
REMARK VINA RESULT: -9.066482192      2.030      3.749
REMARK  5 active torsions:
REMARK  status: ('A' for Active; 'I' for Inactive)
REMARK    1  A    between atoms: C2_2  and  C3_3
REMARK    2  A    between atoms: C3_3  and  C4_4
REMARK    3  A    between atoms: C4_4  and  C5_5
REMARK    4  A    between atoms: C5_5  and  C7_7
REMARK    5  A    between atoms: C20_20  and  O1_21
ROOT
HETATM    1  C7  UNL     1      22.177  31.387   7.973  1.00  0.00    -0.006 C
HETATM    2  C8  UNL     1      23.079  32.611   8.027  1.00  0.00     0.006 C
HETATM    3  C9  UNL     1      24.251  32.321   7.098  1.00  0.00     0.006 C
HETATM    4  C10 UNL     1      24.378  30.849   7.257  1.00  0.00    -0.006 C
HETATM    5  C11 UNL     1      22.907  30.410   7.130  1.00  0.00    -0.006 C
HETATM    6  C12 UNL     1      22.910  28.992   7.633  1.00  0.00     0.006 C
HETATM    7  C13 UNL     1      23.769  28.136   6.776  1.00  0.00     0.006 C
HETATM    8  C14 UNL     1      25.126  28.647   6.438  1.00  0.00    -0.002 C
HETATM    9  C15 UNL     1      25.089  30.140   6.162  1.00  0.00    -0.005 C
HETATM   10  C16 UNL     1      26.388  30.722   5.754  1.00  0.00     0.006 C
HETATM   11  C17 UNL     1      27.592  29.902   6.100  1.00  0.00     0.006 C
HETATM   12  C18 UNL     1      27.341  29.244   7.412  1.00  0.00    -0.004 C
HETATM   13  C19 UNL     1      28.584  28.654   8.044  1.00  0.00     0.037 C
HETATM   14  C20 UNL     1      28.184  28.419   9.508  1.00  0.00     0.118 C
HETATM   15  C21 UNL     1      27.099  27.391   9.497  1.00  0.00     0.032 C
HETATM   16  C22 UNL     1      25.907  27.741   8.664  1.00  0.00     0.012 C
HETATM   17  C23 UNL     1      26.250  28.174   7.276  1.00  0.00    -0.036 C
HETATM   18  C24 UNL     1      26.968  26.981   6.620  1.00  0.00     0.016 C
ENDROOT
BRANCH   1  19
HETATM   19  C5  UNL     1      20.872  31.798   7.376  1.00  0.00    -0.014 C
HETATM   20  C6  UNL     1      20.837  31.853   5.885  1.00  0.00     0.010 C
BRANCH  19  21
HETATM   21  C4  UNL     1      19.712  30.981   7.895  1.00  0.00     0.004 C
BRANCH  21  22
HETATM   22  C3  UNL     1      18.945  30.396   6.741  1.00  0.00     0.000 C
BRANCH  22  23
HETATM   23  C2  UNL     1      18.505  28.978   7.121  1.00  0.00    -0.005 C
HETATM   24  C1  UNL     1      19.355  28.515   8.272  1.00  0.00     0.005 C
ENDBRANCH  22  23
ENDBRANCH  21  22
ENDBRANCH  19  21
ENDBRANCH   1  19
BRANCH  14  25
HETATM   25  O1  UNL     1      29.230  27.998  10.274  1.00  0.00    -0.396 OA
ATOM     26  H1  UNL     1      28.973  27.810  11.169  1.00  0.00     0.210 HD
ENDBRANCH  14  25
TORSDOF 5
ENDMDL