MODEL 1
REMARK VINA RESULT: -9.874911238      0.000      0.000
REMARK  5 active torsions:
REMARK  status: ('A' for Active; 'I' for Inactive)
REMARK    1  A    between atoms: C2_2  and  C3_3
REMARK    2  A    between atoms: C2_2  and  C6_10
REMARK    3  A    between atoms: C3_3  and  C4_4
REMARK    4  A    between atoms: C4_4  and  C5_5
REMARK    5  A    between atoms: C5_5  and  N1_6
ROOT
HETATM    1  C6  UNL     1      26.347  31.752   6.588  1.00  0.00    -0.002 C
HETATM    2  C7  UNL     1      27.099  32.103   7.891  1.00  0.00     0.006 C
HETATM    3  C8  UNL     1      28.069  30.969   7.995  1.00  0.00     0.006 C
HETATM    4  C9  UNL     1      27.668  29.937   6.960  1.00  0.00    -0.002 C
HETATM    5  C10 UNL     1      27.942  28.552   7.396  1.00  0.00    -0.005 C
HETATM    6  C11 UNL     1      29.430  28.474   7.701  1.00  0.00     0.006 C
HETATM    7  C12 UNL     1      29.817  27.147   8.288  1.00  0.00     0.010 C
HETATM    8  C13 UNL     1      28.944  26.715   9.432  1.00  0.00    -0.040 C
HETATM    9  C14 UNL     1      29.108  27.687  10.558  1.00  0.00     0.015 C
HETATM   10  C15 UNL     1      29.369  25.357   9.897  1.00  0.00     0.009 C
HETATM   11  C16 UNL     1      28.365  24.300   9.490  1.00  0.00     0.001 C
HETATM   12  C17 UNL     1      27.011  24.615  10.058  1.00  0.00     0.000 C
HETATM   13  C18 UNL     1      26.633  26.058   9.927  1.00  0.00     0.006 C
HETATM   14  C19 UNL     1      27.506  26.699   8.902  1.00  0.00    -0.002 C
HETATM   15  C20 UNL     1      27.165  28.144   8.628  1.00  0.00    -0.005 C
HETATM   16  C21 UNL     1      25.725  28.382   8.358  1.00  0.00     0.006 C
HETATM   17  C22 UNL     1      25.566  29.898   8.135  1.00  0.00     0.010 C
HETATM   18  C23 UNL     1      26.164  30.279   6.829  1.00  0.00    -0.036 C
HETATM   19  C24 UNL     1      25.684  29.470   5.677  1.00  0.00     0.016 C
ENDROOT
BRANCH   1  20
HETATM   20  C2  UNL     1      25.189  32.619   6.383  1.00  0.00    -0.014 C
HETATM   21  C1  UNL     1      25.024  33.177   4.995  1.00  0.00     0.010 C
BRANCH  20  22
HETATM   22  C3  UNL     1      25.005  33.715   7.365  1.00  0.00     0.006 C
BRANCH  22  23
HETATM   23  C4  UNL     1      23.959  34.731   7.133  1.00  0.00     0.027 C
BRANCH  23  24
HETATM   24  C5  UNL     1      22.577  34.450   7.596  1.00  0.00     0.229 C
BRANCH  24  25
HETATM   25  N1  UNL     1      21.572  34.396   6.585  1.00  0.00    -0.079 N
ATOM     26  H13 UNL     1      21.631  35.226   5.996  1.00  0.00     0.274 HD
ATOM     27  H12 UNL     1      21.805  33.671   5.907  1.00  0.00     0.274 HD
ATOM     28  H11 UNL     1      20.613  34.271   6.908  1.00  0.00     0.274 HD
ENDBRANCH  24  25
ENDBRANCH  23  24
ENDBRANCH  22  23
ENDBRANCH  20  22
ENDBRANCH   1  20
TORSDOF 5
ENDMDL