MODEL 3
REMARK VINA RESULT: -9.068523996      1.386      2.855
REMARK  5 active torsions:
REMARK  status: ('A' for Active; 'I' for Inactive)
REMARK    1  A    between atoms: C2_2  and  C3_3
REMARK    2  A    between atoms: C2_2  and  C6_8
REMARK    3  A    between atoms: C3_3  and  C4_4
REMARK    4  A    between atoms: C4_4  and  C5_5
REMARK    5  A    between atoms: C5_5  and  O1_6
ROOT
HETATM    1  C6  UNL     1      25.852  31.829   6.527  1.00  0.00    -0.002 C
HETATM    2  C7  UNL     1      26.152  32.367   7.858  1.00  0.00     0.006 C
HETATM    3  C8  UNL     1      27.436  31.602   8.218  1.00  0.00     0.006 C
HETATM    4  C9  UNL     1      27.647  30.575   7.118  1.00  0.00    -0.002 C
HETATM    5  C10 UNL     1      28.346  29.368   7.551  1.00  0.00    -0.005 C
HETATM    6  C11 UNL     1      29.432  28.850   6.635  1.00  0.00     0.006 C
HETATM    7  C12 UNL     1      30.337  28.003   7.503  1.00  0.00     0.006 C
HETATM    8  C13 UNL     1      29.689  27.182   8.529  1.00  0.00    -0.006 C
HETATM    9  C14 UNL     1      30.349  27.506   9.881  1.00  0.00     0.005 C
HETATM   10  C15 UNL     1      29.276  27.015  10.833  1.00  0.00     0.001 C
HETATM   11  C16 UNL     1      28.043  27.668  10.191  1.00  0.00     0.010 C
HETATM   12  C17 UNL     1      28.241  27.265   8.727  1.00  0.00    -0.036 C
HETATM   13  C18 UNL     1      27.606  25.875   8.610  1.00  0.00     0.016 C
HETATM   14  C19 UNL     1      27.474  28.168   7.821  1.00  0.00    -0.002 C
HETATM   15  C20 UNL     1      26.145  28.547   8.374  1.00  0.00     0.006 C
HETATM   16  C21 UNL     1      25.390  29.526   7.504  1.00  0.00     0.010 C
HETATM   17  C22 UNL     1      26.207  30.371   6.617  1.00  0.00    -0.036 C
HETATM   18  C23 UNL     1      26.226  29.851   5.187  1.00  0.00     0.016 C
ENDROOT
BRANCH   1  19
HETATM   19  C2  UNL     1      24.653  32.239   5.794  1.00  0.00    -0.014 C
HETATM   20  C1  UNL     1      25.037  33.396   4.883  1.00  0.00     0.010 C
BRANCH  19  21
HETATM   21  C3  UNL     1      23.360  32.372   6.476  1.00  0.00     0.007 C
BRANCH  21  22
HETATM   22  C4  UNL     1      22.701  33.692   6.612  1.00  0.00     0.026 C
BRANCH  22  23
HETATM   23  C5  UNL     1      22.940  34.449   7.890  1.00  0.00     0.164 C
BRANCH  23  24
HETATM   24  O1  UNL     1      24.049  35.319   7.751  1.00  0.00    -0.401 OA
ATOM     25  H1  UNL     1      23.769  36.226   7.798  1.00  0.00     0.209 HD
ENDBRANCH  23  24
ENDBRANCH  22  23
ENDBRANCH  21  22
ENDBRANCH  19  21
ENDBRANCH   1  19
TORSDOF 5
ENDMDL