MODEL 2
REMARK VINA RESULT: -9.624213235      1.748      4.124
REMARK  6 active torsions:
REMARK  status: ('A' for Active; 'I' for Inactive)
REMARK    1  A    between atoms: C2_2  and  C3_3
REMARK    2  A    between atoms: C13_13  and  C14_14
REMARK    3  A    between atoms: C15_15  and  C16_16
REMARK    4  A    between atoms: C16_16  and  N1_17
REMARK    5  A    between atoms: N1_17  and  C18_19
REMARK    6  A    between atoms: C18_19  and  C19_20
ROOT
HETATM    1  C3  UNL     1      24.747  33.800   7.275  1.00  0.00     0.007 C
HETATM    2  C4  UNL     1      23.524  33.121   7.868  1.00  0.00     0.008 C
HETATM    3  C5  UNL     1      22.427  34.103   8.092  1.00  0.00     0.001 C
HETATM    4  C6  UNL     1      21.234  33.865   7.188  1.00  0.00     0.000 C
HETATM    5  C7  UNL     1      20.579  32.531   7.477  1.00  0.00     0.000 C
HETATM    6  C8  UNL     1      20.655  31.577   6.298  1.00  0.00     0.000 C
HETATM    7  C9  UNL     1      20.822  30.127   6.766  1.00  0.00     0.000 C
HETATM    8  C10 UNL     1      22.061  29.501   6.174  1.00  0.00     0.000 C
HETATM    9  C11 UNL     1      23.058  29.146   7.223  1.00  0.00     0.001 C
HETATM   10  C12 UNL     1      24.490  29.200   6.746  1.00  0.00     0.017 C
HETATM   11  C13 UNL     1      25.430  29.581   7.884  1.00  0.00     0.065 C
HETATM   12  C22 UNL     1      26.523  30.515   7.422  1.00  0.00     0.017 C
HETATM   13  C23 UNL     1      26.301  31.932   7.964  1.00  0.00     0.002 C
HETATM   14  C24 UNL     1      25.761  32.761   6.826  1.00  0.00     0.008 C
ENDROOT
BRANCH  11  15
HETATM   15  C14 UNL     1      26.040  28.354   8.453  1.00  0.00    -0.096 C
HETATM   16  C15 UNL     1      26.521  27.350   8.886  1.00  0.00    -0.061 C
BRANCH  16  17
HETATM   17  C16 UNL     1      27.103  26.088   9.396  1.00  0.00     0.150 C
BRANCH  17  18
HETATM   18  N1  UNL     1      28.251  26.382  10.147  1.00  0.00    -0.387 N
HETATM   19  C17 UNL     1      29.410  26.835   9.481  1.00  0.00     0.149 C
BRANCH  18  20
HETATM   20  C18 UNL     1      28.423  25.759  11.414  1.00  0.00     0.126 C
BRANCH  20  21
HETATM   21  C19 UNL     1      29.572  24.769  11.382  1.00  0.00    -0.005 C
HETATM   22  C20 UNL     1      30.242  24.747  12.762  1.00  0.00     0.011 C
HETATM   23  C21 UNL     1      29.152  23.394  10.977  1.00  0.00     0.011 C
ENDBRANCH  20  21
ENDBRANCH  18  20
ENDBRANCH  17  18
ENDBRANCH  16  17
ENDBRANCH  11  15
BRANCH   1  24
HETATM   24  C2  UNL     1      24.372  34.607   6.105  1.00  0.00    -0.032 C
HETATM   25  C1  UNL     1      24.290  34.098   4.912  1.00  0.00     0.007 C
ENDBRANCH   1  24
TORSDOF 6
ENDMDL