MODEL 1
REMARK VINA RESULT: -10.290846562      0.000      0.000
REMARK  4 active torsions:
REMARK  status: ('A' for Active; 'I' for Inactive)
REMARK    1  A    between atoms: C2_2  and  C3_3
REMARK    2  A    between atoms: C3_3  and  C4_4
REMARK    3  A    between atoms: C4_4  and  N1_5
REMARK    4  A    between atoms: C21_23  and  O1_24
ROOT
HETATM    1  N1  UNL     1      21.805  31.382   6.931  1.00  0.00    -0.396 N
ATOM      2  H1  UNL     1      22.090  30.454   6.620  1.00  0.00     0.159 HD
HETATM    3  C5  UNL     1      22.659  32.178   7.465  1.00  0.00    -0.013 C
HETATM    4  C6  UNL     1      22.181  33.521   7.899  1.00  0.00     0.052 C
HETATM    5  C7  UNL     1      22.414  34.582   6.844  1.00  0.00     0.006 C
HETATM    6  C8  UNL     1      23.899  34.960   6.891  1.00  0.00     0.001 C
HETATM    7  C9  UNL     1      24.634  33.748   6.313  1.00  0.00     0.005 C
HETATM    8  C10 UNL     1      24.993  32.815   7.453  1.00  0.00    -0.005 C
HETATM    9  C11 UNL     1      26.436  32.411   7.249  1.00  0.00     0.006 C
HETATM   10  C12 UNL     1      26.459  31.582   5.983  1.00  0.00     0.006 C
HETATM   11  C13 UNL     1      25.727  30.297   6.280  1.00  0.00    -0.003 C
HETATM   12  C14 UNL     1      24.335  30.498   6.730  1.00  0.00    -0.000 C
HETATM   13  C15 UNL     1      23.879  29.207   7.422  1.00  0.00     0.006 C
HETATM   14  C16 UNL     1      24.625  28.005   6.841  1.00  0.00     0.010 C
HETATM   15  C17 UNL     1      26.036  28.039   7.322  1.00  0.00    -0.038 C
HETATM   16  C18 UNL     1      26.070  27.562   8.780  1.00  0.00     0.015 C
HETATM   17  C19 UNL     1      26.966  27.151   6.555  1.00  0.00     0.012 C
HETATM   18  C20 UNL     1      28.313  27.845   6.792  1.00  0.00     0.033 C
HETATM   19  C21 UNL     1      27.930  29.290   6.552  1.00  0.00     0.123 C
HETATM   20  C22 UNL     1      26.566  29.448   7.219  1.00  0.00     0.027 C
HETATM   21  C23 UNL     1      24.070  31.661   7.596  1.00  0.00     0.039 C
ENDROOT
BRANCH   1  22
HETATM   22  C4  UNL     1      20.463  31.805   6.779  1.00  0.00     0.119 C
BRANCH  22  23
HETATM   23  C3  UNL     1      19.466  30.695   7.028  1.00  0.00     0.019 C
BRANCH  23  24
HETATM   24  C2  UNL     1      19.914  29.961   8.265  1.00  0.00    -0.003 C
HETATM   25  C1  UNL     1      19.871  28.454   8.067  1.00  0.00     0.005 C
ENDBRANCH  23  24
ENDBRANCH  22  23
ENDBRANCH   1  22
BRANCH  19  26
HETATM   26  O1  UNL     1      28.874  30.105   7.131  1.00  0.00    -0.395 OA
ATOM     27  H1  UNL     1      28.445  30.679   7.754  1.00  0.00     0.210 HD
ENDBRANCH  19  26
TORSDOF 4
ENDMDL