MODEL 2
REMARK VINA RESULT: -9.846246841      1.012      1.330
REMARK  5 active torsions:
REMARK  status: ('A' for Active; 'I' for Inactive)
REMARK    1  A    between atoms: C2_2  and  C4_4
REMARK    2  A    between atoms: C4_4  and  C5_5
REMARK    3  A    between atoms: C5_5  and  C6_6
REMARK    4  A    between atoms: C6_6  and  C7_7
REMARK    5  A    between atoms: C7_7  and  C9_9
ROOT
HETATM    1  C9  UNL     1      21.996  33.527   6.734  1.00  0.00    -0.010 C
HETATM    2  C10 UNL     1      21.902  33.346   5.348  1.00  0.00     0.005 C
HETATM    3  C11 UNL     1      21.566  32.104   4.496  1.00  0.00     0.005 C
HETATM    4  C12 UNL     1      21.125  31.084   5.389  1.00  0.00    -0.009 C
HETATM    5  C13 UNL     1      22.285  31.086   6.291  1.00  0.00     0.015 C
HETATM    6  C14 UNL     1      21.584  31.188   7.557  1.00  0.00    -0.034 C
HETATM    7  C15 UNL     1      20.156  31.527   7.736  1.00  0.00     0.010 C
HETATM    8  C16 UNL     1      19.069  30.719   7.172  1.00  0.00     0.008 C
HETATM    9  C17 UNL     1      19.437  29.547   6.338  1.00  0.00     0.014 C
HETATM   10  C18 UNL     1      19.393  28.385   7.238  1.00  0.00     0.172 C
HETATM   11  O1  UNL     1      20.120  28.269   8.319  1.00  0.00    -0.390 OA
HETATM   12  C19 UNL     1      20.730  29.269   8.999  1.00  0.00     0.172 C
HETATM   13  C20 UNL     1      21.867  29.954   8.221  1.00  0.00     0.018 C
HETATM   14  C21 UNL     1      22.263  28.775   7.299  1.00  0.00     0.008 C
HETATM   15  C22 UNL     1      21.600  28.650   6.004  1.00  0.00     0.006 C
HETATM   16  C23 UNL     1      20.675  29.729   5.470  1.00  0.00    -0.004 C
HETATM   17  C24 UNL     1      22.180  32.554   7.883  1.00  0.00     0.015 C
ENDROOT
BRANCH   1  18
HETATM   18  C7  UNL     1      23.117  34.554   6.995  1.00  0.00    -0.014 C
HETATM   19  C8  UNL     1      23.757  35.122   5.812  1.00  0.00     0.010 C
BRANCH  18  20
HETATM   20  C6  UNL     1      24.145  34.054   8.024  1.00  0.00     0.005 C
BRANCH  20  21
HETATM   21  C5  UNL     1      25.421  33.634   7.413  1.00  0.00     0.001 C
BRANCH  21  22
HETATM   22  C4  UNL     1      25.703  32.187   7.463  1.00  0.00     0.004 C
BRANCH  22  23
HETATM   23  C2  UNL     1      26.043  31.440   6.243  1.00  0.00    -0.023 C
HETATM   24  C1  UNL     1      25.682  30.007   6.155  1.00  0.00     0.009 C
HETATM   25  C3  UNL     1      25.550  32.145   4.972  1.00  0.00     0.009 C
ENDBRANCH  22  23
ENDBRANCH  21  22
ENDBRANCH  20  21
ENDBRANCH  18  20
ENDBRANCH   1  18
TORSDOF 5
ENDMDL