MODEL 3
REMARK VINA RESULT: -10.364140221      2.400      3.801
REMARK  5 active torsions:
REMARK  status: ('A' for Active; 'I' for Inactive)
REMARK    1  A    between atoms: C2_2  and  C3_3
REMARK    2  A    between atoms: C2_2  and  C11_11
REMARK    3  A    between atoms: C3_3  and  C4_4
REMARK    4  A    between atoms: C4_4  and  C5_5
REMARK    5  A    between atoms: C18_18  and  O1_19
ROOT
HETATM    1  C11 UNL     1      26.411  31.226   6.496  1.00  0.00    -0.002 C
HETATM    2  C12 UNL     1      26.458  31.923   7.848  1.00  0.00     0.006 C
HETATM    3  C13 UNL     1      27.071  30.927   8.800  1.00  0.00     0.006 C
HETATM    4  C14 UNL     1      27.199  29.698   8.020  1.00  0.00    -0.002 C
HETATM    5  C15 UNL     1      27.131  28.421   8.794  1.00  0.00    -0.005 C
HETATM    6  C16 UNL     1      28.276  28.405   9.784  1.00  0.00     0.008 C
HETATM    7  C17 UNL     1      28.149  27.108  10.565  1.00  0.00     0.032 C
HETATM    8  C18 UNL     1      28.384  25.969   9.578  1.00  0.00     0.118 C
HETATM    9  C19 UNL     1      27.294  26.013   8.500  1.00  0.00     0.036 C
HETATM   10  C20 UNL     1      27.432  27.307   7.781  1.00  0.00    -0.008 C
HETATM   11  C21 UNL     1      26.515  27.381   6.610  1.00  0.00     0.006 C
HETATM   12  C22 UNL     1      26.474  28.738   5.932  1.00  0.00     0.010 C
HETATM   13  C23 UNL     1      26.159  29.783   6.928  1.00  0.00    -0.036 C
HETATM   14  C24 UNL     1      24.757  29.615   7.462  1.00  0.00     0.016 C
ENDROOT
BRANCH   1  15
HETATM   15  C2  UNL     1      25.387  31.810   5.582  1.00  0.00    -0.014 C
HETATM   16  C1  UNL     1      25.647  31.539   4.141  1.00  0.00     0.010 C
BRANCH  15  17
HETATM   17  C3  UNL     1      24.871  33.142   5.973  1.00  0.00     0.005 C
BRANCH  17  18
HETATM   18  C4  UNL     1      23.414  33.305   5.933  1.00  0.00     0.005 C
BRANCH  18  19
HETATM   19  C5  UNL     1      22.469  32.199   6.062  1.00  0.00    -0.014 C
HETATM   20  C6  UNL     1      21.524  31.964   4.908  1.00  0.00     0.004 C
HETATM   21  C7  UNL     1      20.718  30.726   5.245  1.00  0.00     0.000 C
HETATM   22  C8  UNL     1      19.886  30.929   6.492  1.00  0.00     0.000 C
HETATM   23  C9  UNL     1      20.739  31.349   7.646  1.00  0.00     0.000 C
HETATM   24  C10 UNL     1      21.532  32.563   7.242  1.00  0.00     0.004 C
ENDBRANCH  18  19
ENDBRANCH  17  18
ENDBRANCH  15  17
ENDBRANCH   1  15
BRANCH   8  25
HETATM   25  O1  UNL     1      29.620  26.222   8.978  1.00  0.00    -0.396 OA
ATOM     26  H1  UNL     1      29.572  25.850   8.105  1.00  0.00     0.210 HD
ENDBRANCH   8  25
TORSDOF 5
ENDMDL