MODEL 3
REMARK VINA RESULT: -8.751154598      3.049      5.292
REMARK  5 active torsions:
REMARK  status: ('A' for Active; 'I' for Inactive)
REMARK    1  A    between atoms: C19_19  and  C20_20
REMARK    2  A    between atoms: C20_20  and  C22_22
REMARK    3  A    between atoms: C22_22  and  C23_23
REMARK    4  A    between atoms: C23_23  and  C24_24
REMARK    5  A    between atoms: C24_24  and  O1_25
ROOT
HETATM    1  C1  UNL     1      25.345  33.679   8.348  1.00  0.00     0.014 C
HETATM    2  C2  UNL     1      25.022  32.782   7.438  1.00  0.00    -0.084 C
HETATM    3  C3  UNL     1      25.582  32.872   6.099  1.00  0.00     0.034 C
HETATM    4  C4  UNL     1      25.014  31.983   5.059  1.00  0.00     0.005 C
HETATM    5  C5  UNL     1      24.107  30.898   5.501  1.00  0.00     0.011 C
HETATM    6  C6  UNL     1      24.310  30.478   6.962  1.00  0.00    -0.025 C
HETATM    7  C7  UNL     1      24.081  31.693   7.787  1.00  0.00     0.023 C
HETATM    8  C8  UNL     1      22.695  32.278   7.564  1.00  0.00     0.010 C
HETATM    9  C9  UNL     1      21.735  31.509   8.409  1.00  0.00     0.010 C
HETATM   10  C10 UNL     1      21.049  30.496   7.570  1.00  0.00    -0.040 C
HETATM   11  C11 UNL     1      20.111  31.254   6.621  1.00  0.00     0.015 C
HETATM   12  C12 UNL     1      20.119  29.683   8.475  1.00  0.00     0.009 C
HETATM   13  C13 UNL     1      19.870  28.494   7.538  1.00  0.00     0.001 C
HETATM   14  C14 UNL     1      21.287  28.173   7.130  1.00  0.00     0.006 C
HETATM   15  C15 UNL     1      21.930  29.550   6.859  1.00  0.00    -0.002 C
HETATM   16  C16 UNL     1      23.332  29.409   7.307  1.00  0.00    -0.000 C
HETATM   17  C17 UNL     1      23.903  28.234   6.478  1.00  0.00     0.006 C
HETATM   18  C18 UNL     1      25.396  28.434   6.523  1.00  0.00     0.006 C
HETATM   19  C19 UNL     1      25.648  29.855   7.007  1.00  0.00    -0.001 C
ENDROOT
BRANCH  19  20
HETATM   20  C20 UNL     1      26.554  29.989   8.133  1.00  0.00    -0.014 C
HETATM   21  C21 UNL     1      27.934  30.491   7.574  1.00  0.00     0.010 C
BRANCH  20  22
HETATM   22  C22 UNL     1      26.912  28.895   9.041  1.00  0.00     0.007 C
BRANCH  22  23
HETATM   23  C23 UNL     1      28.268  28.252   8.870  1.00  0.00     0.026 C
BRANCH  23  24
HETATM   24  C24 UNL     1      28.070  26.763   8.471  1.00  0.00     0.164 C
BRANCH  24  25
HETATM   25  O1  UNL     1      28.683  26.544   7.225  1.00  0.00    -0.401 OA
ATOM     26  H1  UNL     1      28.051  26.144   6.640  1.00  0.00     0.209 HD
ENDBRANCH  24  25
ENDBRANCH  23  24
ENDBRANCH  22  23
ENDBRANCH  20  22
ENDBRANCH  19  20
TORSDOF 5
ENDMDL