MODEL 4
REMARK VINA RESULT: -9.891283056      1.305      2.764
REMARK  5 active torsions:
REMARK  status: ('A' for Active; 'I' for Inactive)
REMARK    1  A    between atoms: C2_2  and  C3_3
REMARK    2  A    between atoms: C3_3  and  C4_4
REMARK    3  A    between atoms: C4_4  and  C5_5
REMARK    4  A    between atoms: C5_5  and  C6_6
REMARK    5  A    between atoms: C19_19  and  O1_20
ROOT
HETATM    1  C6  UNL     1      27.964  28.818   7.032  1.00  0.00    -0.083 C
HETATM    2  C7  UNL     1      27.276  29.121   5.942  1.00  0.00    -0.024 C
HETATM    3  C8  UNL     1      26.042  29.920   5.933  1.00  0.00     0.033 C
HETATM    4  C9  UNL     1      25.452  30.037   7.305  1.00  0.00    -0.002 C
HETATM    5  C10 UNL     1      26.523  30.378   8.315  1.00  0.00    -0.006 C
HETATM    6  C11 UNL     1      27.137  31.691   7.897  1.00  0.00     0.005 C
HETATM    7  C12 UNL     1      26.056  32.743   7.986  1.00  0.00     0.006 C
HETATM    8  C13 UNL     1      24.892  32.439   7.064  1.00  0.00    -0.002 C
HETATM    9  C14 UNL     1      24.374  31.068   7.405  1.00  0.00    -0.005 C
HETATM   10  C15 UNL     1      23.187  30.654   6.601  1.00  0.00     0.006 C
HETATM   11  C16 UNL     1      22.591  31.895   5.927  1.00  0.00     0.006 C
HETATM   12  C17 UNL     1      22.450  32.940   6.986  1.00  0.00    -0.004 C
HETATM   13  C18 UNL     1      21.555  34.067   6.578  1.00  0.00     0.037 C
HETATM   14  C19 UNL     1      22.058  34.604   5.254  1.00  0.00     0.118 C
HETATM   15  C20 UNL     1      23.523  34.917   5.313  1.00  0.00     0.032 C
HETATM   16  C21 UNL     1      24.122  34.789   6.677  1.00  0.00     0.012 C
HETATM   17  C22 UNL     1      23.827  33.484   7.352  1.00  0.00    -0.036 C
HETATM   18  C23 UNL     1      23.761  33.771   8.858  1.00  0.00     0.016 C
HETATM   19  C24 UNL     1      27.543  29.267   8.382  1.00  0.00     0.039 C
ENDROOT
BRANCH   1  20
HETATM   20  C5  UNL     1      29.201  28.002   6.920  1.00  0.00     0.034 C
BRANCH  20  21
HETATM   21  C4  UNL     1      29.366  27.068   8.075  1.00  0.00     0.004 C
BRANCH  21  22
HETATM   22  C3  UNL     1      30.525  27.384   8.967  1.00  0.00    -0.000 C
BRANCH  22  23
HETATM   23  C2  UNL     1      30.201  27.446  10.416  1.00  0.00    -0.005 C
HETATM   24  C1  UNL     1      28.928  26.657  10.650  1.00  0.00     0.005 C
ENDBRANCH  22  23
ENDBRANCH  21  22
ENDBRANCH  20  21
ENDBRANCH   1  20
BRANCH  14  25
HETATM   25  O1  UNL     1      21.282  35.734   4.963  1.00  0.00    -0.396 OA
ATOM     26  H1  UNL     1      20.900  35.584   4.106  1.00  0.00     0.210 HD
ENDBRANCH  14  25
TORSDOF 5
ENDMDL