MODEL 2
REMARK VINA RESULT: -9.029243646      0.983      1.031
REMARK  5 active torsions:
REMARK  status: ('A' for Active; 'I' for Inactive)
REMARK    1  A    between atoms: C5_5  and  N1_6
REMARK    2  A    between atoms: N1_6  and  C6_8
REMARK    3  A    between atoms: C6_8  and  N2_10
REMARK       I    between atoms: N2_10  and  C7_12
REMARK    4  A    between atoms: C7_12  and  C8_14
REMARK    5  A    between atoms: C19_27  and  O2_28
ROOT
HETATM    1  C1  UNL     1      12.358  -8.842  24.461  1.00  0.00     0.018 C
HETATM    2  C2  UNL     1      12.532  -9.778  23.704  1.00  0.00    -0.076 C
HETATM    3  C3  UNL     1      12.720 -10.872  22.799  1.00  0.00     0.039 A
HETATM    4  C4  UNL     1      13.652 -10.828  21.793  1.00  0.00     0.070 A
HETATM    5  C5  UNL     1      13.841 -11.880  20.916  1.00  0.00     0.108 A
HETATM    6  N4  UNL     1      13.082 -12.972  21.063  1.00  0.00    -0.351 N
ATOM      7  H4  UNL     1      13.203 -13.761  20.427  1.00  0.00     0.166 HD
HETATM    8  C22 UNL     1      12.150 -13.041  22.053  1.00  0.00     0.110 A
HETATM    9  C23 UNL     1      11.946 -12.001  22.940  1.00  0.00     0.045 A
HETATM   10 BR1  UNL     1      10.656 -12.059  24.333  1.00  0.00    -0.048 Br
ENDROOT
BRANCH   5  11
HETATM   11  N1  UNL     1      14.740 -11.741  20.007  1.00  0.00    -0.319 N
ATOM     12  H1  UNL     1      14.829 -10.833  19.549  1.00  0.00     0.169 HD
BRANCH  11  13
HETATM   13  C6  UNL     1      15.614 -12.784  19.606  1.00  0.00     0.180 C
HETATM   14  S1  UNL     1      15.559 -13.219  18.038  1.00  0.00    -0.040 SA
BRANCH  13  15
HETATM   15  N2  UNL     1      16.501 -13.418  20.555  1.00  0.00    -0.299 N
HETATM   16  C7  UNL     1      16.198 -14.678  21.103  1.00  0.00     0.261 C
HETATM   17  O1  UNL     1      15.103 -15.212  20.709  1.00  0.00    -0.267 OA
ATOM     18  H2  UNL     1      17.361 -12.944  20.832  1.00  0.00     0.171 HD
BRANCH  16  19
HETATM   19  C8  UNL     1      17.036 -15.357  22.048  1.00  0.00     0.084 A
HETATM   20  C9  UNL     1      16.689 -16.611  22.359  1.00  0.00     0.032 A
HETATM   21  C10 UNL     1      17.437 -17.414  23.293  1.00  0.00    -0.033 A
HETATM   22  C11 UNL     1      17.039 -18.653  23.531  1.00  0.00     0.024 C
HETATM   23  C12 UNL     1      18.669 -16.917  23.999  1.00  0.00    -0.010 A
HETATM   24  C13 UNL     1      19.301 -17.760  24.891  1.00  0.00     0.013 C
HETATM   25  C20 UNL     1      19.035 -15.631  23.680  1.00  0.00     0.061 A
HETATM   26  C14 UNL     1      19.674 -17.654  26.186  1.00  0.00     0.001 C
HETATM   27  C15 UNL     1      20.539 -16.812  26.830  1.00  0.00     0.002 C
HETATM   28  C16 UNL     1      21.854 -16.539  26.538  1.00  0.00     0.032 C
HETATM   29  C17 UNL     1      22.163 -16.300  25.230  1.00  0.00     0.062 A
HETATM   30  N3  UNL     1      22.689 -16.166  23.925  1.00  0.00    -0.350 N
HETATM   31  C18 UNL     1      21.416 -15.618  24.221  1.00  0.00     0.094 A
ATOM     32  H3  UNL     1      23.440 -16.338  23.257  1.00  0.00     0.166 HD
HETATM   33  C19 UNL     1      20.205 -14.999  24.175  1.00  0.00     0.109 C
HETATM   34  C21 UNL     1      18.218 -14.849  22.706  1.00  0.00     0.201 A
HETATM   35  O3  UNL     1      18.578 -13.672  22.437  1.00  0.00    -0.286 OA
BRANCH  33  36
HETATM   36  O2  UNL     1      20.031 -13.691  24.605  1.00  0.00    -0.357 OA
ATOM     37  H2  UNL     1      19.892 -12.976  23.996  1.00  0.00     0.217 HD
ENDBRANCH  33  36
ENDBRANCH  16  19
ENDBRANCH  13  15
ENDBRANCH  11  13
ENDBRANCH   5  11
TORSDOF 5
ENDMDL