MODEL 4
REMARK VINA RESULT: -7.838078928      2.742      4.187
REMARK  8 active torsions:
REMARK  status: ('A' for Active; 'I' for Inactive)
REMARK    1  A    between atoms: N1_4  and  C4_5
REMARK    2  A    between atoms: C4_5  and  O1_6
REMARK    3  A    between atoms: C4_5  and  N2_8
REMARK    4  A    between atoms: C6_10  and  N3_11
REMARK    5  A    between atoms: C8_16  and  C9_17
REMARK    6  A    between atoms: N5_26  and  C16_27
REMARK    7  A    between atoms: C16_27  and  O3_28
REMARK    8  A    between atoms: C16_27  and  N6_30
ROOT
HETATM    1  C1  UNL     1      18.049 -15.234  24.923  1.00  0.00     0.034 C
HETATM    2  C2  UNL     1      18.911 -14.978  23.671  1.00  0.00     0.102 C
HETATM    3  C3  UNL     1      18.156 -14.302  22.605  1.00  0.00     0.152 C
HETATM    4  N1  UNL     1      17.073 -14.976  21.961  1.00  0.00    -0.337 N
HETATM    5  C10 UNL     1      16.933 -16.388  21.576  1.00  0.00     0.030 C
HETATM    6  C11 UNL     1      16.462 -16.415  20.094  1.00  0.00     0.038 C
HETATM    7  C12 UNL     1      15.838 -17.094  22.327  1.00  0.00     0.038 C
HETATM    8  C13 UNL     1      18.223 -17.083  21.496  1.00  0.00     0.055 C
HETATM    9  C14 UNL     1      19.067 -17.357  22.684  1.00  0.00     0.086 C
HETATM   10  C15 UNL     1      18.426 -18.309  23.671  1.00  0.00     0.032 C
HETATM   11  N5  UNL     1      19.641 -16.206  23.328  1.00  0.00    -0.337 N
ENDROOT
BRANCH  11  12
HETATM   12  C16 UNL     1      21.002 -16.154  23.664  1.00  0.00     0.220 C
BRANCH  12  13
HETATM   13  O3  UNL     1      21.535 -14.974  23.366  1.00  0.00    -0.332 OA
ATOM     14  H3  UNL     1      22.102 -14.660  24.061  1.00  0.00     0.220 HD
ENDBRANCH  12  13
BRANCH  12  15
HETATM   15  N6  UNL     1      21.901 -17.059  24.240  1.00  0.00    -0.311 N
HETATM   16  C17 UNL     1      22.941 -17.872  23.735  1.00  0.00     0.223 C
HETATM   17 CL1  UNL     1      22.356 -19.580  23.517  1.00  0.00    -0.097 Cl
HETATM   18  C18 UNL     1      23.966 -17.876  24.833  1.00  0.00     0.023 A
HETATM   19  C19 UNL     1      25.296 -18.071  25.130  1.00  0.00     0.119 A
HETATM   20  C20 UNL     1      23.345 -17.574  26.007  1.00  0.00     0.064 A
HETATM   21  N7  UNL     1      25.435 -17.886  26.447  1.00  0.00    -0.311 N
HETATM   22  N8  UNL     1      24.266 -17.585  26.987  1.00  0.00    -0.302 N
ATOM     23  H7  UNL     1      26.314 -17.965  26.959  1.00  0.00     0.186 HD
ATOM     24  H8  UNL     1      24.093 -17.396  27.975  1.00  0.00     0.186 HD
HETATM   25  C21 UNL     1      21.906 -17.354  25.691  1.00  0.00     0.075 C
HETATM   26  C22 UNL     1      21.162 -18.622  26.001  1.00  0.00     0.045 C
HETATM   27  C23 UNL     1      21.385 -16.238  26.545  1.00  0.00     0.045 C
ENDBRANCH  12  15
ENDBRANCH  11  12
BRANCH   4  28
HETATM   28  C4  UNL     1      16.018 -14.152  21.591  1.00  0.00     0.218 C
BRANCH  28  29
HETATM   29  O1  UNL     1      15.025 -14.140  22.442  1.00  0.00    -0.332 OA
ATOM     30  H1  UNL     1      15.226 -13.718  23.269  1.00  0.00     0.220 HD
ENDBRANCH  28  29
BRANCH  28  31
HETATM   31  N2  UNL     1      15.793 -13.331  20.488  1.00  0.00    -0.332 N
HETATM   32  C5  UNL     1      16.601 -12.509  19.630  1.00  0.00     0.160 C
HETATM   33  C6  UNL     1      15.905 -12.456  18.272  1.00  0.00     0.204 C
HETATM   34  C7  UNL     1      14.632 -13.235  18.460  1.00  0.00     0.069 C
HETATM   35  C8  UNL     1      14.424 -13.141  19.934  1.00  0.00     0.179 C
BRANCH  33  36
HETATM   36  N3  UNL     1      16.709 -13.034  17.222  1.00  0.00    -0.073 N
ATOM     37  H33 UNL     1      16.504 -12.602  16.321  1.00  0.00     0.274 HD
ATOM     38  H32 UNL     1      17.688 -12.761  17.314  1.00  0.00     0.274 HD
ATOM     39  H31 UNL     1      16.613 -14.048  17.176  1.00  0.00     0.274 HD
ENDBRANCH  33  36
BRANCH  35  40
HETATM   40  C9  UNL     1      13.845 -11.876  20.399  1.00  0.00     0.254 C
HETATM   41  N4  UNL     1      13.899 -11.448  21.749  1.00  0.00    -0.060 NA
HETATM   42  O2  UNL     1      13.276 -11.140  19.561  1.00  0.00    -0.275 OA
ENDBRANCH  35  40
ENDBRANCH  28  31
ENDBRANCH   4  28
TORSDOF 8
ENDMDL