MODEL 1
REMARK VINA RESULT: -7.394087208      0.000      0.000
REMARK  9 active torsions:
REMARK  status: ('A' for Active; 'I' for Inactive)
REMARK    1  A    between atoms: C2_2  and  O1_5
REMARK    2  A    between atoms: O1_5  and  C5_6
REMARK       I    between atoms: C5_6  and  N1_8
REMARK    3  A    between atoms: C7_10  and  N2_11
REMARK    4  A    between atoms: C8_15  and  C10_17
REMARK    5  A    between atoms: C11_18  and  C12_19
REMARK    6  A    between atoms: C16_24  and  C17_25
REMARK    7  A    between atoms: C18_26  and  C19_27
REMARK    8  A    between atoms: C19_27  and  C20_28
REMARK    9  A    between atoms: C20_28  and  N3_29
ROOT
HETATM    1  C12 UNL     1      16.032 -13.680  21.417  1.00  0.00     0.020 A
HETATM    2  C13 UNL     1      14.823 -13.261  21.927  1.00  0.00     0.039 A
HETATM    3  C14 UNL     1      13.837 -12.665  21.160  1.00  0.00     0.013 A
HETATM    4 BR1  UNL     1      12.187 -12.099  21.884  1.00  0.00    -0.051 Br
HETATM    5  C15 UNL     1      14.116 -12.491  19.801  1.00  0.00     0.039 A
HETATM    6  C16 UNL     1      15.314 -12.898  19.256  1.00  0.00     0.020 A
HETATM    7  C23 UNL     1      16.260 -13.487  20.069  1.00  0.00     0.041 A
ENDROOT
BRANCH   1   8
HETATM    8  C11 UNL     1      17.046 -14.301  22.233  1.00  0.00    -0.066 C
HETATM    9  C10 UNL     1      17.881 -14.821  22.932  1.00  0.00    -0.087 C
BRANCH   9  10
HETATM   10  C8  UNL     1      18.877 -15.463  23.794  1.00  0.00     0.066 C
HETATM   11  C7  UNL     1      18.280 -16.579  24.619  1.00  0.00     0.223 C
HETATM   12  C6  UNL     1      19.292 -17.699  24.549  1.00  0.00     0.162 C
HETATM   13  N1  UNL     1      20.407 -17.178  23.784  1.00  0.00    -0.324 N
HETATM   14  C5  UNL     1      21.761 -17.589  23.922  1.00  0.00     0.363 C
HETATM   15  C24 UNL     1      19.846 -16.188  22.889  1.00  0.00     0.152 C
HETATM   16  O2  UNL     1      22.691 -17.103  23.231  1.00  0.00    -0.238 OA
HETATM   17  C9  UNL     1      19.591 -14.444  24.637  1.00  0.00     0.033 C
BRANCH  11  18
HETATM   18  N2  UNL     1      17.077 -17.025  23.970  1.00  0.00    -0.072 N
ATOM     19  H23 UNL     1      17.254 -17.439  23.055  1.00  0.00     0.274 HD
ATOM     20  H22 UNL     1      16.670 -17.847  24.416  1.00  0.00     0.274 HD
ATOM     21  H21 UNL     1      16.430 -16.238  23.928  1.00  0.00     0.274 HD
ENDBRANCH  11  18
BRANCH  14  22
HETATM   22  O1  UNL     1      22.113 -18.562  24.844  1.00  0.00    -0.294 OA
BRANCH  22  23
HETATM   23  C2  UNL     1      22.611 -18.217  26.094  1.00  0.00     0.061 C
HETATM   24  C1  UNL     1      22.166 -19.310  27.074  1.00  0.00     0.046 C
HETATM   25  C3  UNL     1      22.139 -16.885  26.598  1.00  0.00     0.046 C
HETATM   26  C4  UNL     1      24.115 -18.225  26.066  1.00  0.00     0.046 C
ENDBRANCH  22  23
ENDBRANCH  14  22
ENDBRANCH   9  10
ENDBRANCH   1   8
BRANCH   6  27
HETATM   27  C17 UNL     1      15.559 -12.702  17.856  1.00  0.00    -0.066 C
HETATM   28  C18 UNL     1      15.783 -12.535  16.682  1.00  0.00    -0.078 C
BRANCH  28  29
HETATM   29  C19 UNL     1      16.053 -12.307  15.264  1.00  0.00     0.143 C
HETATM   30  C21 UNL     1      16.656 -10.958  14.950  1.00  0.00     0.157 C
HETATM   31  N4  UNL     1      15.326 -10.438  14.869  1.00  0.00    -0.357 N
HETATM   32  C22 UNL     1      14.844 -11.765  14.607  1.00  0.00     0.241 C
ATOM     33  H4  UNL     1      14.899  -9.516  14.958  1.00  0.00     0.162 HD
HETATM   34  O3  UNL     1      13.811 -12.210  14.044  1.00  0.00    -0.272 OA
BRANCH  29  35
HETATM   35  C20 UNL     1      16.723 -13.443  14.543  1.00  0.00     0.263 C
BRANCH  35  36
HETATM   36  N3  UNL     1      15.724 -14.382  14.130  1.00  0.00    -0.077 N
ATOM     37  H33 UNL     1      14.783 -14.094  14.400  1.00  0.00     0.274 HD
ATOM     38  H32 UNL     1      15.587 -14.386  13.119  1.00  0.00     0.274 HD
ATOM     39  H31 UNL     1      15.969 -15.303  14.493  1.00  0.00     0.274 HD
ENDBRANCH  35  36
ENDBRANCH  29  35
ENDBRANCH  28  29
ENDBRANCH   6  27
TORSDOF 9
ENDMDL