MODEL 5
REMARK VINA RESULT: -6.980423122      4.039      8.170
REMARK  2 active torsions:
REMARK  status: ('A' for Active; 'I' for Inactive)
REMARK    1  A    between atoms: C2_2  and  C5_5
REMARK       I    between atoms: C5_5  and  N1_7
REMARK       I    between atoms: N2_13  and  C9_15
REMARK       I    between atoms: C9_15  and  N4_19
REMARK    2  A    between atoms: N4_19  and  C10_21
ROOT
HETATM    1  C5  UNL     1      20.234 -15.895  23.741  1.00  0.00     0.239 C
HETATM    2  O1  UNL     1      21.481 -15.655  23.578  1.00  0.00    -0.272 OA
HETATM    3  N1  UNL     1      19.606 -16.970  23.050  1.00  0.00    -0.237 N
HETATM    4  C6  UNL     1      20.130 -17.932  22.111  1.00  0.00     0.254 C
HETATM    5  O2  UNL     1      21.065 -18.000  21.293  1.00  0.00    -0.271 OA
HETATM    6  C7  UNL     1      19.047 -18.850  22.544  1.00  0.00     0.219 C
HETATM    7 BR1  UNL     1      19.499 -19.974  24.038  1.00  0.00    -0.073 Br
HETATM    8  C8  UNL     1      18.339 -17.590  22.915  1.00  0.00     0.133 C
HETATM    9  N2  UNL     1      17.127 -17.182  23.065  1.00  0.00    -0.179 N
ATOM     10  H2  UNL     1      16.929 -16.220  23.338  1.00  0.00     0.185 HD
HETATM   11  C9  UNL     1      16.069 -18.112  22.838  1.00  0.00     0.673 C
HETATM   12  N3  UNL     1      15.674 -18.770  23.886  1.00  0.00    -0.235 N
ATOM     13  H31 UNL     1      14.918 -19.434  23.724  1.00  0.00     0.174 HD
ATOM     14  H32 UNL     1      16.090 -18.635  24.808  1.00  0.00     0.174 HD
HETATM   15  N4  UNL     1      15.491 -18.300  21.557  1.00  0.00    -0.212 N
ATOM     16  H4  UNL     1      15.805 -19.097  21.004  1.00  0.00     0.178 HD
ENDROOT
BRANCH  15  17
HETATM   17  C10 UNL     1      14.480 -17.427  20.982  1.00  0.00     0.209 C
HETATM   18  C11 UNL     1      13.140 -17.767  21.470  1.00  0.00     0.243 C
HETATM   19  O3  UNL     1      12.742 -17.033  22.411  1.00  0.00    -0.271 OA
HETATM   20  N5  UNL     1      12.177 -18.741  21.123  1.00  0.00    -0.349 N
HETATM   21  C12 UNL     1      12.171 -19.597  19.990  1.00  0.00     0.042 C
ATOM     22  H5  UNL     1      11.390 -18.842  21.765  1.00  0.00     0.163 HD
HETATM   23  C13 UNL     1      13.265 -20.618  19.958  1.00  0.00     0.039 C
HETATM   24  C14 UNL     1      10.859 -20.402  20.003  1.00  0.00     0.039 C
HETATM   25  C15 UNL     1      12.111 -18.746  18.756  1.00  0.00     0.026 C
HETATM   26  C16 UNL     1      10.772 -17.992  18.821  1.00  0.00     0.029 C
HETATM   27  C17 UNL     1      11.954 -19.726  17.581  1.00  0.00     0.029 C
HETATM   28  S1  UNL     1      13.384 -17.636  18.417  1.00  0.00    -0.145 SA
HETATM   29  C18 UNL     1      14.664 -17.246  19.533  1.00  0.00     0.031 C
HETATM   30  C19 UNL     1      15.962 -17.877  18.996  1.00  0.00     0.029 C
HETATM   31  C20 UNL     1      14.933 -15.737  19.250  1.00  0.00     0.029 C
ENDBRANCH  15  17
BRANCH   1  32
HETATM   32  C2  UNL     1      19.510 -14.999  24.675  1.00  0.00     0.031 C
HETATM   33  C1  UNL     1      18.409 -14.296  23.917  1.00  0.00     0.025 C
HETATM   34  C3  UNL     1      20.465 -13.976  25.270  1.00  0.00     0.025 C
HETATM   35  C4  UNL     1      18.890 -15.780  25.814  1.00  0.00     0.025 C
ENDBRANCH   1  32
TORSDOF 2
ENDMDL