MODEL 1
REMARK VINA RESULT: -8.161960646      0.000      0.000
REMARK  6 active torsions:
REMARK  status: ('A' for Active; 'I' for Inactive)
REMARK    1  A    between atoms: C3_3  and  C4_4
REMARK    2  A    between atoms: C4_4  and  N1_5
REMARK    3  A    between atoms: C4_4  and  C5_9
REMARK    4  A    between atoms: C4_4  and  C18_33
REMARK    5  A    between atoms: C6_10  and  C7_11
REMARK    6  A    between atoms: C11_17  and  C12_18
ROOT
HETATM    1  C1  UNL     1      11.952 -12.727  22.662  1.00  0.00     0.112 C
HETATM    2  C2  UNL     1      13.292 -12.849  22.050  1.00  0.00    -0.107 C
HETATM    3  C3  UNL     1      14.378 -12.933  21.540  1.00  0.00    -0.050 C
ENDROOT
BRANCH   3   4
HETATM    4  C4  UNL     1      15.686 -13.036  20.906  1.00  0.00     0.275 C
BRANCH   4   5
HETATM    5  N1  UNL     1      16.256 -11.703  20.875  1.00  0.00    -0.044 N
ATOM      6  H13 UNL     1      15.551 -10.968  20.827  1.00  0.00     0.277 HD
ATOM      7  H12 UNL     1      16.675 -11.428  21.763  1.00  0.00     0.277 HD
ATOM      8  H11 UNL     1      16.917 -11.674  20.098  1.00  0.00     0.277 HD
ENDBRANCH   4   5
BRANCH   4   9
HETATM    9  C5  UNL     1      16.560 -13.958  21.674  1.00  0.00    -0.047 C
HETATM   10  C6  UNL     1      17.254 -14.706  22.309  1.00  0.00    -0.075 C
BRANCH  10  11
HETATM   11  C7  UNL     1      18.079 -15.613  23.095  1.00  0.00     0.132 C
HETATM   12  C8  UNL     1      17.927 -17.050  22.703  1.00  0.00     0.163 C
HETATM   13  N2  UNL     1      18.999 -17.797  23.325  1.00  0.00    -0.353 N
HETATM   14  C9  UNL     1      19.152 -19.186  23.041  1.00  0.00     0.152 C
HETATM   15  C10 UNL     1      19.895 -17.122  24.227  1.00  0.00     0.239 C
HETATM   16  O1  UNL     1      20.310 -17.748  25.217  1.00  0.00    -0.272 OA
HETATM   17  C11 UNL     1      20.295 -15.718  23.955  1.00  0.00     0.137 C
HETATM   18  C16 UNL     1      19.722 -14.918  25.165  1.00  0.00     0.106 C
HETATM   19  C17 UNL     1      19.538 -15.204  22.821  1.00  0.00     0.189 A
HETATM   20  S1  UNL     1      17.952 -15.313  24.871  1.00  0.00    -0.138 SA
HETATM   21  N4  UNL     1      19.812 -15.653  21.489  1.00  0.00    -0.293 N
HETATM   22  N6  UNL     1      19.678 -13.879  22.349  1.00  0.00    -0.088 NA
HETATM   23  N5  UNL     1      19.922 -14.452  21.115  1.00  0.00    -0.246 N
ATOM     24  H4  UNL     1      19.886 -16.563  21.033  1.00  0.00     0.184 HD
ATOM     25  H5  UNL     1      20.123 -14.041  20.204  1.00  0.00     0.203 HD
BRANCH  17  26
HETATM   26  C12 UNL     1      21.727 -15.530  24.044  1.00  0.00     0.033 A
HETATM   27  C13 UNL     1      22.548 -14.523  24.439  1.00  0.00     0.029 A
HETATM   28  C14 UNL     1      23.870 -14.916  24.346  1.00  0.00     0.039 A
HETATM   29  C15 UNL     1      23.831 -16.189  23.886  1.00  0.00     0.080 A
HETATM   30 BR1  UNL     1      25.397 -17.245  23.564  1.00  0.00    -0.031 Br
HETATM   31  N3  UNL     1      22.574 -16.555  23.707  1.00  0.00    -0.352 N
ATOM     32  H3  UNL     1      22.275 -17.469  23.367  1.00  0.00     0.166 HD
ENDBRANCH  17  26
ENDBRANCH  10  11
ENDBRANCH   4   9
BRANCH   4  33
HETATM   33  C18 UNL     1      15.583 -13.591  19.548  1.00  0.00     0.002 A
HETATM   34  C19 UNL     1      16.063 -12.836  18.482  1.00  0.00     0.011 A
HETATM   35  C20 UNL     1      15.998 -13.298  17.179  1.00  0.00     0.001 A
HETATM   36  C21 UNL     1      15.437 -14.546  16.957  1.00  0.00     0.000 A
HETATM   37  C22 UNL     1      14.963 -15.296  18.002  1.00  0.00     0.001 A
HETATM   38  C23 UNL     1      15.036 -14.823  19.282  1.00  0.00     0.011 A
ENDBRANCH   4  33
ENDBRANCH   3   4
TORSDOF 6
ENDMDL