MODEL 2
REMARK VINA RESULT: -8.443093149      4.467      8.781
REMARK  3 active torsions:
REMARK  status: ('A' for Active; 'I' for Inactive)
REMARK       I    between atoms: N1_7  and  C6_8
REMARK       I    between atoms: C6_8  and  N2_10
REMARK       I    between atoms: C7_12  and  N3_13
REMARK       I    between atoms: C7_12  and  N6_34
REMARK    1  A    between atoms: N3_13  and  C8_15
REMARK    2  A    between atoms: C10_19  and  C11_20
REMARK    3  A    between atoms: N6_34  and  N7_36
ROOT
HETATM    1  C8  UNL     1      20.056 -15.569  23.868  1.00  0.00     0.137 A
HETATM    2  C9  UNL     1      18.728 -15.624  24.229  1.00  0.00     0.137 A
HETATM    3  N4  UNL     1      17.810 -15.055  23.457  1.00  0.00    -0.363 N
ATOM      4  H4  UNL     1      16.834 -15.113  23.751  1.00  0.00     0.165 HD
HETATM    5  C10 UNL     1      18.093 -14.393  22.286  1.00  0.00     0.052 A
HETATM    6  C20 UNL     1      19.419 -14.361  21.962  1.00  0.00     0.104 A
HETATM    7 BR1  UNL     1      20.010 -13.474  20.408  1.00  0.00    -0.029 Br
HETATM    8  N5  UNL     1      20.379 -14.934  22.732  1.00  0.00    -0.333 N
ATOM      9  H5  UNL     1      21.356 -14.881  22.444  1.00  0.00     0.168 HD
ENDROOT
BRANCH   1  10
HETATM   10  N3  UNL     1      20.987 -16.109  24.588  1.00  0.00    -0.174 N
HETATM   11  C7  UNL     1      22.351 -15.775  24.537  1.00  0.00     0.702 C
HETATM   12  N2  UNL     1      23.209 -16.582  24.046  1.00  0.00    -0.140 N
HETATM   13  N6  UNL     1      22.795 -14.527  25.039  1.00  0.00    -0.138 N
HETATM   14  C6  UNL     1      22.770 -17.836  23.545  1.00  0.00     0.339 C
ATOM     15  H2  UNL     1      24.197 -16.330  24.014  1.00  0.00     0.189 HD
HETATM   16  N1  UNL     1      23.304 -19.071  23.940  1.00  0.00    -0.301 N
HETATM   17  O2  UNL     1      21.844 -17.814  22.697  1.00  0.00    -0.246 OA
HETATM   18  C2  UNL     1      24.357 -19.288  24.892  1.00  0.00     0.053 C
HETATM   19  C5  UNL     1      22.906 -20.366  23.469  1.00  0.00     0.298 C
HETATM   20  C1  UNL     1      24.290 -18.365  26.088  1.00  0.00     0.041 C
HETATM   21  C3  UNL     1      25.724 -19.247  24.237  1.00  0.00     0.041 C
HETATM   22  C4  UNL     1      24.087 -20.713  25.328  1.00  0.00     0.200 C
HETATM   23  O1  UNL     1      23.325 -21.316  24.363  1.00  0.00    -0.369 OA
ATOM     24  H6  UNL     1      22.282 -14.079  25.799  1.00  0.00     0.205 HD
ATOM     25  H3  UNL     1      20.707 -16.836  25.246  1.00  0.00     0.186 HD
BRANCH  13  26
HETATM   26  N7  UNL     1      23.930 -13.902  24.505  1.00  0.00    -0.331 N
ATOM     27  H72 UNL     1      24.768 -13.836  25.083  1.00  0.00     0.177 HD
ATOM     28  H71 UNL     1      23.920 -13.520  23.560  1.00  0.00     0.177 HD
ENDBRANCH  13  26
ENDBRANCH   1  10
BRANCH   5  29
HETATM   29  C11 UNL     1      17.047 -13.801  21.461  1.00  0.00     0.011 C
HETATM   30  C12 UNL     1      17.203 -12.381  21.063  1.00  0.00     0.021 C
HETATM   31  C13 UNL     1      15.798 -12.062  20.533  1.00  0.00    -0.012 C
HETATM   32  C14 UNL     1      15.747 -12.661  19.141  1.00  0.00     0.020 C
HETATM   33  C19 UNL     1      14.897 -12.814  21.453  1.00  0.00     0.011 C
HETATM   34  C15 UNL     1      16.048 -14.114  19.150  1.00  0.00     0.049 C
HETATM   35  C16 UNL     1      17.104 -14.554  20.111  1.00  0.00     0.031 C
HETATM   36  S1  UNL     1      14.527 -14.964  19.758  1.00  0.00    -0.164 SA
HETATM   37  C17 UNL     1      14.996 -15.297  21.507  1.00  0.00     0.080 C
HETATM   38  C18 UNL     1      15.656 -13.999  21.975  1.00  0.00     0.010 C
ENDBRANCH   5  29
TORSDOF 3
ENDMDL