MODEL 5
REMARK VINA RESULT: -8.255715487      2.087      2.755
REMARK  5 active torsions:
REMARK  status: ('A' for Active; 'I' for Inactive)
REMARK    1  A    between atoms: C2_2  and  C3_4
REMARK    2  A    between atoms: C6_11  and  N3_12
REMARK       I    between atoms: N3_12  and  C7_14
REMARK    3  A    between atoms: N5_20  and  C11_21
REMARK    4  A    between atoms: C11_21  and  O3_22
REMARK    5  A    between atoms: C11_21  and  N6_24
ROOT
HETATM    1  N6  UNL     1      18.636 -16.090  22.527  1.00  0.00    -0.317 N
HETATM    2  C12 UNL     1      19.963 -15.305  22.519  1.00  0.00     0.260 C
HETATM    3  N7  UNL     1      20.645 -16.074  23.564  1.00  0.00    -0.324 N
HETATM    4  C13 UNL     1      20.214 -17.325  23.545  1.00  0.00     0.043 A
HETATM    5  C14 UNL     1      20.832 -18.050  24.508  1.00  0.00     0.053 A
HETATM    6  C15 UNL     1      21.698 -17.204  25.165  1.00  0.00     0.080 A
HETATM    7  C16 UNL     1      22.540 -17.597  26.256  1.00  0.00     0.102 C
HETATM    8  N8  UNL     1      23.220 -17.923  27.138  1.00  0.00    -0.191 NA
HETATM    9  C17 UNL     1      21.558 -15.987  24.556  1.00  0.00     0.104 A
HETATM   10 BR1  UNL     1      22.517 -14.418  25.048  1.00  0.00    -0.029 Br
HETATM   11  C18 UNL     1      19.193 -17.374  22.412  1.00  0.00     0.073 C
HETATM   12  C19 UNL     1      18.430 -18.622  22.508  1.00  0.00     0.045 C
HETATM   13  C20 UNL     1      20.023 -17.487  21.094  1.00  0.00     0.045 C
ENDROOT
BRANCH   1  14
HETATM   14  C11 UNL     1      17.491 -15.345  22.588  1.00  0.00     0.221 C
BRANCH  14  15
HETATM   15  N5  UNL     1      16.333 -15.028  21.891  1.00  0.00    -0.317 N
HETATM   16  C3  UNL     1      15.847 -13.613  21.938  1.00  0.00     0.197 C
HETATM   17  C4  UNL     1      14.449 -13.630  21.540  1.00  0.00     0.044 A
HETATM   18  C5  UNL     1      14.132 -14.857  21.033  1.00  0.00     0.066 A
HETATM   19  C6  UNL     1      13.303 -12.837  21.479  1.00  0.00     0.134 A
HETATM   20  N1  UNL     1      12.843 -14.816  20.675  1.00  0.00    -0.300 N
HETATM   21  C8  UNL     1      15.391 -15.722  21.119  1.00  0.00     0.074 C
HETATM   22  N2  UNL     1      12.354 -13.609  20.943  1.00  0.00    -0.285 N
ATOM     23  H1  UNL     1      12.320 -15.588  20.261  1.00  0.00     0.186 HD
ATOM     24  H2  UNL     1      11.394 -13.315  20.765  1.00  0.00     0.188 HD
HETATM   25  C9  UNL     1      15.812 -16.062  19.705  1.00  0.00     0.045 C
HETATM   26  C10 UNL     1      14.839 -17.008  21.739  1.00  0.00     0.045 C
BRANCH  16  27
HETATM   27  C2  UNL     1      16.613 -12.793  20.970  1.00  0.00     0.150 C
HETATM   28  C1  UNL     1      18.088 -12.658  21.032  1.00  0.00     0.093 C
HETATM   29  O1  UNL     1      16.016 -12.205  20.088  1.00  0.00    -0.296 OA
ENDBRANCH  16  27
BRANCH  19  30
HETATM   30  N3  UNL     1      13.204 -11.633  21.860  1.00  0.00    -0.295 N
HETATM   31  C7  UNL     1      12.147 -11.090  22.599  1.00  0.00     0.334 C
HETATM   32  N4  UNL     1      11.848 -11.422  23.951  1.00  0.00    -0.040 NA
HETATM   33  O2  UNL     1      11.395 -10.248  22.051  1.00  0.00    -0.251 OA
ATOM     34  H3  UNL     1      13.963 -11.001  21.605  1.00  0.00     0.171 HD
ENDBRANCH  19  30
ENDBRANCH  14  15
BRANCH  14  35
HETATM   35  O3  UNL     1      17.480 -14.652  23.776  1.00  0.00    -0.332 OA
ATOM     36  H3  UNL     1      18.319 -14.780  24.202  1.00  0.00     0.220 HD
ENDBRANCH  14  35
ENDBRANCH   1  14
TORSDOF 5
ENDMDL