MODEL 1
REMARK VINA RESULT: -8.742448993      0.000      0.000
REMARK  4 active torsions:
REMARK  status: ('A' for Active; 'I' for Inactive)
REMARK    1  A    between atoms: C4_7  and  N3_9
REMARK    2  A    between atoms: C8_15  and  C9_16
REMARK    3  A    between atoms: C10_17  and  C11_18
REMARK       I    between atoms: N5_26  and  C16_28
REMARK    4  A    between atoms: C16_28  and  C17_30
ROOT
HETATM    1  C9  UNL     1      12.005 -16.320  21.064  1.00  0.00    -0.060 C
HETATM    2  C10 UNL     1      12.178 -15.149  21.374  1.00  0.00    -0.058 C
ENDROOT
BRANCH   1   3
HETATM    3  C8  UNL     1      11.826 -17.699  20.702  1.00  0.00     0.034 A
HETATM    4  C7  UNL     1      11.786 -18.050  19.385  1.00  0.00     0.037 A
HETATM    5  C6  UNL     1      11.613 -19.383  18.962  1.00  0.00     0.043 A
HETATM    6  C4  UNL     1      11.589 -19.721  17.555  1.00  0.00     0.228 A
HETATM    7  C21 UNL     1      11.483 -20.322  19.950  1.00  0.00     0.121 A
HETATM    8  N2  UNL     1      11.359 -21.098  17.268  1.00  0.00    -0.301 N
HETATM    9  C5  UNL     1      12.839 -19.208  16.828  1.00  0.00     0.077 C
HETATM   10  C2  UNL     1      11.227 -22.079  18.272  1.00  0.00     0.327 A
HETATM   11  C3  UNL     1      11.252 -21.533  15.842  1.00  0.00     0.157 C
HETATM   12  N1  UNL     1      11.288 -21.695  19.633  1.00  0.00    -0.289 N
HETATM   13  O1  UNL     1      11.056 -23.285  17.921  1.00  0.00    -0.247 OA
HETATM   14  C1  UNL     1      11.154 -22.678  20.680  1.00  0.00     0.163 C
HETATM   15  N8  UNL     1      11.519 -19.995  21.273  1.00  0.00    -0.350 N
HETATM   16  C20 UNL     1      11.689 -18.696  21.647  1.00  0.00     0.110 A
ATOM     17  H8  UNL     1      11.419 -20.721  21.982  1.00  0.00     0.166 HD
BRANCH   6  18
HETATM   18  N3  UNL     1      10.486 -18.982  16.879  1.00  0.00    -0.048 N
ATOM     19  H33 UNL     1      10.746 -18.598  15.971  1.00  0.00     0.277 HD
ATOM     20  H32 UNL     1       9.734 -19.586  16.543  1.00  0.00     0.277 HD
ATOM     21  H31 UNL     1      10.177 -18.278  17.549  1.00  0.00     0.277 HD
ENDBRANCH   6  18
ENDBRANCH   1   3
BRANCH   2  22
HETATM   22  C11 UNL     1      12.355 -13.775  21.741  1.00  0.00     0.063 A
HETATM   23  C12 UNL     1      11.653 -13.161  22.757  1.00  0.00     0.045 A
HETATM   24  C13 UNL     1      11.872 -11.836  23.057  1.00  0.00     0.028 A
HETATM   25 BR1  UNL     1      10.931 -10.948  24.447  1.00  0.00    -0.050 Br
HETATM   26  C14 UNL     1      12.804 -11.144  22.323  1.00  0.00     0.109 A
HETATM   27  N4  UNL     1      13.499 -11.723  21.330  1.00  0.00    -0.350 N
HETATM   28  C15 UNL     1      13.275 -13.027  21.042  1.00  0.00     0.127 A
ATOM     29  H4  UNL     1      14.186 -11.187  20.799  1.00  0.00     0.166 HD
HETATM   30  N5  UNL     1      13.923 -13.614  20.095  1.00  0.00    -0.306 N
HETATM   31  C16 UNL     1      14.875 -12.854  19.365  1.00  0.00     0.275 C
ATOM     32  H5  UNL     1      13.756 -14.596  19.875  1.00  0.00     0.170 HD
HETATM   33  O2  UNL     1      14.552 -12.222  18.307  1.00  0.00    -0.266 OA
BRANCH  31  34
HETATM   34  C17 UNL     1      16.272 -12.752  19.780  1.00  0.00     0.117 A
HETATM   35  C18 UNL     1      17.382 -13.296  19.198  1.00  0.00     0.055 A
HETATM   36  C19 UNL     1      18.461 -12.919  19.954  1.00  0.00     0.109 A
HETATM   37  N6  UNL     1      17.984 -12.155  20.975  1.00  0.00    -0.311 N
HETATM   38  N7  UNL     1      16.674 -12.052  20.875  1.00  0.00    -0.296 N
ATOM     39  H6  UNL     1      18.553 -11.728  21.706  1.00  0.00     0.186 HD
ATOM     40  H7  UNL     1      16.065 -11.536  21.511  1.00  0.00     0.187 HD
ENDBRANCH  31  34
ENDBRANCH   2  22
TORSDOF 4
ENDMDL