MODEL 3
REMARK VINA RESULT: -7.979701623      2.621      4.892
REMARK  5 active torsions:
REMARK  status: ('A' for Active; 'I' for Inactive)
REMARK       I    between atoms: C2_2  and  N1_4
REMARK    1  A    between atoms: N1_4  and  C4_6
REMARK    2  A    between atoms: C13_15  and  C30_40
REMARK    3  A    between atoms: C16_18  and  O2_19
REMARK    4  A    between atoms: C17_21  and  O3_22
REMARK    5  A    between atoms: C18_24  and  O4_25
ROOT
HETATM    1  C4  UNL     1      13.516 -13.017  21.229  1.00  0.00     0.069 C
HETATM    2  C5  UNL     1      12.553 -13.280  20.104  1.00  0.00     0.041 C
HETATM    3  C6  UNL     1      14.660 -12.354  20.582  1.00  0.00     0.071 C
HETATM    4  C7  UNL     1      16.133 -12.852  20.893  1.00  0.00    -0.056 C
HETATM    5  C8  UNL     1      17.130 -13.020  20.122  1.00  0.00     0.007 C
HETATM    6  C9  UNL     1      17.110 -12.811  18.636  1.00  0.00     0.001 C
HETATM    7  C10 UNL     1      16.388 -13.518  17.776  1.00  0.00    -0.000 C
HETATM    8  C11 UNL     1      15.454 -14.588  17.688  1.00  0.00    -0.003 C
HETATM    9  C12 UNL     1      14.895 -15.679  18.034  1.00  0.00    -0.010 C
HETATM   10  C13 UNL     1      14.745 -16.866  18.921  1.00  0.00     0.036 C
HETATM   11  C14 UNL     1      15.089 -18.050  18.066  1.00  0.00    -0.011 C
HETATM   12  C15 UNL     1      15.614 -19.184  18.358  1.00  0.00     0.004 C
HETATM   13  C16 UNL     1      15.981 -19.469  19.754  1.00  0.00     0.172 C
HETATM   14  C17 UNL     1      16.252 -18.237  20.465  1.00  0.00     0.189 C
HETATM   15  C18 UNL     1      15.500 -16.959  20.186  1.00  0.00     0.138 C
HETATM   16  C19 UNL     1      14.768 -16.459  21.420  1.00  0.00     0.319 C
HETATM   17  C20 UNL     1      14.101 -17.563  22.242  1.00  0.00     0.109 C
HETATM   18  F1  UNL     1      14.852 -18.247  23.118  1.00  0.00    -0.213 F
HETATM   19  C21 UNL     1      13.114 -18.335  21.425  1.00  0.00     0.080 C
HETATM   20  C22 UNL     1      12.683 -17.450  20.377  1.00  0.00     0.000 C
HETATM   21  C23 UNL     1      12.403 -16.077  21.090  1.00  0.00     0.285 C
HETATM   22  N2  UNL     1      13.696 -15.491  21.221  1.00  0.00     0.114 N
HETATM   23  C24 UNL     1      13.719 -14.351  22.138  1.00  0.00     0.275 C
HETATM   24  C25 UNL     1      15.028 -13.994  22.324  1.00  0.00     0.012 C
HETATM   25  C26 UNL     1      15.700 -13.566  21.991  1.00  0.00     0.005 C
HETATM   26  C27 UNL     1      11.500 -18.018  19.625  1.00  0.00    -0.007 C
HETATM   27  C28 UNL     1      10.427 -17.088  19.212  1.00  0.00     0.011 C
HETATM   28  C29 UNL     1      12.589 -18.307  18.546  1.00  0.00     0.012 C
HETATM   29  C30 UNL     1      13.268 -17.093  19.134  1.00  0.00     0.016 C
ENDROOT
BRANCH   1  30
HETATM   30  N1  UNL     1      12.782 -12.125  22.107  1.00  0.00    -0.345 N
HETATM   31  C2  UNL     1      12.998 -10.799  22.462  1.00  0.00     0.216 C
HETATM   32  C1  UNL     1      12.082 -10.173  23.498  1.00  0.00     0.117 C
HETATM   33  O1  UNL     1      13.853 -10.039  22.047  1.00  0.00    -0.274 OA
HETATM   34  C3  UNL     1      11.569 -12.703  22.794  1.00  0.00     0.153 C
ENDBRANCH   1  30
BRANCH  15  35
HETATM   35  O4  UNL     1      16.588 -16.136  19.966  1.00  0.00    -0.383 OA
ATOM     36  H4  UNL     1      16.188 -15.302  19.747  1.00  0.00     0.210 HD
ENDBRANCH  15  35
BRANCH  14  37
HETATM   37  O3  UNL     1      17.661 -18.059  20.085  1.00  0.00    -0.390 OA
ATOM     38  H3  UNL     1      17.537 -17.584  19.272  1.00  0.00     0.210 HD
ENDBRANCH  14  37
BRANCH  13  39
HETATM   39  O2  UNL     1      17.137 -20.284  19.703  1.00  0.00    -0.389 OA
ATOM     40  H2  UNL     1      17.347 -20.391  18.782  1.00  0.00     0.210 HD
ENDBRANCH  13  39
TORSDOF 5
ENDMDL