MODEL 1
REMARK VINA RESULT: -8.048804776      0.000      0.000
REMARK  5 active torsions:
REMARK  status: ('A' for Active; 'I' for Inactive)
REMARK    1  A    between atoms: C11_11  and  O1_12
REMARK    2  A    between atoms: C12_14  and  O2_15
REMARK    3  A    between atoms: N1_19  and  C15_20
REMARK    4  A    between atoms: C19_24  and  O3_25
REMARK    5  A    between atoms: C21_27  and  O4_28
ROOT
HETATM    1  C1  UNL     1      20.065 -14.304  22.165  1.00  0.00     0.015 C
HETATM    2  C2  UNL     1      20.173 -14.989  23.289  1.00  0.00    -0.082 C
HETATM    3  C3  UNL     1      20.428 -16.446  23.203  1.00  0.00     0.059 C
HETATM    4  C4  UNL     1      20.964 -17.102  24.427  1.00  0.00     0.090 C
HETATM    5  C5  UNL     1      21.060 -16.244  25.638  1.00  0.00     0.030 C
HETATM    6  C6  UNL     1      19.750 -15.841  26.325  1.00  0.00     0.022 C
HETATM    7  C7  UNL     1      18.909 -15.134  25.320  1.00  0.00     0.019 C
HETATM    8  C8  UNL     1      20.039 -14.352  24.613  1.00  0.00     0.028 C
HETATM    9  C9  UNL     1      21.200 -14.781  25.442  1.00  0.00    -0.001 C
HETATM   10  C10 UNL     1      22.523 -14.219  25.286  1.00  0.00     0.049 C
HETATM   11  C11 UNL     1      23.419 -14.738  24.225  1.00  0.00     0.150 C
HETATM   12  C12 UNL     1      23.985 -16.110  24.432  1.00  0.00     0.169 C
HETATM   13  C13 UNL     1      23.300 -17.241  23.756  1.00  0.00     0.108 C
HETATM   14  C14 UNL     1      24.383 -18.266  23.495  1.00  0.00     0.034 C
HETATM   15  N1  UNL     1      22.181 -17.830  24.281  1.00  0.00    -0.389 N
HETATM   16  C26 UNL     1      20.587 -14.684  26.829  1.00  0.00    -0.075 C
HETATM   17  C27 UNL     1      20.747 -13.944  27.888  1.00  0.00     0.015 C
ENDROOT
BRANCH  15  18
HETATM   18  C15 UNL     1      22.175 -19.198  24.714  1.00  0.00     0.144 C
HETATM   19  C16 UNL     1      21.611 -19.349  26.086  1.00  0.00     0.015 C
HETATM   20  C17 UNL     1      20.644 -20.147  26.450  1.00  0.00    -0.025 A
HETATM   21  C18 UNL     1      20.205 -20.170  27.782  1.00  0.00     0.051 A
HETATM   22  C23 UNL     1      20.081 -21.026  25.556  1.00  0.00    -0.022 A
HETATM   23  C19 UNL     1      19.238 -21.028  28.222  1.00  0.00     0.102 A
HETATM   24  C21 UNL     1      18.683 -21.896  27.313  1.00  0.00     0.099 A
HETATM   25  C22 UNL     1      19.086 -21.905  26.008  1.00  0.00     0.051 A
HETATM   26  C24 UNL     1      20.524 -21.073  24.341  1.00  0.00     0.029 C
HETATM   27  C25 UNL     1      21.629 -20.232  23.842  1.00  0.00     0.015 C
HETATM   28 BR1  UNL     1      21.231 -19.811  22.016  1.00  0.00    -0.053 Br
BRANCH  23  29
HETATM   29  O3  UNL     1      18.813 -21.030  29.572  1.00  0.00    -0.353 OA
HETATM   30  C20 UNL     1      19.696 -20.695  30.608  1.00  0.00     0.210 C
ENDBRANCH  23  29
BRANCH  24  31
HETATM   31  O4  UNL     1      17.681 -22.802  27.706  1.00  0.00    -0.358 OA
ATOM     32  H4  UNL     1      17.385 -23.482  27.113  1.00  0.00     0.217 HD
ENDBRANCH  24  31
ENDBRANCH  15  18
BRANCH  12  33
HETATM   33  O2  UNL     1      25.256 -16.028  23.820  1.00  0.00    -0.391 OA
ATOM     34  H2  UNL     1      25.853 -16.166  24.546  1.00  0.00     0.210 HD
ENDBRANCH  12  33
BRANCH  11  35
HETATM   35  O1  UNL     1      24.477 -13.776  24.239  1.00  0.00    -0.393 OA
ATOM     36  H1  UNL     1      24.333 -13.317  23.420  1.00  0.00     0.210 HD
ENDBRANCH  11  35
TORSDOF 5
ENDMDL