MODEL 5
REMARK VINA RESULT: -6.889740804      3.760      6.285
REMARK  9 active torsions:
REMARK  status: ('A' for Active; 'I' for Inactive)
REMARK    1  A    between atoms: C2_4  and  C3_5
REMARK    2  A    between atoms: C2_4  and  N3_10
REMARK    3  A    between atoms: C3_5  and  N2_6
REMARK    4  A    between atoms: N3_10  and  N4_11
REMARK    5  A    between atoms: N4_11  and  C4_13
REMARK    6  A    between atoms: C4_13  and  N5_15
REMARK    7  A    between atoms: N5_15  and  N6_17
REMARK       I    between atoms: N6_17  and  C5_19
REMARK       I    between atoms: C5_19  and  N7_21
REMARK    8  A    between atoms: N7_21  and  C6_23
REMARK    9  A    between atoms: C6_23  and  O2_25
ROOT
HETATM    1  C4  UNL     1       7.589   1.867  91.138  1.00  0.00     0.216 C
HETATM    2  S1  UNL     1       7.753   0.749  89.959  1.00  0.00    -0.037 SA
ENDROOT
BRANCH   1   3
HETATM    3  N4  UNL     1       7.459   1.359  92.488  1.00  0.00    -0.206 N
ATOM      4  H4  UNL     1       8.225   0.814  92.884  1.00  0.00     0.204 HD
BRANCH   3   5
HETATM    5  N3  UNL     1       6.383   1.577  93.224  1.00  0.00    -0.308 NA
BRANCH   5   6
HETATM    6  C2  UNL     1       5.265   1.803  93.990  1.00  0.00     0.201 C
HETATM    7  N1  UNL     1       4.094   1.751  93.488  1.00  0.00    -0.370 N
HETATM    8  C1  UNL     1       2.914   1.997  94.247  1.00  0.00     0.148 C
ATOM      9  H1  UNL     1       3.998   1.523  92.498  1.00  0.00     0.161 HD
BRANCH   6  10
HETATM   10  C3  UNL     1       5.372   2.137  95.450  1.00  0.00     0.323 C
BRANCH  10  11
HETATM   11  N2  UNL     1       6.081   3.378  95.628  1.00  0.00    -0.071 N
ATOM     12  H23 UNL     1       6.937   3.409  95.074  1.00  0.00     0.274 HD
ATOM     13  H22 UNL     1       5.592   4.161  95.195  1.00  0.00     0.274 HD
ATOM     14  H21 UNL     1       6.262   3.543  96.618  1.00  0.00     0.274 HD
ENDBRANCH  10  11
ENDBRANCH   6  10
ENDBRANCH   5   6
ENDBRANCH   3   5
ENDBRANCH   1   3
BRANCH   1  15
HETATM   15  N5  UNL     1       7.586   3.227  90.800  1.00  0.00    -0.270 N
ATOM     16  H5  UNL     1       7.044   3.520  89.987  1.00  0.00     0.189 HD
BRANCH  15  17
HETATM   17  N6  UNL     1       8.283   4.202  91.511  1.00  0.00    -0.249 N
HETATM   18  C5  UNL     1       7.600   5.039  92.438  1.00  0.00     0.336 C
HETATM   19  O1  UNL     1       6.352   4.888  92.593  1.00  0.00    -0.246 OA
HETATM   20  N7  UNL     1       8.236   6.031  93.201  1.00  0.00    -0.316 N
ATOM     21  H7  UNL     1       9.241   6.168  93.092  1.00  0.00     0.166 HD
ATOM     22  H6  UNL     1       9.286   4.315  91.367  1.00  0.00     0.192 HD
BRANCH  20  23
HETATM   23  C6  UNL     1       7.518   6.857  94.128  1.00  0.00     0.217 C
HETATM   24  C7  UNL     1       8.365   7.880  94.819  1.00  0.00     0.063 C
BRANCH  23  25
HETATM   25  O2  UNL     1       6.873   6.004  95.045  1.00  0.00    -0.377 OA
ATOM     26  H2  UNL     1       6.957   6.394  95.907  1.00  0.00     0.212 HD
ENDBRANCH  23  25
ENDBRANCH  20  23
ENDBRANCH  15  17
ENDBRANCH   1  15
TORSDOF 9
ENDMDL