MODEL 3
REMARK VINA RESULT: -7.906089215      6.025      9.453
REMARK  4 active torsions:
REMARK  status: ('A' for Active; 'I' for Inactive)
REMARK    1  A    between atoms: N1_2  and  N2_3
REMARK       I    between atoms: N2_3  and  C2_5
REMARK       I    between atoms: C2_5  and  N4_9
REMARK    2  A    between atoms: N4_9  and  N5_11
REMARK       I    between atoms: N5_11  and  C3_13
REMARK    3  A    between atoms: C3_13  and  C4_15
REMARK       I    between atoms: N6_19  and  C8_20
REMARK       I    between atoms: C8_20  and  N7_22
REMARK    4  A    between atoms: N7_22  and  N8_24
ROOT
HETATM    1  N5  UNL     1       5.867   3.546  95.340  1.00  0.00    -0.255 N
ATOM      2  H5  UNL     1       4.882   3.771  95.479  1.00  0.00     0.190 HD
HETATM    3  C3  UNL     1       6.277   2.195  95.324  1.00  0.00     0.242 C
HETATM    4  O1  UNL     1       7.494   1.934  95.152  1.00  0.00    -0.271 OA
ENDROOT
BRANCH   3   5
HETATM    5  C4  UNL     1       5.351   1.048  95.500  1.00  0.00     0.098 C
HETATM    6  C5  UNL     1       5.130   0.725  96.939  1.00  0.00     0.017 C
HETATM    7  C6  UNL     1       3.734   0.873  97.434  1.00  0.00     0.021 C
HETATM    8  C7  UNL     1       2.674   0.411  96.491  1.00  0.00     0.127 C
HETATM    9  N6  UNL     1       2.969   0.584  95.102  1.00  0.00    -0.332 N
HETATM   10  C8  UNL     1       2.145  -0.006  94.137  1.00  0.00     0.336 C
HETATM   11  C9  UNL     1       4.096   1.354  94.734  1.00  0.00     0.141 C
HETATM   12  O2  UNL     1       2.394   0.137  92.918  1.00  0.00    -0.245 OA
HETATM   13  N7  UNL     1       1.024  -0.767  94.533  1.00  0.00    -0.258 N
ATOM     14  H7  UNL     1       0.826  -0.880  95.527  1.00  0.00     0.191 HD
BRANCH  13  15
HETATM   15  N8  UNL     1       0.165  -1.380  93.586  1.00  0.00    -0.341 N
ATOM     16  H82 UNL     1      -0.085  -0.850  92.751  1.00  0.00     0.177 HD
ATOM     17  H81 UNL     1      -0.200  -2.323  93.722  1.00  0.00     0.177 HD
ENDBRANCH  13  15
ENDBRANCH   3   5
BRANCH   1  18
HETATM   18  N4  UNL     1       6.784   4.573  95.169  1.00  0.00    -0.129 N
HETATM   19  C2  UNL     1       7.094   5.032  93.844  1.00  0.00     0.702 C
HETATM   20  N2  UNL     1       8.288   5.762  93.602  1.00  0.00    -0.136 N
HETATM   21  N3  UNL     1       6.298   4.789  92.860  1.00  0.00    -0.232 N
ATOM     22  H2  UNL     1       9.175   5.261  93.564  1.00  0.00     0.201 HD
ATOM     23  H32 UNL     1       6.518   5.115  91.919  1.00  0.00     0.174 HD
ATOM     24  H31 UNL     1       5.440   4.264  93.033  1.00  0.00     0.174 HD
ATOM     25  H4  UNL     1       7.234   4.999  95.979  1.00  0.00     0.205 HD
BRANCH  20  26
HETATM   26  N1  UNL     1       8.285   7.129  93.418  1.00  0.00    -0.131 NA
HETATM   27  C1  UNL     1       8.686   7.866  94.596  1.00  0.00     0.159 C
ENDBRANCH  20  26
ENDBRANCH   1  18
TORSDOF 4
ENDMDL