MODEL 2
REMARK VINA RESULT: -7.933795143      2.838      4.860
REMARK  2 active torsions:
REMARK  status: ('A' for Active; 'I' for Inactive)
REMARK       I    between atoms: C1_4  and  N3_6
REMARK       I    between atoms: N3_6  and  C2_8
REMARK    1  A    between atoms: C2_8  and  C3_10
REMARK    2  A    between atoms: C6_16  and  N4_17
REMARK       I    between atoms: N4_17  and  C7_19
ROOT
HETATM    1  C3  UNL     1       8.146   1.697  91.024  1.00  0.00     0.116 C
HETATM    2  C4  UNL     1       9.231   1.075  91.833  1.00  0.00     0.156 C
HETATM    3  S1  UNL     1       8.491   0.968  93.469  1.00  0.00     0.147 S
HETATM    4  O2  UNL     1       8.181  -0.439  93.833  1.00  0.00    -0.228 OA
HETATM    5  O3  UNL     1       9.349   1.668  94.462  1.00  0.00    -0.228 OA
HETATM    6  C5  UNL     1       6.986   1.902  93.151  1.00  0.00     0.166 C
HETATM    7  C6  UNL     1       7.378   2.639  91.910  1.00  0.00     0.113 C
ENDROOT
BRANCH   1   8
HETATM    8  C2  UNL     1       7.283   0.718  90.341  1.00  0.00     0.231 C
HETATM    9  N3  UNL     1       5.955   1.072  89.961  1.00  0.00    -0.301 N
HETATM   10  C1  UNL     1       5.074   0.201  89.309  1.00  0.00     0.188 C
ATOM     11  H3  UNL     1       5.627   2.013  90.177  1.00  0.00     0.171 HD
HETATM   12  N1  UNL     1       3.890   0.552  88.983  1.00  0.00    -0.373 N
HETATM   13  N2  UNL     1       5.491  -1.121  88.991  1.00  0.00    -0.064 NA
ATOM     14  H12 UNL     1       3.248  -0.083  88.507  1.00  0.00     0.158 HD
ATOM     15  H11 UNL     1       3.590   1.499  89.212  1.00  0.00     0.158 HD
HETATM   16  O1  UNL     1       7.684  -0.441  90.074  1.00  0.00    -0.273 OA
ENDBRANCH   1   8
BRANCH   7  17
HETATM   17  N4  UNL     1       8.275   3.728  92.272  1.00  0.00    -0.339 N
HETATM   18  C7  UNL     1       7.773   5.012  92.600  1.00  0.00     0.329 C
HETATM   19  N5  UNL     1       8.659   6.060  92.950  1.00  0.00    -0.040 NA
HETATM   20  O4  UNL     1       6.535   5.200  92.574  1.00  0.00    -0.251 OA
ATOM     21  H4  UNL     1       9.282   3.564  92.290  1.00  0.00     0.164 HD
ENDBRANCH   7  17
TORSDOF 2
ENDMDL