MODEL 3
REMARK VINA RESULT: -8.129127039      5.293      6.380
REMARK  2 active torsions:
REMARK  status: ('A' for Active; 'I' for Inactive)
REMARK       I    between atoms: N2_3  and  C2_4
REMARK    1  A    between atoms: C2_4  and  C3_6
REMARK       I    between atoms: N4_12  and  C7_13
REMARK       I    between atoms: C7_13  and  N5_15
REMARK    2  A    between atoms: N5_15  and  N6_17
REMARK       I    between atoms: N6_17  and  C8_19
ROOT
HETATM    1  N1  UNL     1       1.900  -2.218  91.243  1.00  0.00    -0.156 NA
HETATM    2  C1  UNL     1       2.023  -2.291  92.392  1.00  0.00     0.271 C
HETATM    3  N2  UNL     1       2.197  -2.332  93.719  1.00  0.00    -0.292 NA
HETATM    4  C2  UNL     1       2.367  -2.380  95.052  1.00  0.00     0.310 C
HETATM    5  O1  UNL     1       1.882  -3.277  95.824  1.00  0.00    -0.256 OA
ENDROOT
BRANCH   4   6
HETATM    6  C3  UNL     1       3.195  -1.313  95.784  1.00  0.00     0.129 C
HETATM    7  C4  UNL     1       2.607  -0.991  97.117  1.00  0.00     0.135 C
HETATM    8  N3  UNL     1       2.654   0.372  97.485  1.00  0.00    -0.400 N
HETATM    9  C5  UNL     1       3.901   0.961  97.758  1.00  0.00     0.075 C
ATOM     10  H3  UNL     1       1.797   0.920  97.551  1.00  0.00     0.158 HD
HETATM   11  C6  UNL     1       4.984   0.690  96.725  1.00  0.00     0.171 C
HETATM   12  N4  UNL     1       4.411   0.729  95.406  1.00  0.00    -0.327 N
HETATM   13  C7  UNL     1       4.936   1.663  94.498  1.00  0.00     0.337 C
HETATM   14  C9  UNL     1       3.327  -0.104  94.899  1.00  0.00     0.145 C
HETATM   15  O2  UNL     1       4.386   1.681  93.328  1.00  0.00    -0.245 OA
HETATM   16  N5  UNL     1       5.975   2.570  94.702  1.00  0.00    -0.249 N
ATOM     17  H5  UNL     1       6.442   2.587  95.609  1.00  0.00     0.192 HD
BRANCH  16  18
HETATM   18  N6  UNL     1       6.407   3.470  93.695  1.00  0.00    -0.270 N
HETATM   19  C8  UNL     1       6.824   4.789  94.015  1.00  0.00     0.200 C
HETATM   20  N7  UNL     1       6.660   5.179  95.231  1.00  0.00    -0.372 N
HETATM   21  N8  UNL     1       7.395   5.669  93.078  1.00  0.00    -0.062 NA
ATOM     22  H72 UNL     1       6.246   4.541  95.911  1.00  0.00     0.158 HD
ATOM     23  H71 UNL     1       6.959   6.127  95.461  1.00  0.00     0.158 HD
ATOM     24  H6  UNL     1       6.419   3.164  92.722  1.00  0.00     0.189 HD
ENDBRANCH  16  18
ENDBRANCH   4   6
TORSDOF 2
ENDMDL