MODEL 4
REMARK VINA RESULT: -6.371944026      5.572      6.869
REMARK  3 active torsions:
REMARK  status: ('A' for Active; 'I' for Inactive)
REMARK    1  A    between atoms: C2_2  and  C3_6
REMARK    2  A    between atoms: C3_6  and  C4_7
REMARK    3  A    between atoms: C6_16  and  N4_17
REMARK       I    between atoms: N4_17  and  C7_19
ROOT
HETATM    1  C3  UNL     1       8.237   1.351  92.057  1.00  0.00     0.149 C
HETATM    2  C5  UNL     1       7.943   0.339  90.989  1.00  0.00     0.196 C
HETATM    3  S1  UNL     1       7.019   1.310  89.824  1.00  0.00     0.233 S
HETATM    4  O2  UNL     1       5.543   1.081  89.915  1.00  0.00    -0.206 OA
HETATM    5  O3  UNL     1       7.533   1.085  88.430  1.00  0.00    -0.206 OA
HETATM    6  N3  UNL     1       7.510   2.841  90.408  1.00  0.00    -0.272 N
ATOM      7  H3  UNL     1       7.350   3.727  89.929  1.00  0.00     0.180 HD
HETATM    8  C6  UNL     1       8.100   2.715  91.521  1.00  0.00     0.117 C
ENDROOT
BRANCH   1   9
HETATM    9  C2  UNL     1       9.621   1.114  92.541  1.00  0.00     0.002 C
HETATM   10  C1  UNL     1       9.994   1.220  93.978  1.00  0.00     0.064 C
HETATM   11  N1  UNL     1      10.535   0.809  91.705  1.00  0.00    -0.404 N
ATOM     12  H12 UNL     1      11.485   0.646  92.037  1.00  0.00     0.155 HD
ATOM     13  H11 UNL     1      10.279   0.737  90.719  1.00  0.00     0.155 HD
ENDBRANCH   1   9
BRANCH   1  14
HETATM   14  C4  UNL     1       7.238   1.086  93.143  1.00  0.00     0.254 C
HETATM   15  N2  UNL     1       6.090   1.910  93.272  1.00  0.00    -0.061 NA
HETATM   16  O1  UNL     1       7.364   0.151  93.968  1.00  0.00    -0.275 OA
ENDBRANCH   1  14
BRANCH   8  17
HETATM   17  N4  UNL     1       8.595   3.926  92.174  1.00  0.00    -0.319 N
HETATM   18  C7  UNL     1       7.794   5.065  92.336  1.00  0.00     0.187 C
HETATM   19  N5  UNL     1       8.314   6.232  92.304  1.00  0.00    -0.373 N
HETATM   20  N6  UNL     1       6.403   4.949  92.537  1.00  0.00    -0.064 NA
ATOM     21  H52 UNL     1       9.320   6.317  92.157  1.00  0.00     0.158 HD
ATOM     22  H51 UNL     1       7.730   7.061  92.421  1.00  0.00     0.158 HD
ATOM     23  H4  UNL     1       9.553   3.944  92.523  1.00  0.00     0.169 HD
ENDBRANCH   8  17
TORSDOF 3
ENDMDL