MODEL 1
REMARK VINA RESULT: -8.315384024      0.000      0.000
REMARK  5 active torsions:
REMARK  status: ('A' for Active; 'I' for Inactive)
REMARK    1  A    between atoms: C2_2  and  O1_3
REMARK    2  A    between atoms: C2_2  and  C3_5
REMARK    3  A    between atoms: C2_2  and  C4_12
REMARK       I    between atoms: C3_5  and  N1_7
REMARK    4  A    between atoms: N1_7  and  N2_9
REMARK       I    between atoms: C4_12  and  N3_14
REMARK    5  A    between atoms: N3_14  and  N4_16
REMARK       I    between atoms: N4_16  and  C5_18
REMARK       I    between atoms: C5_18  and  N5_20
ROOT
HETATM    1  C4  UNL     1       7.326   2.146  91.762  1.00  0.00     0.280 C
HETATM    2  O3  UNL     1       6.690   1.078  91.470  1.00  0.00    -0.268 OA
HETATM    3  N3  UNL     1       6.934   2.943  92.873  1.00  0.00    -0.263 N
ATOM      4  H3  UNL     1       7.443   3.795  93.105  1.00  0.00     0.190 HD
ENDROOT
BRANCH   3   5
HETATM    5  N4  UNL     1       5.844   2.543  93.640  1.00  0.00    -0.249 N
HETATM    6  C5  UNL     1       5.975   2.127  94.986  1.00  0.00     0.337 C
HETATM    7  O4  UNL     1       7.113   2.105  95.559  1.00  0.00    -0.245 OA
HETATM    8  N5  UNL     1       4.869   1.721  95.758  1.00  0.00    -0.330 N
HETATM    9  C6  UNL     1       5.022   1.317  97.129  1.00  0.00     0.155 C
HETATM   10  C9  UNL     1       3.558   1.692  95.167  1.00  0.00     0.155 C
HETATM   11  C7  UNL     1       4.022   0.179  97.337  1.00  0.00     0.252 C
HETATM   12  N6  UNL     1       2.696   0.734  97.256  1.00  0.00    -0.072 N
HETATM   13  C8  UNL     1       2.571   1.835  96.332  1.00  0.00     0.252 C
ATOM     14  H62 UNL     1       2.017   0.005  97.037  1.00  0.00     0.277 HD
ATOM     15  H61 UNL     1       2.365   1.006  98.182  1.00  0.00     0.277 HD
ATOM     16  H4  UNL     1       4.916   2.548  93.216  1.00  0.00     0.192 HD
ENDBRANCH   3   5
BRANCH   1  17
HETATM   17  C2  UNL     1       8.468   2.469  90.867  1.00  0.00     0.218 C
HETATM   18  C1  UNL     1       9.379   3.415  91.615  1.00  0.00     0.067 C
BRANCH  17  19
HETATM   19  O1  UNL     1       8.019   3.005  89.659  1.00  0.00    -0.372 OA
ATOM     20  H1  UNL     1       8.356   2.534  88.906  1.00  0.00     0.211 HD
ENDBRANCH  17  19
BRANCH  17  21
HETATM   21  C3  UNL     1       9.185   1.169  90.611  1.00  0.00     0.279 C
HETATM   22  O2  UNL     1      10.137   0.883  91.391  1.00  0.00    -0.268 OA
HETATM   23  N1  UNL     1       8.856   0.283  89.577  1.00  0.00    -0.274 N
ATOM     24  H1  UNL     1       8.089   0.497  88.940  1.00  0.00     0.189 HD
BRANCH  23  25
HETATM   25  N2  UNL     1       9.602  -0.918  89.425  1.00  0.00    -0.343 N
ATOM     26  H22 UNL     1      10.568  -0.952  89.754  1.00  0.00     0.176 HD
ATOM     27  H21 UNL     1       9.162  -1.728  88.989  1.00  0.00     0.176 HD
ENDBRANCH  23  25
ENDBRANCH  17  21
ENDBRANCH   1  17
TORSDOF 5
ENDMDL