MODEL 1
REMARK VINA RESULT: -7.429504180      0.000      0.000
REMARK  5 active torsions:
REMARK  status: ('A' for Active; 'I' for Inactive)
REMARK       I    between atoms: C2_2  and  N1_4
REMARK    1  A    between atoms: N1_4  and  S1_6
REMARK    2  A    between atoms: S1_6  and  N2_9
REMARK       I    between atoms: N2_9  and  C3_11
REMARK       I    between atoms: C3_11  and  N5_17
REMARK    3  A    between atoms: N3_12  and  N4_14
REMARK    4  A    between atoms: N5_17  and  N6_19
REMARK    5  A    between atoms: N6_19  and  C4_21
ROOT
HETATM    1  N2  UNL     1       7.331   3.756  91.872  1.00  0.00    -0.097 N
ATOM      2  H2  UNL     1       6.946   4.423  91.203  1.00  0.00     0.199 HD
HETATM    3  C3  UNL     1       6.714   3.589  93.138  1.00  0.00     0.721 C
HETATM    4  N3  UNL     1       5.942   2.605  93.417  1.00  0.00    -0.137 N
ATOM      5  H3  UNL     1       5.751   1.899  92.706  1.00  0.00     0.205 HD
HETATM    6  N5  UNL     1       6.969   4.561  94.136  1.00  0.00    -0.128 N
ATOM      7  H5  UNL     1       7.232   4.283  95.082  1.00  0.00     0.205 HD
ENDROOT
BRANCH   1   8
HETATM    8  S1  UNL     1       8.721   2.840  91.462  1.00  0.00     0.339 S
HETATM    9  O2  UNL     1       9.048   1.925  92.597  1.00  0.00    -0.182 OA
HETATM   10  O3  UNL     1       9.897   3.720  91.142  1.00  0.00    -0.182 OA
BRANCH   8  11
HETATM   11  N1  UNL     1       8.388   1.914  90.027  1.00  0.00    -0.237 N
HETATM   12  C2  UNL     1       7.213   1.138  89.953  1.00  0.00     0.228 C
HETATM   13  C1  UNL     1       6.988   0.362  88.682  1.00  0.00     0.118 C
HETATM   14  O1  UNL     1       6.399   1.094  90.889  1.00  0.00    -0.273 OA
ATOM     15  H1  UNL     1       9.040   1.933  89.243  1.00  0.00     0.183 HD
ENDBRANCH   8  11
ENDBRANCH   1   8
BRANCH   4  16
HETATM   16  N4  UNL     1       5.362   2.486  94.671  1.00  0.00    -0.331 N
ATOM     17  H42 UNL     1       5.910   2.068  95.423  1.00  0.00     0.177 HD
ATOM     18  H41 UNL     1       4.409   2.807  94.841  1.00  0.00     0.177 HD
ENDBRANCH   4  16
BRANCH   6  19
HETATM   19  N6  UNL     1       6.851   5.904  93.793  1.00  0.00    -0.264 N
ATOM     20  H6  UNL     1       5.989   6.250  93.371  1.00  0.00     0.189 HD
BRANCH  19  21
HETATM   21  C4  UNL     1       7.918   6.780  94.029  1.00  0.00     0.200 C
HETATM   22  N7  UNL     1       7.742   7.987  94.745  1.00  0.00    -0.068 NA
HETATM   23  S2  UNL     1       9.420   6.446  93.485  1.00  0.00    -0.043 SA
ENDBRANCH  19  21
ENDBRANCH   6  19
TORSDOF 5
ENDMDL