MODEL 2
REMARK VINA RESULT: -7.501389768      3.943      5.266
REMARK  6 active torsions:
REMARK  status: ('A' for Active; 'I' for Inactive)
REMARK    1  A    between atoms: C4_5  and  N2_6
REMARK       I    between atoms: N2_6  and  C5_8
REMARK    2  A    between atoms: N4_10  and  N5_12
REMARK    3  A    between atoms: N5_12  and  C6_14
REMARK    4  A    between atoms: C6_14  and  N6_16
REMARK    5  A    between atoms: N6_16  and  N7_18
REMARK    6  A    between atoms: N8_22  and  N9_24
ROOT
HETATM    1  N2  UNL     1       6.095   3.166  93.295  1.00  0.00    -0.353 N
ATOM      2  H2  UNL     1       5.412   2.746  92.665  1.00  0.00     0.163 HD
HETATM    3  C5  UNL     1       6.362   2.575  94.548  1.00  0.00     0.203 C
HETATM    4  N3  UNL     1       7.586   1.925  94.769  1.00  0.00    -0.062 NA
HETATM    5  N4  UNL     1       5.477   2.639  95.472  1.00  0.00    -0.272 N
ATOM      6  H4  UNL     1       4.600   3.120  95.270  1.00  0.00     0.189 HD
ENDROOT
BRANCH   1   7
HETATM    7  C4  UNL     1       6.788   4.358  92.914  1.00  0.00     0.135 C
HETATM    8  C3  UNL     1       7.247   5.110  94.142  1.00  0.00     0.061 C
HETATM    9  C2  UNL     1       8.143   6.238  93.685  1.00  0.00     0.274 C
HETATM   10  N1  UNL     1       9.309   5.794  92.985  1.00  0.00     0.089 N
HETATM   11  C1  UNL     1      10.538   6.299  93.502  1.00  0.00     0.310 C
HETATM   12  C8  UNL     1       9.318   4.376  92.711  1.00  0.00     0.327 C
HETATM   13  C7  UNL     1       7.984   4.055  92.103  1.00  0.00     0.054 C
HETATM   14  N8  UNL     1       7.852   3.544  90.941  1.00  0.00    -0.311 N
ATOM     15  H8  UNL     1       6.922   3.345  90.573  1.00  0.00     0.185 HD
BRANCH  14  16
HETATM   16  N9  UNL     1       8.984   3.257  90.176  1.00  0.00    -0.345 N
ATOM     17  H92 UNL     1       9.908   3.385  90.589  1.00  0.00     0.176 HD
ATOM     18  H91 UNL     1       8.877   2.926  89.217  1.00  0.00     0.176 HD
ENDBRANCH  14  16
ENDBRANCH   1   7
BRANCH   5  19
HETATM   19  N5  UNL     1       5.650   2.086  96.740  1.00  0.00    -0.273 N
ATOM     20  H5  UNL     1       6.312   2.490  97.402  1.00  0.00     0.189 HD
BRANCH  19  21
HETATM   21  C6  UNL     1       4.880   0.945  97.084  1.00  0.00     0.205 C
HETATM   22  S1  UNL     1       4.398  -0.042  95.876  1.00  0.00    -0.038 SA
BRANCH  21  23
HETATM   23  N6  UNL     1       4.536   0.661  98.421  1.00  0.00    -0.282 N
ATOM     24  H6  UNL     1       5.293   0.524  99.091  1.00  0.00     0.189 HD
BRANCH  23  25
HETATM   25  N7  UNL     1       3.237   0.557  98.879  1.00  0.00    -0.343 N
ATOM     26  H72 UNL     1       2.565   1.239  98.524  1.00  0.00     0.176 HD
ATOM     27  H71 UNL     1       2.920  -0.151  99.541  1.00  0.00     0.176 HD
ENDBRANCH  23  25
ENDBRANCH  21  23
ENDBRANCH  19  21
ENDBRANCH   5  19
TORSDOF 6
ENDMDL