MODEL 4
REMARK VINA RESULT: -6.521230546      4.888      5.547
REMARK  8 active torsions:
REMARK  status: ('A' for Active; 'I' for Inactive)
REMARK    1  A    between atoms: N1_2  and  C2_4
REMARK    2  A    between atoms: C2_4  and  N2_6
REMARK    3  A    between atoms: N2_6  and  N3_8
REMARK    4  A    between atoms: N3_8  and  C3_10
REMARK    5  A    between atoms: C3_10  and  N4_12
REMARK       I    between atoms: N4_12  and  C4_14
REMARK    6  A    between atoms: C4_14  and  C5_16
REMARK    7  A    between atoms: C5_16  and  C6_17
REMARK       I    between atoms: C6_17  and  N5_19
REMARK    8  A    between atoms: N5_19  and  N6_21
ROOT
HETATM    1  N4  UNL     1       5.582   2.330  94.710  1.00  0.00    -0.302 N
ATOM      2  H4  UNL     1       4.955   2.077  93.946  1.00  0.00     0.171 HD
HETATM    3  C4  UNL     1       5.274   1.853  96.008  1.00  0.00     0.232 C
HETATM    4  O1  UNL     1       6.028   2.155  96.948  1.00  0.00    -0.273 OA
ENDROOT
BRANCH   1   5
HETATM    5  C3  UNL     1       6.706   3.138  94.408  1.00  0.00     0.193 C
HETATM    6  S2  UNL     1       7.934   2.495  93.570  1.00  0.00    -0.039 SA
BRANCH   5   7
HETATM    7  N3  UNL     1       6.771   4.496  94.828  1.00  0.00    -0.274 N
ATOM      8  H3  UNL     1       6.813   4.720  95.822  1.00  0.00     0.189 HD
BRANCH   7   9
HETATM    9  N2  UNL     1       6.776   5.522  93.880  1.00  0.00    -0.274 N
ATOM     10  H2  UNL     1       6.002   5.588  93.219  1.00  0.00     0.189 HD
BRANCH   9  11
HETATM   11  C2  UNL     1       7.825   6.476  93.806  1.00  0.00     0.186 C
HETATM   12  S1  UNL     1       7.945   7.714  94.858  1.00  0.00    -0.040 SA
BRANCH  11  13
HETATM   13  N1  UNL     1       8.805   6.359  92.789  1.00  0.00    -0.370 N
HETATM   14  C1  UNL     1      10.067   5.649  93.039  1.00  0.00     0.148 C
ATOM     15  H1  UNL     1       8.633   6.774  91.873  1.00  0.00     0.161 HD
ENDBRANCH  11  13
ENDBRANCH   9  11
ENDBRANCH   7   9
ENDBRANCH   5   7
ENDBRANCH   1   5
BRANCH   3  16
HETATM   16  C5  UNL     1       4.085   1.020  96.229  1.00  0.00     0.207 C
BRANCH  16  17
HETATM   17  C6  UNL     1       3.027   1.420  95.270  1.00  0.00     0.244 C
HETATM   18  O2  UNL     1       2.845   0.910  94.138  1.00  0.00    -0.271 OA
HETATM   19  N5  UNL     1       2.161   2.470  95.691  1.00  0.00    -0.276 N
ATOM     20  H5  UNL     1       2.277   2.911  96.603  1.00  0.00     0.189 HD
BRANCH  19  21
HETATM   21  N6  UNL     1       1.148   2.882  94.820  1.00  0.00    -0.343 N
ATOM     22  H62 UNL     1       0.592   2.187  94.323  1.00  0.00     0.176 HD
ATOM     23  H61 UNL     1       0.989   3.882  94.703  1.00  0.00     0.176 HD
ENDBRANCH  19  21
ENDBRANCH  16  17
ENDBRANCH   3  16
TORSDOF 8
ENDMDL