MODEL 1
REMARK VINA RESULT: -6.648071547      0.000      0.000
REMARK  8 active torsions:
REMARK  status: ('A' for Active; 'I' for Inactive)
REMARK       I    between atoms: C2_2  and  N1_4
REMARK    1  A    between atoms: N1_4  and  C3_6
REMARK    2  A    between atoms: C3_6  and  N2_8
REMARK    3  A    between atoms: N2_8  and  N3_10
REMARK    4  A    between atoms: N3_10  and  C4_12
REMARK    5  A    between atoms: C4_12  and  N4_14
REMARK    6  A    between atoms: N4_14  and  N5_16
REMARK       I    between atoms: N5_16  and  C5_18
REMARK    7  A    between atoms: C5_18  and  C6_20
REMARK    8  A    between atoms: C6_20  and  N6_21
ROOT
HETATM    1  C4  UNL     1       8.228   4.186  91.731  1.00  0.00     0.205 C
HETATM    2  S2  UNL     1       9.340   4.862  92.700  1.00  0.00    -0.038 SA
ENDROOT
BRANCH   1   3
HETATM    3  N3  UNL     1       8.599   3.678  90.461  1.00  0.00    -0.273 N
ATOM      4  H3  UNL     1       8.308   4.159  89.610  1.00  0.00     0.189 HD
BRANCH   3   5
HETATM    5  N2  UNL     1       9.370   2.507  90.383  1.00  0.00    -0.274 N
ATOM      6  H2  UNL     1      10.294   2.506  89.952  1.00  0.00     0.189 HD
BRANCH   5   7
HETATM    7  C3  UNL     1       8.805   1.321  90.933  1.00  0.00     0.193 C
HETATM    8  S1  UNL     1       9.398   0.877  92.433  1.00  0.00    -0.039 SA
BRANCH   7   9
HETATM    9  N1  UNL     1       7.825   0.506  90.322  1.00  0.00    -0.303 N
HETATM   10  C2  UNL     1       6.830   0.868  89.408  1.00  0.00     0.219 C
HETATM   11  C1  UNL     1       5.893  -0.173  88.885  1.00  0.00     0.117 C
HETATM   12  O1  UNL     1       6.681   2.023  89.000  1.00  0.00    -0.274 OA
ATOM     13  H1  UNL     1       7.846  -0.480  90.583  1.00  0.00     0.171 HD
ENDBRANCH   7   9
ENDBRANCH   5   7
ENDBRANCH   3   5
ENDBRANCH   1   3
BRANCH   1  14
HETATM   14  N4  UNL     1       6.884   4.124  92.183  1.00  0.00    -0.272 N
ATOM     15  H4  UNL     1       6.131   4.399  91.551  1.00  0.00     0.189 HD
BRANCH  14  16
HETATM   16  N5  UNL     1       6.571   3.698  93.470  1.00  0.00    -0.266 N
HETATM   17  C5  UNL     1       6.071   2.375  93.675  1.00  0.00     0.261 C
HETATM   18  O2  UNL     1       5.919   1.623  92.677  1.00  0.00    -0.270 OA
ATOM     19  H5  UNL     1       6.699   4.327  94.264  1.00  0.00     0.190 HD
BRANCH  17  20
HETATM   20  C6  UNL     1       5.727   1.870  95.040  1.00  0.00     0.333 C
BRANCH  20  21
HETATM   21  N6  UNL     1       5.828   2.973  95.967  1.00  0.00    -0.071 N
ATOM     22  H63 UNL     1       5.300   3.791  95.664  1.00  0.00     0.274 HD
ATOM     23  H62 UNL     1       5.329   2.801  96.839  1.00  0.00     0.274 HD
ATOM     24  H61 UNL     1       6.818   3.176  96.112  1.00  0.00     0.274 HD
ENDBRANCH  20  21
ENDBRANCH  17  20
ENDBRANCH  14  16
ENDBRANCH   1  14
TORSDOF 8
ENDMDL