MODEL 4
REMARK VINA RESULT: -7.778716550      4.706      9.083
REMARK  11 active torsions:
REMARK  status: ('A' for Active; 'I' for Inactive)
REMARK    1  A    between atoms: N2_4  and  C3_5
REMARK    2  A    between atoms: C3_5  and  O1_6
REMARK    3  A    between atoms: C3_5  and  C4_8
REMARK    4  A    between atoms: C4_8  and  N3_9
REMARK    5  A    between atoms: N3_9  and  N4_11
REMARK       I    between atoms: N4_11  and  C5_13
REMARK    6  A    between atoms: C5_13  and  C6_15
REMARK    7  A    between atoms: C11_25  and  O3_26
REMARK    8  A    between atoms: C11_25  and  C12_28
REMARK    9  A    between atoms: C12_28  and  O4_29
REMARK   10  A    between atoms: C12_28  and  O5_31
REMARK   11  A    between atoms: C14_34  and  N7_35
ROOT
HETATM    1  C4  UNL     1      29.327  20.033  -1.789  1.00  0.00     0.134 C
HETATM    2  C11 UNL     1      28.596  18.825  -2.031  1.00  0.00     0.130 C
ENDROOT
BRANCH   1   3
HETATM    3  C3  UNL     1      30.661  20.346  -1.621  1.00  0.00     0.179 C
BRANCH   3   4
HETATM    4  N2  UNL     1      31.615  20.569  -0.620  1.00  0.00    -0.293 N
HETATM    5  C2  UNL     1      32.485  21.637  -0.542  1.00  0.00     0.194 A
HETATM    6  N1  UNL     1      33.355  21.492   0.452  1.00  0.00    -0.327 N
HETATM    7  C1  UNL     1      34.424  22.392   0.859  1.00  0.00     0.159 C
HETATM    8  C14 UNL     1      33.106  20.344   1.066  1.00  0.00     0.192 A
HETATM    9  C13 UNL     1      32.019  19.795   0.375  1.00  0.00     0.155 A
BRANCH   8  10
HETATM   10  N7  UNL     1      33.790  19.783   2.189  1.00  0.00    -0.096 N
HETATM   11  O6  UNL     1      33.452  20.049   3.363  1.00  0.00    -0.530 OA
HETATM   12  O7  UNL     1      34.846  18.931   1.979  1.00  0.00    -0.530 OA
ENDBRANCH   8  10
ENDBRANCH   3   4
BRANCH   3  13
HETATM   13  O1  UNL     1      31.293  20.482  -2.818  1.00  0.00    -0.344 OA
ATOM     14  H1  UNL     1      32.227  20.489  -2.644  1.00  0.00     0.219 HD
ENDBRANCH   3  13
ENDBRANCH   1   3
BRANCH   1  15
HETATM   15  N3  UNL     1      28.448  21.040  -1.674  1.00  0.00    -0.291 N
ATOM     16  H3  UNL     1      27.650  20.861  -1.064  1.00  0.00     0.187 HD
BRANCH  15  17
HETATM   17  N4  UNL     1      28.476  22.228  -2.242  1.00  0.00    -0.264 N
HETATM   18  C5  UNL     1      28.683  22.488  -3.651  1.00  0.00     0.286 C
HETATM   19  O2  UNL     1      28.854  21.471  -4.397  1.00  0.00    -0.264 OA
ATOM     20  H4  UNL     1      28.339  23.036  -1.636  1.00  0.00     0.190 HD
BRANCH  18  21
HETATM   21  C6  UNL     1      28.709  23.789  -4.244  1.00  0.00     0.103 A
HETATM   22  C7  UNL     1      28.916  24.909  -3.468  1.00  0.00     0.035 A
HETATM   23  C8  UNL     1      28.943  26.182  -4.025  1.00  0.00     0.006 A
HETATM   24  C9  UNL     1      28.759  26.320  -5.383  1.00  0.00     0.048 A
HETATM   25  C10 UNL     1      28.555  25.213  -6.143  1.00  0.00     0.099 A
HETATM   26  N5  UNL     1      28.379  25.304  -7.414  1.00  0.00    -0.385 N
HETATM   27  N6  UNL     1      28.536  23.983  -5.546  1.00  0.00    -0.338 N
ATOM     28  H52 UNL     1      28.393  26.221  -7.859  1.00  0.00     0.157 HD
ATOM     29  H51 UNL     1      28.225  24.472  -7.985  1.00  0.00     0.157 HD
ATOM     30  H6  UNL     1      28.381  23.166  -6.135  1.00  0.00     0.167 HD
ENDBRANCH  18  21
ENDBRANCH  15  17
ENDBRANCH   1  15
BRANCH   2  31
HETATM   31  O3  UNL     1      27.256  19.020  -2.236  1.00  0.00    -0.358 OA
ATOM     32  H3  UNL     1      26.819  18.283  -2.647  1.00  0.00     0.217 HD
ENDBRANCH   2  31
BRANCH   2  33
HETATM   33  C12 UNL     1      28.881  17.430  -2.109  1.00  0.00     0.314 C
BRANCH  33  34
HETATM   34  O4  UNL     1      27.940  16.551  -2.569  1.00  0.00    -0.365 OA
ATOM     35  H4  UNL     1      27.165  16.358  -2.055  1.00  0.00     0.213 HD
ENDBRANCH  33  34
BRANCH  33  36
HETATM   36  O5  UNL     1      29.401  16.985  -0.861  1.00  0.00    -0.365 OA
ATOM     37  H5  UNL     1      29.114  16.095  -0.700  1.00  0.00     0.213 HD
ENDBRANCH  33  36
ENDBRANCH   2  33
TORSDOF 11
ENDMDL