MODEL 4
REMARK VINA RESULT: -7.401226708      1.347      3.418
REMARK  8 active torsions:
REMARK  status: ('A' for Active; 'I' for Inactive)
REMARK    1  A    between atoms: O1_2  and  N1_3
REMARK    2  A    between atoms: N1_3  and  C2_5
REMARK    3  A    between atoms: C4_10  and  C5_11
REMARK    4  A    between atoms: N4_14  and  S1_16
REMARK    5  A    between atoms: S1_16  and  C7_19
REMARK    6  A    between atoms: C8_20  and  C9_21
REMARK    7  A    between atoms: C9_21  and  N5_22
REMARK    8  A    between atoms: N5_22  and  N6_24
ROOT
HETATM    1  S1  UNL     1      33.936  19.627   4.562  1.00  0.00     0.268 S
HETATM    2  O3  UNL     1      34.673  20.674   5.364  1.00  0.00    -0.200 OA
HETATM    3  O4  UNL     1      32.715  19.230   5.338  1.00  0.00    -0.200 OA
ENDROOT
BRANCH   1   4
HETATM    4  N4  UNL     1      33.562  20.118   3.007  1.00  0.00    -0.264 N
HETATM    5  C6  UNL     1      34.045  20.925   2.181  1.00  0.00     0.147 A
HETATM    6  C4  UNL     1      33.431  21.060   0.941  1.00  0.00     0.088 A
HETATM    7  N10 UNL     1      35.153  21.738   2.346  1.00  0.00    -0.173 N
HETATM    8  C3  UNL     1      33.859  21.916  -0.046  1.00  0.00     0.149 A
HETATM    9  N2  UNL     1      34.936  22.669   0.190  1.00  0.00    -0.176 N
HETATM   10  N3  UNL     1      33.049  22.079  -1.224  1.00  0.00    -0.081 NA
HETATM   11  C2  UNL     1      35.562  22.566   1.376  1.00  0.00     0.705 A
ATOM     12  H2  UNL     1      35.279  23.316  -0.520  1.00  0.00     0.185 HD
ATOM     13  H10 UNL     1      35.669  21.706   3.226  1.00  0.00     0.186 HD
ATOM     14  H4  UNL     1      32.737  19.643   2.642  1.00  0.00     0.180 HD
BRANCH   6  15
HETATM   15  C5  UNL     1      32.379  20.115   0.548  1.00  0.00     0.277 C
HETATM   16  O2  UNL     1      32.393  18.943   0.605  1.00  0.00    -0.301 OA
ENDBRANCH   6  15
BRANCH  11  17
HETATM   17  N1  UNL     1      36.630  23.288   1.587  1.00  0.00    -0.097 N
ATOM     18  H1  UNL     1      37.320  23.001   2.280  1.00  0.00     0.213 HD
BRANCH  17  19
HETATM   19  O1  UNL     1      36.809  24.427   0.870  1.00  0.00    -0.272 OA
HETATM   20  C1  UNL     1      37.970  25.220   0.891  1.00  0.00     0.238 C
ENDBRANCH  17  19
ENDBRANCH  11  17
ENDBRANCH   1   4
BRANCH   1  21
HETATM   21  C7  UNL     1      35.016  18.233   4.517  1.00  0.00     0.136 A
HETATM   22  C8  UNL     1      34.965  17.200   3.636  1.00  0.00     0.056 A
HETATM   23  N7  UNL     1      35.924  16.319   3.988  1.00  0.00    -0.340 N
HETATM   24  C10 UNL     1      36.567  16.811   5.061  1.00  0.00     0.158 A
ATOM     25  H7  UNL     1      36.126  15.435   3.522  1.00  0.00     0.167 HD
HETATM   26  N8  UNL     1      37.593  16.567   5.938  1.00  0.00    -0.223 N
HETATM   27  C11 UNL     1      36.043  18.021   5.442  1.00  0.00     0.127 A
HETATM   28  O5  UNL     1      37.661  17.565   6.755  1.00  0.00    -0.155 OA
ATOM     29  H8  UNL     1      38.194  15.743   5.945  1.00  0.00     0.198 HD
HETATM   30  N9  UNL     1      36.748  18.448   6.483  1.00  0.00    -0.236 N
ATOM     31  H9  UNL     1      36.597  19.323   6.985  1.00  0.00     0.197 HD
BRANCH  22  32
HETATM   32  C9  UNL     1      34.024  16.935   2.476  1.00  0.00     0.197 C
BRANCH  32  33
HETATM   33  N5  UNL     1      32.845  16.440   3.127  1.00  0.00    -0.337 N
ATOM     34  H5  UNL     1      32.912  15.514   3.548  1.00  0.00     0.179 HD
BRANCH  33  35
HETATM   35  N6  UNL     1      31.680  17.058   3.239  1.00  0.00    -0.349 N
ATOM     36  H62 UNL     1      31.633  17.984   2.813  1.00  0.00     0.176 HD
ATOM     37  H61 UNL     1      30.842  16.706   3.701  1.00  0.00     0.176 HD
ENDBRANCH  33  35
ENDBRANCH  32  33
ENDBRANCH  22  32
ENDBRANCH   1  21
TORSDOF 8
ENDMDL