MODEL 1
REMARK VINA RESULT: -7.386352289      0.000      0.000
REMARK  9 active torsions:
REMARK  status: ('A' for Active; 'I' for Inactive)
REMARK    1  A    between atoms: C2_2  and  O1_3
REMARK    2  A    between atoms: O1_3  and  C3_4
REMARK    3  A    between atoms: C3_4  and  C4_6
REMARK    4  A    between atoms: C4_6  and  N1_7
REMARK       I    between atoms: N1_7  and  C5_9
REMARK    5  A    between atoms: C5_9  and  C6_11
REMARK    6  A    between atoms: C8_13  and  C9_14
REMARK       I    between atoms: C9_14  and  N2_16
REMARK    7  A    between atoms: N2_16  and  N3_18
REMARK    8  A    between atoms: C10_20  and  C11_21
REMARK    9  A    between atoms: C14_30  and  O9_31
ROOT
HETATM    1  C6  UNL     1      35.565  19.550   4.969  1.00  0.00     0.071 C
HETATM    2  C7  UNL     1      34.554  19.615   4.000  1.00  0.00     0.043 C
HETATM    3  C8  UNL     1      34.182  18.614   3.079  1.00  0.00     0.102 C
HETATM    4  C12 UNL     1      34.293  17.255   3.248  1.00  0.00     0.264 C
HETATM    5  O7  UNL     1      33.419  16.526   2.793  1.00  0.00    -0.267 OA
HETATM    6  N4  UNL     1      35.308  16.619   3.896  1.00  0.00    -0.287 N
ATOM      7  H4  UNL     1      35.520  15.672   3.582  1.00  0.00     0.172 HD
HETATM    8  C13 UNL     1      36.071  17.099   4.911  1.00  0.00     0.282 C
HETATM    9  O8  UNL     1      36.960  16.371   5.391  1.00  0.00    -0.265 OA
HETATM   10  C14 UNL     1      35.984  18.363   5.517  1.00  0.00     0.150 C
ENDROOT
BRANCH   1  11
HETATM   11  C5  UNL     1      36.180  20.802   5.345  1.00  0.00     0.255 C
HETATM   12  N1  UNL     1      37.531  21.143   5.298  1.00  0.00    -0.347 N
ATOM     13  H1  UNL     1      38.205  20.459   4.954  1.00  0.00     0.163 HD
HETATM   14  O3  UNL     1      35.403  21.737   5.775  1.00  0.00    -0.268 OA
BRANCH  12  15
HETATM   15  C4  UNL     1      38.001  22.445   5.728  1.00  0.00     0.233 C
BRANCH  15  16
HETATM   16  C3  UNL     1      39.057  22.388   6.755  1.00  0.00     0.276 C
HETATM   17  O2  UNL     1      39.022  21.539   7.662  1.00  0.00    -0.263 OA
BRANCH  16  18
HETATM   18  O1  UNL     1      40.096  23.290   6.706  1.00  0.00    -0.321 OA
BRANCH  18  19
HETATM   19  C2  UNL     1      40.666  23.740   5.481  1.00  0.00     0.174 C
HETATM   20  C1  UNL     1      40.459  25.211   5.277  1.00  0.00     0.034 C
ENDBRANCH  18  19
ENDBRANCH  16  18
ENDBRANCH  15  16
ENDBRANCH  12  15
ENDBRANCH   1  11
BRANCH  10  21
HETATM   21  O9  UNL     1      36.359  18.457   6.839  1.00  0.00    -0.355 OA
ATOM     22  H9  UNL     1      36.752  17.665   7.187  1.00  0.00     0.218 HD
ENDBRANCH  10  21
BRANCH   3  23
HETATM   23  C9  UNL     1      33.656  19.068   1.823  1.00  0.00     0.275 C
HETATM   24  O4  UNL     1      34.503  19.522   0.984  1.00  0.00    -0.266 OA
HETATM   25  N2  UNL     1      32.313  19.042   1.473  1.00  0.00    -0.266 N
ATOM     26  H2  UNL     1      31.622  18.682   2.132  1.00  0.00     0.190 HD
BRANCH  25  27
HETATM   27  N3  UNL     1      31.907  19.507   0.224  1.00  0.00    -0.302 N
HETATM   28  C10 UNL     1      31.536  20.703  -0.004  1.00  0.00     0.191 C
ATOM     29  H3  UNL     1      31.909  18.850  -0.556  1.00  0.00     0.186 HD
BRANCH  28  30
HETATM   30  C11 UNL     1      31.133  21.089  -1.334  1.00  0.00     0.216 C
HETATM   31  O5  UNL     1      31.151  20.240  -2.263  1.00  0.00    -0.643 OA
HETATM   32  O6  UNL     1      30.730  22.395  -1.572  1.00  0.00    -0.643 OA
ENDBRANCH  28  30
ENDBRANCH  25  27
ENDBRANCH   3  23
TORSDOF 9
ENDMDL