MODEL 2
REMARK VINA RESULT: -7.296890661      2.622      7.023
REMARK  12 active torsions:
REMARK  status: ('A' for Active; 'I' for Inactive)
REMARK    1  A    between atoms: C2_2  and  N1_3
REMARK    2  A    between atoms: C3_6  and  O1_7
REMARK    3  A    between atoms: C5_10  and  C6_11
REMARK    4  A    between atoms: C6_11  and  N3_12
REMARK    5  A    between atoms: N3_12  and  C7_14
REMARK    6  A    between atoms: C8_17  and  N5_18
REMARK    7  A    between atoms: N5_18  and  C9_20
REMARK    8  A    between atoms: C9_20  and  C10_21
REMARK    9  A    between atoms: C10_21  and  O2_22
REMARK   10  A    between atoms: N8_32  and  C15_33
REMARK   11  A    between atoms: C15_33  and  C16_34
REMARK   12  A    between atoms: C16_34  and  O4_35
ROOT
HETATM    1  C7  UNL     1      31.726  20.647  -0.562  1.00  0.00     0.148 A
HETATM    2  N4  UNL     1      30.643  19.836  -0.508  1.00  0.00    -0.175 N
ATOM      3  H4  UNL     1      30.467  19.316   0.352  1.00  0.00     0.186 HD
HETATM    4  C8  UNL     1      29.787  19.683  -1.537  1.00  0.00     0.681 A
HETATM    5  N6  UNL     1      30.001  20.359  -2.680  1.00  0.00    -0.174 N
ATOM      6  H6  UNL     1      29.355  20.245  -3.461  1.00  0.00     0.186 HD
HETATM    7  C11 UNL     1      31.061  21.185  -2.806  1.00  0.00     0.158 A
HETATM    8  C12 UNL     1      31.918  21.325  -1.747  1.00  0.00     0.128 A
HETATM    9  N7  UNL     1      32.886  22.185  -2.092  1.00  0.00    -0.297 N
HETATM   10  C13 UNL     1      33.997  22.622  -1.281  1.00  0.00     0.161 C
HETATM   11  C14 UNL     1      32.618  22.572  -3.368  1.00  0.00     0.330 A
HETATM   12  O3  UNL     1      33.348  23.383  -3.989  1.00  0.00    -0.246 OA
HETATM   13  N8  UNL     1      31.509  21.965  -3.804  1.00  0.00    -0.281 N
ENDROOT
BRANCH   1  14
HETATM   14  N3  UNL     1      32.519  20.772   0.428  1.00  0.00    -0.368 N
ATOM     15  H3  UNL     1      32.390  21.586   1.030  1.00  0.00     0.161 HD
BRANCH  14  16
HETATM   16  C6  UNL     1      33.570  19.871   0.766  1.00  0.00     0.180 C
BRANCH  16  17
HETATM   17  C5  UNL     1      33.169  18.904   1.837  1.00  0.00     0.050 A
HETATM   18  N1  UNL     1      33.145  19.149   3.168  1.00  0.00    -0.293 N
HETATM   19  N2  UNL     1      32.741  18.072   3.809  1.00  0.00    -0.278 N
HETATM   20  C3  UNL     1      32.487  17.086   2.925  1.00  0.00     0.156 A
ATOM     21  H2  UNL     1      32.636  17.996   4.820  1.00  0.00     0.189 HD
HETATM   22  C4  UNL     1      32.760  17.618   1.666  1.00  0.00     0.085 A
BRANCH  18  23
HETATM   23  C2  UNL     1      33.507  20.402   3.783  1.00  0.00     0.144 C
HETATM   24  C1  UNL     1      34.696  20.222   4.722  1.00  0.00     0.028 C
ENDBRANCH  18  23
BRANCH  20  25
HETATM   25  O1  UNL     1      32.045  15.803   3.193  1.00  0.00    -0.345 OA
ATOM     26  H1  UNL     1      31.369  15.538   3.807  1.00  0.00     0.219 HD
ENDBRANCH  20  25
ENDBRANCH  16  17
ENDBRANCH  14  16
ENDBRANCH   1  14
BRANCH   4  27
HETATM   27  N5  UNL     1      28.792  18.889  -1.382  1.00  0.00    -0.224 N
ATOM     28  H5  UNL     1      28.506  18.679  -0.426  1.00  0.00     0.177 HD
BRANCH  27  29
HETATM   29  C9  UNL     1      28.050  18.276  -2.441  1.00  0.00     0.164 C
BRANCH  29  30
HETATM   30  C10 UNL     1      28.290  16.761  -2.466  1.00  0.00     0.184 C
BRANCH  30  31
HETATM   31  O2  UNL     1      27.046  16.122  -2.477  1.00  0.00    -0.399 OA
ATOM     32  H2  UNL     1      26.615  16.297  -1.649  1.00  0.00     0.209 HD
ENDBRANCH  30  31
ENDBRANCH  29  30
ENDBRANCH  27  29
ENDBRANCH   4  27
BRANCH  13  33
HETATM   33  C15 UNL     1      30.902  22.112  -5.097  1.00  0.00     0.161 C
BRANCH  33  34
HETATM   34  C16 UNL     1      29.477  22.593  -5.023  1.00  0.00     0.184 C
BRANCH  34  35
HETATM   35  O4  UNL     1      28.642  21.495  -5.240  1.00  0.00    -0.399 OA
ATOM     36  H4  UNL     1      27.839  21.812  -5.637  1.00  0.00     0.209 HD
ENDBRANCH  34  35
ENDBRANCH  33  34
ENDBRANCH  13  33
TORSDOF 12
ENDMDL