MODEL 3
REMARK VINA RESULT: -7.870983425      1.419      2.492
REMARK  10 active torsions:
REMARK  status: ('A' for Active; 'I' for Inactive)
REMARK    1  A    between atoms: N1_2  and  C2_3
REMARK    2  A    between atoms: N1_2  and  C7_8
REMARK    3  A    between atoms: C2_3  and  C3_4
REMARK    4  A    between atoms: C8_11  and  N3_12
REMARK    5  A    between atoms: N3_12  and  C9_14
REMARK    6  A    between atoms: C12_19  and  O1_20
REMARK    7  A    between atoms: O1_20  and  C13_21
REMARK    8  A    between atoms: C13_21  and  C14_22
REMARK    9  A    between atoms: C17_28  and  N6_29
REMARK   10  A    between atoms: N6_29  and  N7_30
ROOT
HETATM    1  C7  UNL     1      33.759  18.773   3.489  1.00  0.00     0.697 A
HETATM    2  N2  UNL     1      33.181  17.568   3.681  1.00  0.00    -0.022 N
ATOM      3  H2  UNL     1      33.335  17.087   4.567  1.00  0.00     0.203 HD
HETATM    4  C8  UNL     1      32.412  16.980   2.754  1.00  0.00     0.696 A
HETATM    5  N4  UNL     1      32.228  17.636   1.598  1.00  0.00    -0.154 N
ATOM      6  H4  UNL     1      31.646  17.203   0.880  1.00  0.00     0.188 HD
HETATM    7  C12 UNL     1      32.776  18.838   1.342  1.00  0.00     0.252 A
HETATM    8  N9  UNL     1      33.551  19.396   2.319  1.00  0.00    -0.154 N
ATOM      9  H9  UNL     1      33.980  20.307   2.156  1.00  0.00     0.188 HD
ENDROOT
BRANCH   7  10
HETATM   10  O1  UNL     1      32.594  19.527   0.152  1.00  0.00    -0.317 OA
BRANCH  10  11
HETATM   11  C13 UNL     1      31.675  20.583   0.134  1.00  0.00     0.240 C
BRANCH  11  12
HETATM   12  C14 UNL     1      30.973  20.740  -1.186  1.00  0.00     0.220 C
HETATM   13  C15 UNL     1      29.955  19.597  -1.288  1.00  0.00     0.073 C
HETATM   14  N5  UNL     1      31.838  20.629  -2.314  1.00  0.00    -0.324 N
HETATM   15  C16 UNL     1      31.213  21.292  -3.391  1.00  0.00     0.268 C
ATOM     16  H5  UNL     1      32.742  20.157  -2.337  1.00  0.00     0.165 HD
HETATM   17  O2  UNL     1      31.419  21.172  -4.610  1.00  0.00    -0.270 OA
HETATM   18  C17 UNL     1      30.211  22.209  -2.779  1.00  0.00     0.391 C
HETATM   19  N8  UNL     1      30.352  22.017  -1.350  1.00  0.00    -0.018 N
ATOM     20  H82 UNL     1      29.475  22.113  -0.838  1.00  0.00     0.282 HD
ATOM     21  H81 UNL     1      30.850  22.775  -0.884  1.00  0.00     0.282 HD
BRANCH  18  22
HETATM   22  N6  UNL     1      28.861  21.871  -3.187  1.00  0.00    -0.105 NA
BRANCH  22  23
HETATM   23  N7  UNL     1      28.694  21.887  -4.557  1.00  0.00    -0.346 N
ATOM     24  H72 UNL     1      27.777  21.820  -5.001  1.00  0.00     0.172 HD
ATOM     25  H71 UNL     1      29.575  21.972  -5.063  1.00  0.00     0.172 HD
ENDBRANCH  22  23
ENDBRANCH  18  22
ENDBRANCH  11  12
ENDBRANCH  10  11
ENDBRANCH   7  10
BRANCH   4  26
HETATM   26  N3  UNL     1      31.895  15.848   2.987  1.00  0.00    -0.221 N
ATOM     27  H3  UNL     1      30.946  15.861   3.361  1.00  0.00     0.178 HD
BRANCH  26  28
HETATM   28  C9  UNL     1      32.469  14.562   2.794  1.00  0.00     0.099 A
HETATM   29  C10 UNL     1      33.333  14.210   1.654  1.00  0.00     0.028 A
HETATM   30  C11 UNL     1      31.912  13.593   1.812  1.00  0.00     0.028 A
ENDBRANCH  26  28
ENDBRANCH   4  26
BRANCH   1  31
HETATM   31  N1  UNL     1      34.571  19.329   4.538  1.00  0.00    -0.221 N
HETATM   32  C1  UNL     1      35.033  20.700   4.488  1.00  0.00     0.168 C
BRANCH  31  33
HETATM   33  C2  UNL     1      34.959  18.531   5.685  1.00  0.00     0.145 C
BRANCH  33  34
HETATM   34  C3  UNL     1      36.385  18.084   5.498  1.00  0.00     0.004 C
HETATM   35  C4  UNL     1      36.522  16.578   5.235  1.00  0.00     0.006 C
HETATM   36  C5  UNL     1      37.742  16.571   6.140  1.00  0.00     0.001 C
HETATM   37  C6  UNL     1      37.133  17.819   6.802  1.00  0.00     0.006 C
ENDBRANCH  33  34
ENDBRANCH  31  33
ENDBRANCH   1  31
TORSDOF 10
ENDMDL