MODEL 2
REMARK VINA RESULT: -6.720019268      7.123     11.217
REMARK  9 active torsions:
REMARK  status: ('A' for Active; 'I' for Inactive)
REMARK    1  A    between atoms: C2_3  and  O2_5
REMARK    2  A    between atoms: O2_5  and  C3_6
REMARK    3  A    between atoms: C3_6  and  C4_7
REMARK    4  A    between atoms: C4_7  and  O3_8
REMARK    5  A    between atoms: O3_8  and  C5_9
REMARK    6  A    between atoms: C5_9  and  N2_10
REMARK    7  A    between atoms: C9_20  and  C10_21
REMARK    8  A    between atoms: C10_21  and  C11_22
REMARK    9  A    between atoms: C13_29  and  O7_30
ROOT
HETATM    1  N1  UNL     1      36.180  21.866   5.819  1.00  0.00    -0.186 NA
HETATM    2  C1  UNL     1      36.889  22.380   5.047  1.00  0.00     0.170 C
HETATM    3  C2  UNL     1      37.737  22.994   4.096  1.00  0.00     0.365 C
HETATM    4  O1  UNL     1      38.507  23.944   4.465  1.00  0.00    -0.247 OA
ENDROOT
BRANCH   3   5
HETATM    5  O2  UNL     1      37.812  22.651   2.757  1.00  0.00    -0.307 OA
BRANCH   5   6
HETATM    6  C3  UNL     1      37.010  23.207   1.742  1.00  0.00     0.206 C
BRANCH   6   7
HETATM    7  C4  UNL     1      36.222  22.141   1.081  1.00  0.00     0.196 C
BRANCH   7   8
HETATM    8  O3  UNL     1      35.404  21.361   1.785  1.00  0.00    -0.369 OA
BRANCH   8   9
HETATM    9  C5  UNL     1      34.063  21.474   1.766  1.00  0.00     0.305 C
BRANCH   9  10
HETATM   10  N2  UNL     1      33.530  20.105   1.826  1.00  0.00    -0.261 N
HETATM   11  C6  UNL     1      32.731  19.616   0.892  1.00  0.00     0.332 A
HETATM   12  O4  UNL     1      32.426  20.374  -0.066  1.00  0.00    -0.246 OA
HETATM   13  N3  UNL     1      32.287  18.356   0.999  1.00  0.00    -0.273 N
HETATM   14  C7  UNL     1      32.615  17.547   2.024  1.00  0.00     0.280 A
ATOM     15  H3  UNL     1      31.672  17.993   0.271  1.00  0.00     0.173 HD
HETATM   16  O5  UNL     1      32.224  16.375   2.159  1.00  0.00    -0.265 OA
HETATM   17  C8  UNL     1      33.458  18.054   3.018  1.00  0.00     0.147 A
HETATM   18  N4  UNL     1      33.986  17.582   4.138  1.00  0.00    -0.338 N
HETATM   19  C14 UNL     1      33.898  19.354   2.879  1.00  0.00     0.147 A
HETATM   20  C9  UNL     1      34.753  18.509   4.746  1.00  0.00     0.089 A
ATOM     21  H4  UNL     1      33.832  16.639   4.494  1.00  0.00     0.167 HD
HETATM   22  N7  UNL     1      34.695  19.599   3.964  1.00  0.00    -0.329 N
ATOM     23  H7  UNL     1      35.174  20.479   4.151  1.00  0.00     0.168 HD
BRANCH  20  24
HETATM   24  C10 UNL     1      35.507  18.321   6.031  1.00  0.00     0.138 C
BRANCH  24  25
HETATM   25  C11 UNL     1      36.443  17.168   5.882  1.00  0.00     0.071 A
HETATM   26  N5  UNL     1      36.480  16.269   4.884  1.00  0.00    -0.308 N
HETATM   27  C12 UNL     1      37.473  15.414   5.156  1.00  0.00     0.326 A
ATOM     28  H5  UNL     1      35.865  16.243   4.071  1.00  0.00     0.170 HD
HETATM   29  O6  UNL     1      37.795  14.423   4.416  1.00  0.00    -0.247 OA
HETATM   30  N6  UNL     1      38.078  15.738   6.302  1.00  0.00    -0.287 N
HETATM   31  C13 UNL     1      37.442  16.828   6.758  1.00  0.00     0.167 A
ATOM     32  H6  UNL     1      38.861  15.255   6.741  1.00  0.00     0.172 HD
BRANCH  31  33
HETATM   33  O7  UNL     1      37.792  17.478   7.960  1.00  0.00    -0.345 OA
ATOM     34  H7  UNL     1      37.333  17.448   8.792  1.00  0.00     0.219 HD
ENDBRANCH  31  33
ENDBRANCH  24  25
ENDBRANCH  20  24
ENDBRANCH   9  10
ENDBRANCH   8   9
ENDBRANCH   7   8
ENDBRANCH   6   7
ENDBRANCH   5   6
ENDBRANCH   3   5
TORSDOF 9
ENDMDL