MODEL 5
REMARK VINA RESULT: -6.973081564      1.572      3.460
REMARK  10 active torsions:
REMARK  status: ('A' for Active; 'I' for Inactive)
REMARK    1  A    between atoms: O1_2  and  C2_3
REMARK    2  A    between atoms: C2_3  and  C3_4
REMARK    3  A    between atoms: C3_4  and  O3_6
REMARK    4  A    between atoms: O3_6  and  C4_7
REMARK    5  A    between atoms: C4_7  and  N1_8
REMARK    6  A    between atoms: C5_9  and  C6_10
REMARK       I    between atoms: C6_10  and  N2_12
REMARK    7  A    between atoms: N2_12  and  N3_14
REMARK    8  A    between atoms: C7_16  and  C8_17
REMARK    9  A    between atoms: C11_20  and  N4_21
REMARK   10  A    between atoms: C12_26  and  O5_27
ROOT
HETATM    1  C6  UNL     1      34.186  21.373   2.076  1.00  0.00     0.287 C
HETATM    2  O4  UNL     1      34.215  22.450   1.370  1.00  0.00    -0.264 OA
HETATM    3  N2  UNL     1      33.058  20.574   1.929  1.00  0.00    -0.265 N
ATOM      4  H2  UNL     1      32.961  19.713   2.466  1.00  0.00     0.190 HD
ENDROOT
BRANCH   1   5
HETATM    5  C5  UNL     1      35.338  21.155   2.932  1.00  0.00     0.115 A
HETATM    6  N1  UNL     1      35.267  20.759   4.169  1.00  0.00    -0.272 N
HETATM    7  C15 UNL     1      36.423  20.757   4.920  1.00  0.00     0.331 A
HETATM    8  N6  UNL     1      37.614  21.133   4.450  1.00  0.00    -0.275 N
HETATM    9  O7  UNL     1      36.376  20.382   6.125  1.00  0.00    -0.246 OA
HETATM   10  C14 UNL     1      37.682  21.532   3.180  1.00  0.00     0.251 A
ATOM     11  H6  UNL     1      38.443  21.115   5.043  1.00  0.00     0.173 HD
HETATM   12  C13 UNL     1      36.584  21.567   2.368  1.00  0.00     0.110 A
HETATM   13  O6  UNL     1      38.805  21.884   2.736  1.00  0.00    -0.268 OA
BRANCH   6  14
HETATM   14  C4  UNL     1      34.155  20.157   4.855  1.00  0.00     0.314 C
BRANCH  14  15
HETATM   15  O3  UNL     1      33.837  18.875   4.420  1.00  0.00    -0.299 OA
BRANCH  15  16
HETATM   16  C3  UNL     1      34.607  17.874   4.030  1.00  0.00     0.284 C
HETATM   17  O2  UNL     1      35.456  17.371   4.808  1.00  0.00    -0.263 OA
BRANCH  16  18
HETATM   18  C2  UNL     1      34.578  17.233   2.674  1.00  0.00     0.278 C
BRANCH  18  19
HETATM   19  O1  UNL     1      33.603  17.663   1.840  1.00  0.00    -0.386 OA
HETATM   20  C1  UNL     1      32.424  16.982   1.803  1.00  0.00     0.202 C
ENDBRANCH  18  19
ENDBRANCH  16  18
ENDBRANCH  15  16
ENDBRANCH  14  15
ENDBRANCH   6  14
ENDBRANCH   1   5
BRANCH   3  21
HETATM   21  N3  UNL     1      32.049  20.970   1.027  1.00  0.00    -0.308 N
HETATM   22  C7  UNL     1      31.888  20.386  -0.107  1.00  0.00     0.122 C
ATOM     23  H3  UNL     1      31.431  21.741   1.280  1.00  0.00     0.186 HD
BRANCH  22  24
HETATM   24  C8  UNL     1      30.831  20.840  -0.992  1.00  0.00     0.032 A
HETATM   25  C9  UNL     1      30.749  22.176  -1.373  1.00  0.00     0.021 A
HETATM   26  C10 UNL     1      29.738  22.603  -2.217  1.00  0.00     0.049 A
HETATM   27  C11 UNL     1      28.815  21.699  -2.677  1.00  0.00     0.100 A
HETATM   28  N5  UNL     1      28.895  20.401  -2.307  1.00  0.00    -0.323 N
HETATM   29  C12 UNL     1      29.873  19.999  -1.493  1.00  0.00     0.153 A
ATOM     30  H5  UNL     1      28.208  19.730  -2.650  1.00  0.00     0.169 HD
BRANCH  27  31
HETATM   31  N4  UNL     1      27.857  22.037  -3.462  1.00  0.00    -0.385 N
ATOM     32  H42 UNL     1      28.024  22.807  -4.107  1.00  0.00     0.157 HD
ATOM     33  H41 UNL     1      26.954  21.563  -3.454  1.00  0.00     0.157 HD
ENDBRANCH  27  31
BRANCH  29  34
HETATM   34  O5  UNL     1      29.962  18.650  -1.103  1.00  0.00    -0.345 OA
ATOM     35  H5  UNL     1      30.147  18.488  -0.186  1.00  0.00     0.219 HD
ENDBRANCH  29  34
ENDBRANCH  22  24
ENDBRANCH   3  21
TORSDOF 10
ENDMDL