MODEL 1
REMARK VINA RESULT: -7.156356832      0.000      0.000
REMARK  8 active torsions:
REMARK  status: ('A' for Active; 'I' for Inactive)
REMARK    1  A    between atoms: C3_3  and  C4_4
REMARK    2  A    between atoms: C4_4  and  O2_6
REMARK    3  A    between atoms: O2_6  and  C5_7
REMARK    4  A    between atoms: C9_15  and  N3_16
REMARK       I    between atoms: N3_16  and  C10_18
REMARK       I    between atoms: C10_18  and  N6_23
REMARK    5  A    between atoms: N6_23  and  O3_25
REMARK    6  A    between atoms: O3_25  and  C12_26
REMARK    7  A    between atoms: C12_26  and  C13_27
REMARK    8  A    between atoms: C13_27  and  N7_28
ROOT
HETATM    1  C5  UNL     1      27.929  30.382  -4.529  1.00  0.00     0.302 C
HETATM    2  C6  UNL     1      26.649  29.684  -4.391  1.00  0.00     0.085 C
HETATM    3  N1  UNL     1      25.635  29.133  -4.302  1.00  0.00    -0.195 NA
ENDROOT
BRANCH   1   4
HETATM    4  O2  UNL     1      29.010  29.518  -4.714  1.00  0.00    -0.304 OA
BRANCH   4   5
HETATM    5  C4  UNL     1      29.121  28.241  -4.297  1.00  0.00     0.290 C
HETATM    6  O1  UNL     1      29.015  28.097  -3.012  1.00  0.00    -0.260 OA
BRANCH   5   7
HETATM    7  C3  UNL     1      29.331  27.068  -5.054  1.00  0.00     0.024 C
HETATM    8  C2  UNL     1      30.563  26.629  -5.206  1.00  0.00    -0.062 C
HETATM    9  C1  UNL     1      31.576  27.450  -4.543  1.00  0.00     0.045 C
HETATM   10  C15 UNL     1      31.164  25.452  -5.927  1.00  0.00     0.110 C
HETATM   11  S1  UNL     1      30.971  23.916  -5.025  1.00  0.00    -0.128 SA
HETATM   12  C14 UNL     1      29.299  23.252  -5.191  1.00  0.00     0.300 C
HETATM   13  C9  UNL     1      28.633  23.380  -3.834  1.00  0.00     0.342 C
HETATM   14  N8  UNL     1      28.569  24.141  -6.084  1.00  0.00    -0.029 N
HETATM   15  N2  UNL     1      28.177  24.735  -3.867  1.00  0.00    -0.022 N
HETATM   16  C8  UNL     1      27.870  25.045  -5.234  1.00  0.00     0.391 C
ATOM     17  H22 UNL     1      28.838  25.389  -3.447  1.00  0.00     0.282 HD
ATOM     18  H21 UNL     1      27.398  24.910  -3.233  1.00  0.00     0.282 HD
HETATM   19  C7  UNL     1      28.035  26.502  -5.579  1.00  0.00     0.107 C
ATOM     20  H82 UNL     1      27.967  23.652  -6.746  1.00  0.00     0.281 HD
ATOM     21  H81 UNL     1      29.159  24.602  -6.776  1.00  0.00     0.281 HD
BRANCH  13  22
HETATM   22  N3  UNL     1      29.608  23.189  -2.782  1.00  0.00    -0.191 N
HETATM   23  C10 UNL     1      29.821  21.926  -2.193  1.00  0.00     0.708 C
HETATM   24  N4  UNL     1      29.048  20.951  -2.474  1.00  0.00    -0.124 N
HETATM   25  N6  UNL     1      30.889  21.737  -1.293  1.00  0.00    -0.096 N
HETATM   26  C11 UNL     1      29.193  19.668  -1.933  1.00  0.00     0.196 C
ATOM     27  H4  UNL     1      28.284  21.115  -3.128  1.00  0.00     0.197 HD
HETATM   28  N5  UNL     1      29.301  18.597  -1.470  1.00  0.00    -0.171 NA
ATOM     29  H6  UNL     1      31.185  22.544  -0.743  1.00  0.00     0.213 HD
ATOM     30  H3  UNL     1      30.155  23.987  -2.460  1.00  0.00     0.180 HD
BRANCH  25  31
HETATM   31  O3  UNL     1      31.543  20.592  -1.101  1.00  0.00    -0.265 OA
BRANCH  31  32
HETATM   32  C12 UNL     1      32.732  20.761  -0.398  1.00  0.00     0.229 C
BRANCH  32  33
HETATM   33  C13 UNL     1      32.893  19.751   0.703  1.00  0.00     0.258 C
BRANCH  33  34
HETATM   34  N7  UNL     1      31.907  18.709   0.616  1.00  0.00    -0.077 N
ATOM     35  H73 UNL     1      31.292  18.711   1.429  1.00  0.00     0.274 HD
ATOM     36  H72 UNL     1      31.216  18.911  -0.107  1.00  0.00     0.274 HD
ATOM     37  H71 UNL     1      32.336  17.795   0.477  1.00  0.00     0.274 HD
ENDBRANCH  33  34
ENDBRANCH  32  33
ENDBRANCH  31  32
ENDBRANCH  25  31
ENDBRANCH  13  22
ENDBRANCH   5   7
ENDBRANCH   4   5
ENDBRANCH   1   4
TORSDOF 8
ENDMDL