MODEL 1
REMARK VINA RESULT: -6.907963660      0.000      0.000
REMARK  9 active torsions:
REMARK  status: ('A' for Active; 'I' for Inactive)
REMARK    1  A    between atoms: N1_1  and  C1_5
REMARK    2  A    between atoms: C8_15  and  O1_16
REMARK    3  A    between atoms: O1_16  and  N3_17
REMARK       I    between atoms: N3_17  and  C9_19
REMARK    4  A    between atoms: C9_19  and  C10_21
REMARK       I    between atoms: C10_21  and  N4_23
REMARK    5  A    between atoms: N4_23  and  O4_25
REMARK    6  A    between atoms: O4_25  and  C11_26
REMARK    7  A    between atoms: C11_26  and  C12_27
REMARK    8  A    between atoms: C12_27  and  O5_28
REMARK    9  A    between atoms: O5_28  and  S1_29
ROOT
HETATM    1  O1  UNL     1      31.174  19.855  -0.735  1.00  0.00    -0.267 OA
ENDROOT
BRANCH   1   2
HETATM    2  C8  UNL     1      30.367  20.790  -1.309  1.00  0.00     0.218 C
HETATM    3  C1  UNL     1      29.257  20.077  -2.146  1.00  0.00     0.217 C
HETATM    4  C2  UNL     1      28.783  21.148  -3.095  1.00  0.00     0.038 C
HETATM    5  C3  UNL     1      29.731  22.311  -2.948  1.00  0.00     0.044 C
HETATM    6  C4  UNL     1      30.981  21.582  -2.429  1.00  0.00     0.156 C
HETATM    7  C5  UNL     1      32.064  22.517  -2.080  1.00  0.00     0.043 C
HETATM    8  N2  UNL     1      31.459  20.716  -3.491  1.00  0.00    -0.064 N
HETATM    9  C6  UNL     1      33.333  21.900  -2.661  1.00  0.00     0.030 C
HETATM   10  C7  UNL     1      32.884  20.651  -3.373  1.00  0.00     0.233 C
ATOM     11  H22 UNL     1      31.016  19.797  -3.488  1.00  0.00     0.278 HD
ATOM     12  H21 UNL     1      31.148  21.009  -4.416  1.00  0.00     0.278 HD
BRANCH   3  13
HETATM   13  N1  UNL     1      28.258  19.672  -1.212  1.00  0.00    -0.072 N
ATOM     14  H13 UNL     1      28.445  18.732  -0.865  1.00  0.00     0.274 HD
ATOM     15  H12 UNL     1      28.345  20.193  -0.338  1.00  0.00     0.274 HD
ATOM     16  H11 UNL     1      27.310  19.742  -1.582  1.00  0.00     0.274 HD
ENDBRANCH   3  13
ENDBRANCH   1   2
BRANCH   1  17
HETATM   17  N3  UNL     1      31.640  20.079   0.484  1.00  0.00    -0.226 N
HETATM   18  C9  UNL     1      32.975  20.099   0.926  1.00  0.00     0.335 C
HETATM   19  O2  UNL     1      33.913  19.892   0.124  1.00  0.00    -0.260 OA
ATOM     20  H3  UNL     1      30.936  20.261   1.199  1.00  0.00     0.198 HD
BRANCH  18  21
HETATM   21  C10 UNL     1      33.312  20.353   2.308  1.00  0.00     0.335 C
HETATM   22  O3  UNL     1      33.942  21.417   2.597  1.00  0.00    -0.260 OA
HETATM   23  N4  UNL     1      32.937  19.426   3.316  1.00  0.00    -0.227 N
ATOM     24  H4  UNL     1      32.432  18.579   3.057  1.00  0.00     0.198 HD
BRANCH  23  25
HETATM   25  O4  UNL     1      33.237  19.647   4.609  1.00  0.00    -0.275 OA
BRANCH  25  26
HETATM   26  C11 UNL     1      34.289  18.807   4.968  1.00  0.00     0.229 C
BRANCH  26  27
HETATM   27  C12 UNL     1      35.496  19.569   5.406  1.00  0.00     0.221 C
BRANCH  27  28
HETATM   28  O5  UNL     1      35.167  20.923   5.453  1.00  0.00    -0.255 OA
BRANCH  28  29
HETATM   29  S1  UNL     1      36.592  21.802   5.512  1.00  0.00     0.251 S
HETATM   30  O6  UNL     1      36.527  22.904   6.556  1.00  0.00    -0.572 OA
HETATM   31  O7  UNL     1      37.714  20.849   5.798  1.00  0.00    -0.572 OA
HETATM   32  O8  UNL     1      36.856  22.584   4.036  1.00  0.00    -0.572 OA
ENDBRANCH  28  29
ENDBRANCH  27  28
ENDBRANCH  26  27
ENDBRANCH  25  26
ENDBRANCH  23  25
ENDBRANCH  18  21
ENDBRANCH   1  17
TORSDOF 9
ENDMDL