MODEL 2
REMARK VINA RESULT: -6.734129856      3.334      4.829
REMARK  9 active torsions:
REMARK  status: ('A' for Active; 'I' for Inactive)
REMARK    1  A    between atoms: N1_1  and  C1_4
REMARK    2  A    between atoms: C7_14  and  S1_15
REMARK    3  A    between atoms: S1_15  and  C8_18
REMARK    4  A    between atoms: C8_18  and  O4_19
REMARK    5  A    between atoms: O4_19  and  C9_20
REMARK    6  A    between atoms: C9_20  and  C10_21
REMARK    7  A    between atoms: C10_21  and  O5_22
REMARK    8  A    between atoms: O5_22  and  S2_23
REMARK    9  A    between atoms: S2_23  and  N4_24
ROOT
HETATM    1  C1  UNL     1      32.621  16.997   2.836  1.00  0.00     0.679 A
HETATM    2  N2  UNL     1      32.186  17.583   1.697  1.00  0.00    -0.156 N
ATOM      3  H2  UNL     1      31.446  17.174   1.127  1.00  0.00     0.187 HD
HETATM    4  C2  UNL     1      32.790  18.739   1.361  1.00  0.00     0.274 A
HETATM    5  O1  UNL     1      32.419  19.317   0.312  1.00  0.00    -0.267 OA
HETATM    6  C3  UNL     1      33.797  19.311   2.120  1.00  0.00     0.085 A
HETATM    7  C4  UNL     1      34.405  20.496   1.760  1.00  0.00     0.064 A
HETATM    8  N3  UNL     1      34.008  21.178   0.578  1.00  0.00    -0.101 NA
HETATM    9  C5  UNL     1      35.406  21.052   2.529  1.00  0.00     0.029 A
HETATM   10  C6  UNL     1      35.836  20.439   3.687  1.00  0.00     0.028 A
HETATM   11  C7  UNL     1      35.224  19.241   4.055  1.00  0.00     0.089 A
HETATM   12  C11 UNL     1      34.222  18.683   3.289  1.00  0.00     0.088 A
HETATM   13  N5  UNL     1      33.596  17.532   3.590  1.00  0.00    -0.189 N
ATOM     14  H5  UNL     1      33.877  17.038   4.437  1.00  0.00     0.184 HD
ENDROOT
BRANCH  11  15
HETATM   15  S1  UNL     1      35.716  18.432   5.490  1.00  0.00     0.199 S
HETATM   16  O2  UNL     1      34.643  18.390   6.553  1.00  0.00    -0.220 OA
HETATM   17  O3  UNL     1      36.059  17.006   5.158  1.00  0.00    -0.220 OA
BRANCH  15  18
HETATM   18  C8  UNL     1      37.164  19.135   6.234  1.00  0.00     0.313 C
BRANCH  18  19
HETATM   19  O4  UNL     1      38.326  18.586   5.784  1.00  0.00    -0.374 OA
BRANCH  19  20
HETATM   20  C9  UNL     1      39.138  19.474   5.139  1.00  0.00     0.196 C
BRANCH  20  21
HETATM   21  C10 UNL     1      39.486  20.689   5.963  1.00  0.00     0.218 C
BRANCH  21  22
HETATM   22  O5  UNL     1      38.959  21.789   5.236  1.00  0.00    -0.258 OA
BRANCH  22  23
HETATM   23  S2  UNL     1      38.339  22.851   6.383  1.00  0.00     0.355 S
HETATM   24  O6  UNL     1      39.000  22.611   7.694  1.00  0.00    -0.176 OA
HETATM   25  O7  UNL     1      36.853  22.575   6.466  1.00  0.00    -0.176 OA
BRANCH  23  26
HETATM   26  N4  UNL     1      38.570  24.445   5.799  1.00  0.00    -0.306 N
ATOM     27  H42 UNL     1      38.993  24.690   4.904  1.00  0.00     0.171 HD
ATOM     28  H41 UNL     1      38.210  25.090   6.503  1.00  0.00     0.171 HD
ENDBRANCH  23  26
ENDBRANCH  22  23
ENDBRANCH  21  22
ENDBRANCH  20  21
ENDBRANCH  19  20
ENDBRANCH  18  19
ENDBRANCH  15  18
ENDBRANCH  11  15
BRANCH   1  29
HETATM   29  N1  UNL     1      32.050  15.889   3.167  1.00  0.00    -0.234 N
ATOM     30  H12 UNL     1      31.078  15.700   2.921  1.00  0.00     0.174 HD
ATOM     31  H11 UNL     1      32.619  15.220   3.685  1.00  0.00     0.174 HD
ENDBRANCH   1  29
TORSDOF 9
ENDMDL