MODEL 5
REMARK VINA RESULT: -5.750080635      4.741      9.566
REMARK  16 active torsions:
REMARK  status: ('A' for Active; 'I' for Inactive)
REMARK    1  A    between atoms: C2_2  and  C3_3
REMARK    2  A    between atoms: C3_3  and  N1_4
REMARK    3  A    between atoms: N1_4  and  C4_6
REMARK    4  A    between atoms: N3_10  and  N4_12
REMARK    5  A    between atoms: N4_12  and  C6_13
REMARK    6  A    between atoms: C6_13  and  C7_14
REMARK    7  A    between atoms: C10_17  and  O1_18
REMARK    8  A    between atoms: O1_18  and  C11_19
REMARK    9  A    between atoms: C11_19  and  C12_20
REMARK   10  A    between atoms: C12_20  and  O2_21
REMARK   11  A    between atoms: C12_20  and  C13_23
REMARK   12  A    between atoms: C13_23  and  O3_24
REMARK   13  A    between atoms: N5_28  and  C16_29
REMARK   14  A    between atoms: C16_29  and  C17_30
REMARK   15  A    between atoms: C20_33  and  N6_34
REMARK   16  A    between atoms: N6_34  and  C21_36
ROOT
HETATM    1  C4  UNL     1      50.559  36.199  36.825  1.00  0.00     0.707 A
HETATM    2  N2  UNL     1      51.303  35.041  36.886  1.00  0.00    -0.019 N
ATOM      3  H2  UNL     1      52.286  35.068  36.610  1.00  0.00     0.203 HD
HETATM    4  C5  UNL     1      50.777  33.888  37.293  1.00  0.00     0.738 A
HETATM    5  N3  UNL     1      51.505  32.824  37.341  1.00  0.00    -0.064 N
ATOM      6  H3  UNL     1      50.962  32.024  37.669  1.00  0.00     0.221 HD
HETATM    7  N5  UNL     1      49.457  33.826  37.670  1.00  0.00    -0.011 N
HETATM    8  C20 UNL     1      48.694  34.947  37.627  1.00  0.00     0.710 A
HETATM    9  N7  UNL     1      49.278  36.082  37.206  1.00  0.00    -0.021 N
ATOM     10  H7  UNL     1      48.701  36.922  37.173  1.00  0.00     0.203 HD
ENDROOT
BRANCH   5  11
HETATM   11  N4  UNL     1      52.719  32.486  37.095  1.00  0.00    -0.323 NA
BRANCH  11  12
HETATM   12  C6  UNL     1      53.815  32.187  36.770  1.00  0.00     0.220 C
BRANCH  12  13
HETATM   13  C7  UNL     1      54.752  32.777  35.790  1.00  0.00    -0.005 A
HETATM   14  C8  UNL     1      54.545  32.590  34.432  1.00  0.00     0.017 A
HETATM   15  C9  UNL     1      55.402  33.153  33.532  1.00  0.00     0.037 A
HETATM   16  C10 UNL     1      56.520  33.939  33.916  1.00  0.00     0.068 A
HETATM   17  C14 UNL     1      56.673  34.085  35.264  1.00  0.00     0.037 A
HETATM   18  C15 UNL     1      55.824  33.528  36.203  1.00  0.00     0.017 A
BRANCH  16  19
HETATM   19  O1  UNL     1      57.303  34.450  33.003  1.00  0.00    -0.349 OA
BRANCH  19  20
HETATM   20  C11 UNL     1      57.993  34.555  31.912  1.00  0.00     0.209 C
BRANCH  20  21
HETATM   21  C12 UNL     1      59.458  34.121  31.874  1.00  0.00     0.166 C
BRANCH  21  22
HETATM   22  O2  UNL     1      59.732  33.509  33.135  1.00  0.00    -0.391 OA
ATOM     23  H2  UNL     1      59.720  32.571  32.987  1.00  0.00     0.210 HD
ENDBRANCH  21  22
BRANCH  21  24
HETATM   24  C13 UNL     1      60.409  35.286  31.812  1.00  0.00     0.198 C
BRANCH  24  25
HETATM   25  O3  UNL     1      59.630  36.480  31.834  1.00  0.00    -0.398 OA
ATOM     26  H3  UNL     1      60.061  37.115  31.274  1.00  0.00     0.209 HD
ENDBRANCH  24  25
ENDBRANCH  21  24
ENDBRANCH  20  21
ENDBRANCH  19  20
ENDBRANCH  16  19
ENDBRANCH  12  13
ENDBRANCH  11  12
ENDBRANCH   5  11
BRANCH   7  27
HETATM   27  C16 UNL     1      48.931  32.586  38.098  1.00  0.00     0.170 C
BRANCH  27  28
HETATM   28  C17 UNL     1      49.098  32.136  39.485  1.00  0.00    -0.003 C
HETATM   29  C18 UNL     1      49.823  30.831  39.714  1.00  0.00     0.011 C
HETATM   30  C19 UNL     1      49.705  33.113  40.467  1.00  0.00     0.011 C
ENDBRANCH  27  28
ENDBRANCH   7  27
BRANCH   1  31
HETATM   31  N1  UNL     1      51.108  37.267  36.399  1.00  0.00    -0.222 N
ATOM     32  H1  UNL     1      51.243  38.005  37.091  1.00  0.00     0.178 HD
BRANCH  31  33
HETATM   33  C3  UNL     1      51.555  37.561  35.083  1.00  0.00     0.164 C
BRANCH  33  34
HETATM   34  C2  UNL     1      53.092  37.432  35.019  1.00  0.00    -0.017 C
HETATM   35  C1  UNL     1      53.656  36.431  34.461  1.00  0.00     0.008 C
ENDBRANCH  33  34
ENDBRANCH  31  33
ENDBRANCH   1  31
BRANCH   8  36
HETATM   36  N6  UNL     1      47.499  34.879  37.994  1.00  0.00    -0.217 N
ATOM     37  H6  UNL     1      47.412  34.696  38.994  1.00  0.00     0.178 HD
BRANCH  36  38
HETATM   38  C21 UNL     1      46.255  34.994  37.365  1.00  0.00     0.036 C
HETATM   39  C22 UNL     1      45.506  33.669  37.654  1.00  0.00     0.038 C
HETATM   40  C23 UNL     1      45.383  36.089  37.944  1.00  0.00     0.038 C
HETATM   41  C24 UNL     1      46.278  35.080  35.853  1.00  0.00     0.038 C
ENDBRANCH  36  38
ENDBRANCH   8  36
TORSDOF 16
ENDMDL