MODEL 1
REMARK VINA RESULT: -6.996113574      0.000      0.000
REMARK  13 active torsions:
REMARK  status: ('A' for Active; 'I' for Inactive)
REMARK    1  A    between atoms: C2_2  and  O1_3
REMARK    2  A    between atoms: O1_3  and  C3_4
REMARK    3  A    between atoms: C3_4  and  C4_5
REMARK    4  A    between atoms: C4_5  and  N1_6
REMARK    5  A    between atoms: N1_6  and  C6_8
REMARK    6  A    between atoms: C9_11  and  O2_12
REMARK    7  A    between atoms: C11_14  and  N2_15
REMARK    8  A    between atoms: N2_15  and  C12_17
REMARK    9  A    between atoms: C13_20  and  N4_21
REMARK   10  A    between atoms: C16_28  and  O3_29
REMARK   11  A    between atoms: O3_29  and  C17_30
REMARK   12  A    between atoms: C17_30  and  C18_31
REMARK   13  A    between atoms: C19_34  and  O5_35
ROOT
HETATM    1  C12 UNL     1      49.830  30.548  37.052  1.00  0.00     0.134 A
HETATM    2  N3  UNL     1      49.558  29.420  36.371  1.00  0.00    -0.176 N
ATOM      3  H3  UNL     1      50.301  28.743  36.199  1.00  0.00     0.186 HD
HETATM    4  C13 UNL     1      48.314  29.177  35.914  1.00  0.00     0.677 A
HETATM    5  N5  UNL     1      47.343  30.081  36.150  1.00  0.00    -0.191 N
ATOM      6  H5  UNL     1      46.402  29.894  35.803  1.00  0.00     0.184 HD
HETATM    7  C14 UNL     1      47.572  31.224  36.826  1.00  0.00     0.066 A
HETATM    8  C15 UNL     1      46.570  32.150  37.063  1.00  0.00     0.070 A
HETATM    9  C16 UNL     1      46.771  33.328  37.749  1.00  0.00     0.104 A
HETATM   10  C19 UNL     1      48.066  33.567  38.216  1.00  0.00     0.102 A
HETATM   11  C21 UNL     1      49.084  32.661  37.996  1.00  0.00     0.057 A
HETATM   12  C22 UNL     1      48.833  31.496  37.303  1.00  0.00     0.039 A
ENDROOT
BRANCH   1  13
HETATM   13  N2  UNL     1      50.974  30.817  37.506  1.00  0.00    -0.339 N
ATOM     14  H2  UNL     1      51.117  30.572  38.486  1.00  0.00     0.167 HD
BRANCH  13  15
HETATM   15  C11 UNL     1      52.083  31.403  36.873  1.00  0.00     0.069 A
HETATM   16  C9  UNL     1      52.929  32.141  37.712  1.00  0.00     0.095 A
HETATM   17  C8  UNL     1      54.037  32.736  37.170  1.00  0.00     0.041 A
HETATM   18  C7  UNL     1      54.339  32.623  35.805  1.00  0.00     0.032 A
HETATM   19  C6  UNL     1      53.496  31.895  35.002  1.00  0.00     0.032 A
HETATM   20  C23 UNL     1      52.361  31.282  35.541  1.00  0.00     0.061 A
BRANCH  16  21
HETATM   21  O2  UNL     1      52.647  32.266  39.071  1.00  0.00    -0.354 OA
HETATM   22  C10 UNL     1      52.454  33.559  39.612  1.00  0.00     0.210 C
ENDBRANCH  16  21
BRANCH  19  23
HETATM   23  N1  UNL     1      53.769  31.755  33.612  1.00  0.00    -0.383 N
HETATM   24  C5  UNL     1      54.874  32.564  33.049  1.00  0.00     0.150 C
BRANCH  23  25
HETATM   25  C4  UNL     1      53.041  30.856  32.792  1.00  0.00     0.148 C
BRANCH  25  26
HETATM   26  C3  UNL     1      53.925  29.831  32.110  1.00  0.00     0.187 C
BRANCH  26  27
HETATM   27  O1  UNL     1      54.095  28.672  32.820  1.00  0.00    -0.390 OA
BRANCH  27  28
HETATM   28  C2  UNL     1      54.884  27.798  32.096  1.00  0.00     0.163 C
HETATM   29  C1  UNL     1      55.230  26.549  32.869  1.00  0.00     0.033 C
ENDBRANCH  27  28
ENDBRANCH  26  27
ENDBRANCH  25  26
ENDBRANCH  23  25
ENDBRANCH  19  23
ENDBRANCH  13  15
ENDBRANCH   1  13
BRANCH   4  30
HETATM   30  N4  UNL     1      48.102  28.087  35.271  1.00  0.00    -0.234 N
ATOM     31  H42 UNL     1      48.786  27.331  35.232  1.00  0.00     0.174 HD
ATOM     32  H41 UNL     1      47.214  27.978  34.781  1.00  0.00     0.174 HD
ENDBRANCH   4  30
BRANCH  10  33
HETATM   33  O5  UNL     1      48.250  34.756  38.903  1.00  0.00    -0.353 OA
HETATM   34  C20 UNL     1      49.006  35.772  38.273  1.00  0.00     0.210 C
ENDBRANCH  10  33
BRANCH   9  35
HETATM   35  O3  UNL     1      45.752  34.249  37.978  1.00  0.00    -0.340 OA
BRANCH  35  36
HETATM   36  C17 UNL     1      45.588  35.315  37.073  1.00  0.00     0.275 C
BRANCH  36  37
HETATM   37  C18 UNL     1      45.233  36.577  37.760  1.00  0.00     0.255 C
HETATM   38  N6  UNL     1      44.528  37.631  37.146  1.00  0.00    -0.060 NA
HETATM   39  O4  UNL     1      45.584  36.714  38.963  1.00  0.00    -0.274 OA
ENDBRANCH  36  37
ENDBRANCH  35  36
ENDBRANCH   9  35
TORSDOF 13
ENDMDL