MODEL 3
REMARK VINA RESULT: -6.169240857      2.254      4.263
REMARK  14 active torsions:
REMARK  status: ('A' for Active; 'I' for Inactive)
REMARK    1  A    between atoms: O1_2  and  C2_3
REMARK    2  A    between atoms: C2_3  and  C3_5
REMARK    3  A    between atoms: C6_10  and  N2_11
REMARK    4  A    between atoms: N2_11  and  C7_13
REMARK    5  A    between atoms: C7_13  and  C8_14
REMARK    6  A    between atoms: C8_14  and  C9_15
REMARK    7  A    between atoms: C9_15  and  O3_16
REMARK    8  A    between atoms: O3_16  and  C10_17
REMARK    9  A    between atoms: C12_19  and  O4_20
REMARK   10  A    between atoms: C17_26  and  N4_27
REMARK   11  A    between atoms: N4_27  and  C18_29
REMARK   12  A    between atoms: C18_29  and  C19_30
REMARK   13  A    between atoms: C19_30  and  C20_31
REMARK   14  A    between atoms: C20_31  and  N5_32
ROOT
HETATM    1  C3  UNL     1      54.833  32.966  35.897  1.00  0.00     0.112 A
HETATM    2  C4  UNL     1      53.801  32.271  35.305  1.00  0.00     0.069 A
HETATM    3  C5  UNL     1      52.934  31.918  36.320  1.00  0.00     0.080 A
HETATM    4  N1  UNL     1      51.757  31.232  36.342  1.00  0.00    -0.337 N
ATOM      5  H1  UNL     1      51.367  30.871  35.472  1.00  0.00     0.168 HD
HETATM    6  C6  UNL     1      51.105  31.027  37.499  1.00  0.00     0.146 A
HETATM    7  C17 UNL     1      51.611  31.509  38.715  1.00  0.00     0.147 A
HETATM    8  N6  UNL     1      52.769  32.181  38.674  1.00  0.00    -0.324 N
ATOM      9  H6  UNL     1      53.162  32.543  39.543  1.00  0.00     0.169 HD
HETATM   10  C23 UNL     1      53.442  32.396  37.505  1.00  0.00     0.135 A
HETATM   11  N7  UNL     1      54.589  33.024  37.215  1.00  0.00    -0.336 N
ATOM     12  H7  UNL     1      55.191  33.480  37.900  1.00  0.00     0.168 HD
ENDROOT
BRANCH   6  13
HETATM   13  N2  UNL     1      50.014  30.399  37.577  1.00  0.00    -0.373 N
ATOM     14  H2  UNL     1      49.346  30.774  38.252  1.00  0.00     0.161 HD
BRANCH  13  15
HETATM   15  C7  UNL     1      49.578  29.257  36.872  1.00  0.00     0.123 C
BRANCH  15  16
HETATM   16  C8  UNL     1      48.548  29.570  35.798  1.00  0.00     0.046 C
BRANCH  16  17
HETATM   17  C9  UNL     1      47.232  29.967  36.419  1.00  0.00     0.177 C
BRANCH  17  18
HETATM   18  O3  UNL     1      47.296  31.182  37.017  1.00  0.00    -0.349 OA
BRANCH  18  19
HETATM   19  C10 UNL     1      46.914  32.448  36.703  1.00  0.00     0.095 A
HETATM   20  C11 UNL     1      47.338  33.194  35.630  1.00  0.00     0.075 A
HETATM   21  C12 UNL     1      46.859  34.492  35.425  1.00  0.00     0.070 A
HETATM   22  C14 UNL     1      45.953  35.082  36.269  1.00  0.00     0.039 A
HETATM   23  C15 UNL     1      45.521  34.346  37.345  1.00  0.00     0.032 A
HETATM   24  C16 UNL     1      45.984  33.073  37.557  1.00  0.00     0.079 A
HETATM   25  N3  UNL     1      45.529  32.308  38.682  1.00  0.00    -0.100 NA
BRANCH  21  26
HETATM   26  O4  UNL     1      47.336  35.175  34.324  1.00  0.00    -0.356 OA
HETATM   27  C13 UNL     1      48.329  36.154  34.391  1.00  0.00     0.210 C
ENDBRANCH  21  26
ENDBRANCH  18  19
ENDBRANCH  17  18
ENDBRANCH  16  17
ENDBRANCH  15  16
ENDBRANCH  13  15
ENDBRANCH   6  13
BRANCH   7  28
HETATM   28  N4  UNL     1      50.958  31.295  39.794  1.00  0.00    -0.373 N
ATOM     29  H4  UNL     1      50.851  30.317  40.065  1.00  0.00     0.161 HD
BRANCH  28  30
HETATM   30  C18 UNL     1      50.362  32.248  40.663  1.00  0.00     0.123 C
BRANCH  30  31
HETATM   31  C19 UNL     1      49.275  33.065  40.015  1.00  0.00     0.050 C
BRANCH  31  32
HETATM   32  C20 UNL     1      49.886  34.354  39.521  1.00  0.00     0.273 C
BRANCH  32  33
HETATM   33  N5  UNL     1      49.426  34.742  38.222  1.00  0.00     0.080 N
HETATM   34  C21 UNL     1      48.748  36.024  38.200  1.00  0.00     0.309 C
HETATM   35  C22 UNL     1      50.499  34.715  37.258  1.00  0.00     0.309 C
ENDBRANCH  32  33
ENDBRANCH  31  32
ENDBRANCH  30  31
ENDBRANCH  28  30
ENDBRANCH   7  28
BRANCH   1  36
HETATM   36  C2  UNL     1      55.996  33.540  35.187  1.00  0.00     0.309 C
HETATM   37  O2  UNL     1      56.933  34.070  35.806  1.00  0.00    -0.258 OA
BRANCH  36  38
HETATM   38  O1  UNL     1      56.035  33.483  33.815  1.00  0.00    -0.321 OA
HETATM   39  C1  UNL     1      57.199  33.758  33.048  1.00  0.00     0.213 C
ENDBRANCH  36  38
ENDBRANCH   1  36
TORSDOF 14
ENDMDL