MODEL 1
REMARK VINA RESULT: -6.718144964      0.000      0.000
REMARK  15 active torsions:
REMARK  status: ('A' for Active; 'I' for Inactive)
REMARK    1  A    between atoms: C2_2  and  O1_3
REMARK    2  A    between atoms: C2_2  and  C3_5
REMARK    3  A    between atoms: C3_5  and  O2_6
REMARK    4  A    between atoms: O2_6  and  C4_7
REMARK    5  A    between atoms: C7_10  and  C8_11
REMARK    6  A    between atoms: C9_12  and  C10_13
REMARK    7  A    between atoms: C10_13  and  O3_14
REMARK    8  A    between atoms: O3_14  and  C11_15
REMARK    9  A    between atoms: C12_17  and  C13_18
REMARK   10  A    between atoms: C13_18  and  O5_19
REMARK   11  A    between atoms: C14_21  and  O6_22
REMARK   12  A    between atoms: C15_24  and  O7_25
REMARK   13  A    between atoms: C16_27  and  O8_28
REMARK   14  A    between atoms: O8_28  and  C17_29
REMARK   15  A    between atoms: C17_29  and  C18_30
ROOT
HETATM    1  C11 UNL     1      47.869  33.047  36.874  1.00  0.00     0.292 C
HETATM    2  O4  UNL     1      47.440  34.074  36.080  1.00  0.00    -0.348 OA
HETATM    3  C12 UNL     1      46.145  34.477  36.197  1.00  0.00     0.179 C
HETATM    4  C14 UNL     1      45.376  33.974  37.365  1.00  0.00     0.180 C
HETATM    5  C15 UNL     1      46.153  33.676  38.593  1.00  0.00     0.183 C
HETATM    6  C16 UNL     1      47.586  33.291  38.349  1.00  0.00     0.208 C
ENDROOT
BRANCH   1   7
HETATM    7  O3  UNL     1      47.294  31.875  36.517  1.00  0.00    -0.355 OA
BRANCH   7   8
HETATM    8  C10 UNL     1      48.060  30.812  36.221  1.00  0.00     0.198 C
BRANCH   8   9
HETATM    9  C9  UNL     1      49.516  31.017  36.154  1.00  0.00     0.000 C
HETATM   10  C8  UNL     1      50.048  31.833  35.295  1.00  0.00     0.011 C
BRANCH  10  11
HETATM   11  C7  UNL     1      51.448  32.134  35.113  1.00  0.00    -0.021 A
HETATM   12  C6  UNL     1      52.415  31.662  35.968  1.00  0.00     0.017 A
HETATM   13  C5  UNL     1      53.763  31.968  35.773  1.00  0.00     0.057 A
HETATM   14  C4  UNL     1      54.174  32.751  34.720  1.00  0.00     0.143 A
HETATM   15  N1  UNL     1      53.179  33.207  33.884  1.00  0.00    -0.341 N
HETATM   16  C24 UNL     1      51.885  32.913  34.071  1.00  0.00     0.104 A
HETATM   17  C25 UNL     1      53.556  34.037  32.755  1.00  0.00     0.158 C
BRANCH  14  18
HETATM   18  O2  UNL     1      55.467  33.101  34.445  1.00  0.00    -0.333 OA
BRANCH  18  19
HETATM   19  C3  UNL     1      56.335  33.958  35.086  1.00  0.00     0.208 C
BRANCH  19  20
HETATM   20  C2  UNL     1      55.758  35.311  35.412  1.00  0.00     0.138 C
HETATM   21  C1  UNL     1      56.383  35.785  36.740  1.00  0.00     0.041 C
BRANCH  20  22
HETATM   22  O1  UNL     1      56.163  36.226  34.420  1.00  0.00    -0.394 OA
ATOM     23  H1  UNL     1      55.964  35.828  33.580  1.00  0.00     0.210 HD
ENDBRANCH  20  22
ENDBRANCH  19  20
ENDBRANCH  18  19
ENDBRANCH  14  18
ENDBRANCH  10  11
ENDBRANCH   8   9
ENDBRANCH   7   8
ENDBRANCH   1   7
BRANCH   6  24
HETATM   24  O8  UNL     1      48.482  34.197  38.909  1.00  0.00    -0.374 OA
BRANCH  24  25
HETATM   25  C17 UNL     1      49.479  33.629  39.655  1.00  0.00     0.207 C
BRANCH  25  26
HETATM   26  C18 UNL     1      50.779  34.004  39.011  1.00  0.00    -0.035 A
HETATM   27  C19 UNL     1      50.832  34.761  37.853  1.00  0.00     0.009 A
HETATM   28  C20 UNL     1      52.025  35.110  37.257  1.00  0.00     0.001 A
HETATM   29  C21 UNL     1      53.211  34.692  37.832  1.00  0.00     0.000 A
HETATM   30  C22 UNL     1      53.183  33.939  38.985  1.00  0.00     0.001 A
HETATM   31  C23 UNL     1      51.976  33.608  39.554  1.00  0.00     0.009 A
ENDBRANCH  25  26
ENDBRANCH  24  25
ENDBRANCH   6  24
BRANCH   3  32
HETATM   32  C13 UNL     1      45.369  34.310  34.884  1.00  0.00     0.198 C
BRANCH  32  33
HETATM   33  O5  UNL     1      45.528  33.051  34.351  1.00  0.00    -0.398 OA
ATOM     34  H5  UNL     1      44.709  32.570  34.326  1.00  0.00     0.209 HD
ENDBRANCH  32  33
ENDBRANCH   3  32
BRANCH   5  35
HETATM   35  O7  UNL     1      45.487  32.701  39.364  1.00  0.00    -0.390 OA
ATOM     36  H7  UNL     1      45.797  32.726  40.262  1.00  0.00     0.210 HD
ENDBRANCH   5  35
BRANCH   4  37
HETATM   37  O6  UNL     1      44.619  32.864  36.921  1.00  0.00    -0.390 OA
ATOM     38  H6  UNL     1      44.829  32.135  37.491  1.00  0.00     0.210 HD
ENDBRANCH   4  37
TORSDOF 15
ENDMDL