MODEL 5
REMARK VINA RESULT: -6.978082909      2.924      6.440
REMARK  15 active torsions:
REMARK  status: ('A' for Active; 'I' for Inactive)
REMARK    1  A    between atoms: N1_1  and  C1_5
REMARK    2  A    between atoms: C1_5  and  C2_6
REMARK    3  A    between atoms: C2_6  and  C3_7
REMARK    4  A    between atoms: C3_7  and  C4_8
REMARK    5  A    between atoms: C4_8  and  N2_9
REMARK    6  A    between atoms: C5_10  and  O1_11
REMARK    7  A    between atoms: N3_14  and  C7_15
REMARK    8  A    between atoms: C7_15  and  C8_16
REMARK    9  A    between atoms: C8_16  and  O2_17
REMARK   10  A    between atoms: C8_16  and  N4_19
REMARK   11  A    between atoms: N4_19  and  C9_21
REMARK   12  A    between atoms: C9_21  and  C10_22
REMARK   13  A    between atoms: C9_21  and  S1_29
REMARK   14  A    between atoms: C10_22  and  C11_23
REMARK   15  A    between atoms: S1_29  and  C17_32
ROOT
HETATM    1  C8  UNL     1      49.537  29.978  35.093  1.00  0.00     0.233 C
ENDROOT
BRANCH   1   2
HETATM    2  C7  UNL     1      48.345  30.273  36.047  1.00  0.00     0.186 C
BRANCH   2   3
HETATM    3  N3  UNL     1      48.836  30.696  37.344  1.00  0.00    -0.301 N
HETATM    4  C6  UNL     1      49.554  29.920  38.171  1.00  0.00     0.151 A
HETATM    5  C5  UNL     1      49.807  30.732  39.302  1.00  0.00     0.162 A
HETATM    6  N2  UNL     1      49.255  31.927  39.129  1.00  0.00    -0.279 N
HETATM    7  C23 UNL     1      48.651  31.888  37.894  1.00  0.00     0.330 A
HETATM    8  O5  UNL     1      48.011  32.830  37.349  1.00  0.00    -0.246 OA
BRANCH   5   9
HETATM    9  O1  UNL     1      50.517  30.309  40.392  1.00  0.00    -0.345 OA
ATOM     10  H1  UNL     1      51.405  29.971  40.397  1.00  0.00     0.219 HD
ENDBRANCH   5   9
BRANCH   6  11
HETATM   11  C4  UNL     1      49.194  33.104  39.920  1.00  0.00     0.136 C
BRANCH  11  12
HETATM   12  C3  UNL     1      50.127  34.206  39.622  1.00  0.00     0.022 C
BRANCH  12  13
HETATM   13  C2  UNL     1      51.386  33.784  38.948  1.00  0.00     0.029 C
BRANCH  13  14
HETATM   14  C1  UNL     1      52.568  33.762  39.908  1.00  0.00     0.229 C
BRANCH  14  15
HETATM   15  N1  UNL     1      52.576  32.513  40.645  1.00  0.00    -0.079 N
ATOM     16  H13 UNL     1      51.736  31.960  40.472  1.00  0.00     0.274 HD
ATOM     17  H12 UNL     1      53.263  31.856  40.278  1.00  0.00     0.274 HD
ATOM     18  H11 UNL     1      52.715  32.700  41.638  1.00  0.00     0.274 HD
ENDBRANCH  14  15
ENDBRANCH  13  14
ENDBRANCH  12  13
ENDBRANCH  11  12
ENDBRANCH   6  11
ENDBRANCH   2   3
ENDBRANCH   1   2
BRANCH   1  19
HETATM   19  O2  UNL     1      49.027  29.007  34.245  1.00  0.00    -0.376 OA
ATOM     20  H2  UNL     1      48.761  29.506  33.482  1.00  0.00     0.212 HD
ENDBRANCH   1  19
BRANCH   1  21
HETATM   21  N4  UNL     1      49.876  31.213  34.526  1.00  0.00    -0.378 N
ATOM     22  H4  UNL     1      49.301  31.560  33.759  1.00  0.00     0.157 HD
BRANCH  21  23
HETATM   23  C9  UNL     1      50.944  31.992  34.943  1.00  0.00     0.212 C
BRANCH  23  24
HETATM   24  C10 UNL     1      51.172  33.287  34.232  1.00  0.00     0.079 C
BRANCH  24  25
HETATM   25  C11 UNL     1      50.929  34.488  35.055  1.00  0.00    -0.055 A
HETATM   26  C12 UNL     1      49.701  34.899  35.436  1.00  0.00     0.007 A
HETATM   27  C13 UNL     1      49.491  36.036  36.234  1.00  0.00     0.001 A
HETATM   28  C14 UNL     1      50.561  36.763  36.647  1.00  0.00     0.000 A
HETATM   29  C15 UNL     1      51.845  36.379  36.279  1.00  0.00     0.001 A
HETATM   30  C16 UNL     1      52.014  35.260  35.497  1.00  0.00     0.007 A
ENDBRANCH  24  25
ENDBRANCH  23  24
BRANCH  23  31
HETATM   31  S1  UNL     1      52.479  31.087  35.120  1.00  0.00     0.197 S
HETATM   32  O3  UNL     1      52.814  30.356  33.845  1.00  0.00    -0.220 OA
HETATM   33  O4  UNL     1      52.338  30.148  36.278  1.00  0.00    -0.220 OA
BRANCH  31  34
HETATM   34  C17 UNL     1      53.832  32.133  35.446  1.00  0.00     0.061 A
HETATM   35  C18 UNL     1      54.138  32.464  36.754  1.00  0.00     0.023 A
HETATM   36  C19 UNL     1      55.220  33.308  37.052  1.00  0.00     0.002 A
HETATM   37  C20 UNL     1      55.999  33.825  36.014  1.00  0.00     0.000 A
HETATM   38  C21 UNL     1      55.692  33.497  34.736  1.00  0.00     0.002 A
HETATM   39  C22 UNL     1      54.622  32.662  34.453  1.00  0.00     0.023 A
ENDBRANCH  31  34
ENDBRANCH  23  31
ENDBRANCH  21  23
ENDBRANCH   1  21
TORSDOF 15
ENDMDL