MODEL 2
REMARK VINA RESULT: -6.583750564      3.746      7.822
REMARK  12 active torsions:
REMARK  status: ('A' for Active; 'I' for Inactive)
REMARK    1  A    between atoms: N1_2  and  C2_4
REMARK    2  A    between atoms: C3_7  and  O1_8
REMARK    3  A    between atoms: O1_8  and  C4_9
REMARK    4  A    between atoms: C4_9  and  C5_10
REMARK    5  A    between atoms: C5_10  and  O2_11
REMARK    6  A    between atoms: C9_15  and  N3_16
REMARK    7  A    between atoms: C10_18  and  C11_19
REMARK    8  A    between atoms: C12_20  and  O3_21
REMARK    9  A    between atoms: O3_21  and  C13_22
REMARK   10  A    between atoms: C13_22  and  C14_23
REMARK   11  A    between atoms: C14_23  and  O4_24
REMARK   12  A    between atoms: O4_24  and  C15_25
ROOT
HETATM    1  C11 UNL     1      48.304  31.596  37.490  1.00  0.00     0.098 A
HETATM    2  C12 UNL     1      49.199  31.439  38.559  1.00  0.00     0.163 A
HETATM    3  N4  UNL     1      49.716  30.225  38.737  1.00  0.00    -0.288 N
ATOM      4  H4  UNL     1      50.370  30.073  39.505  1.00  0.00     0.172 HD
HETATM    5  C22 UNL     1      49.393  29.177  37.921  1.00  0.00     0.329 A
HETATM    6  O5  UNL     1      49.896  28.039  38.112  1.00  0.00    -0.247 OA
HETATM    7  N5  UNL     1      48.540  29.303  36.893  1.00  0.00    -0.275 N
ATOM      8  H5  UNL     1      48.311  28.510  36.295  1.00  0.00     0.173 HD
HETATM    9  C23 UNL     1      47.996  30.522  36.682  1.00  0.00     0.265 A
HETATM   10  O6  UNL     1      47.202  30.621  35.714  1.00  0.00    -0.267 OA
ENDROOT
BRANCH   1  11
HETATM   11  C10 UNL     1      47.746  32.915  37.268  1.00  0.00     0.110 C
HETATM   12  N3  UNL     1      46.470  33.112  37.153  1.00  0.00    -0.362 N
ATOM     13  H3  UNL     1      45.827  32.323  37.222  1.00  0.00     0.165 HD
BRANCH  12  14
HETATM   14  C9  UNL     1      45.958  34.430  36.929  1.00  0.00     0.076 A
HETATM   15  C2  UNL     1      45.695  34.869  35.671  1.00  0.00     0.130 A
HETATM   16  N2  UNL     1      45.203  36.135  35.502  1.00  0.00    -0.322 N
HETATM   17  C3  UNL     1      44.957  36.990  36.515  1.00  0.00     0.143 A
ATOM     18  H2  UNL     1      45.010  36.451  34.552  1.00  0.00     0.169 HD
HETATM   19  C7  UNL     1      45.231  36.519  37.780  1.00  0.00     0.058 A
HETATM   20  C8  UNL     1      45.724  35.265  38.011  1.00  0.00     0.038 A
BRANCH  15  21
HETATM   21  N1  UNL     1      45.861  34.213  34.587  1.00  0.00    -0.379 N
HETATM   22  C1  UNL     1      45.993  34.684  33.270  1.00  0.00     0.147 C
ATOM     23  H1  UNL     1      45.903  33.199  34.693  1.00  0.00     0.160 HD
ENDBRANCH  15  21
BRANCH  17  24
HETATM   24  O1  UNL     1      44.463  38.254  36.238  1.00  0.00    -0.334 OA
BRANCH  24  25
HETATM   25  C4  UNL     1      43.182  38.610  35.934  1.00  0.00     0.203 C
BRANCH  25  26
HETATM   26  C5  UNL     1      42.647  38.245  34.594  1.00  0.00     0.193 C
BRANCH  26  27
HETATM   27  O2  UNL     1      42.378  36.931  34.342  1.00  0.00    -0.394 OA
HETATM   28  C6  UNL     1      42.522  36.477  33.073  1.00  0.00     0.201 C
ENDBRANCH  26  27
ENDBRANCH  25  26
ENDBRANCH  24  25
ENDBRANCH  17  24
ENDBRANCH  12  14
ENDBRANCH   1  11
BRANCH   2  29
HETATM   29  O3  UNL     1      49.497  32.494  39.346  1.00  0.00    -0.333 OA
BRANCH  29  30
HETATM   30  C13 UNL     1      50.506  32.592  40.302  1.00  0.00     0.204 C
BRANCH  30  31
HETATM   31  C14 UNL     1      51.730  33.323  39.866  1.00  0.00     0.202 C
BRANCH  31  32
HETATM   32  O4  UNL     1      51.824  33.518  38.485  1.00  0.00    -0.348 OA
BRANCH  32  33
HETATM   33  C15 UNL     1      53.094  33.591  37.926  1.00  0.00     0.074 A
HETATM   34  C16 UNL     1      53.966  34.627  38.192  1.00  0.00     0.037 A
HETATM   35  C17 UNL     1      55.224  34.672  37.619  1.00  0.00     0.003 A
HETATM   36  C18 UNL     1      55.653  33.686  36.764  1.00  0.00     0.001 A
HETATM   37  C19 UNL     1      54.797  32.636  36.481  1.00  0.00     0.009 A
HETATM   38  C20 UNL     1      53.544  32.598  37.055  1.00  0.00    -0.029 A
HETATM   39  C21 UNL     1      52.612  31.493  36.774  1.00  0.00     0.051 C
ENDBRANCH  32  33
ENDBRANCH  31  32
ENDBRANCH  30  31
ENDBRANCH  29  30
ENDBRANCH   2  29
TORSDOF 12
ENDMDL