MODEL 4
REMARK VINA RESULT: -6.146461875      1.793      2.619
REMARK  17 active torsions:
REMARK  status: ('A' for Active; 'I' for Inactive)
REMARK    1  A    between atoms: C2_2  and  C3_3
REMARK    2  A    between atoms: C3_3  and  C4_4
REMARK    3  A    between atoms: C6_6  and  N1_7
REMARK    4  A    between atoms: N1_7  and  C7_9
REMARK    5  A    between atoms: C7_9  and  C8_10
REMARK    6  A    between atoms: C9_11  and  C10_12
REMARK    7  A    between atoms: C10_12  and  C13_15
REMARK    8  A    between atoms: C13_15  and  N2_16
REMARK    9  A    between atoms: N2_16  and  N3_18
REMARK   10  A    between atoms: N3_18  and  N4_19
REMARK   11  A    between atoms: N6_26  and  C15_27
REMARK   12  A    between atoms: C15_27  and  O2_28
REMARK   13  A    between atoms: O2_28  and  C16_29
REMARK   14  A    between atoms: C19_32  and  C20_33
REMARK   15  A    between atoms: C20_33  and  O3_34
REMARK   16  A    between atoms: C21_36  and  O4_37
REMARK   17  A    between atoms: C22_39  and  O5_40
ROOT
HETATM    1  C4  UNL     1      51.856  33.777  39.159  1.00  0.00     0.022 A
HETATM    2  C5  UNL     1      53.182  33.748  38.715  1.00  0.00     0.073 A
HETATM    3  C6  UNL     1      53.646  34.513  37.671  1.00  0.00     0.106 A
HETATM    4  N5  UNL     1      52.740  35.320  37.072  1.00  0.00    -0.294 N
ATOM      5  H5  UNL     1      53.034  35.909  36.292  1.00  0.00     0.172 HD
HETATM    6  C14 UNL     1      51.463  35.363  37.482  1.00  0.00     0.330 A
HETATM    7  O1  UNL     1      50.661  36.123  36.899  1.00  0.00    -0.246 OA
HETATM    8  N6  UNL     1      51.012  34.602  38.517  1.00  0.00    -0.281 N
ENDROOT
BRANCH   3   9
HETATM    9  N1  UNL     1      54.875  34.468  37.282  1.00  0.00    -0.373 N
ATOM     10  H1  UNL     1      55.436  35.316  37.365  1.00  0.00     0.161 HD
BRANCH   9  11
HETATM   11  C7  UNL     1      55.498  33.295  36.740  1.00  0.00     0.148 C
BRANCH  11  12
HETATM   12  C8  UNL     1      55.202  33.103  35.296  1.00  0.00    -0.011 C
HETATM   13  C9  UNL     1      54.171  32.418  34.845  1.00  0.00    -0.019 C
BRANCH  13  14
HETATM   14  C10 UNL     1      53.908  32.247  33.395  1.00  0.00    -0.012 C
HETATM   15  C11 UNL     1      53.401  30.868  33.112  1.00  0.00     0.021 C
HETATM   16  C12 UNL     1      55.204  32.415  32.589  1.00  0.00     0.021 C
BRANCH  14  17
HETATM   17  C13 UNL     1      52.948  33.272  32.849  1.00  0.00     0.168 C
BRANCH  17  18
HETATM   18  N2  UNL     1      52.063  33.779  33.874  1.00  0.00    -0.252 N
ATOM     19  H2  UNL     1      51.649  33.151  34.563  1.00  0.00     0.197 HD
BRANCH  18  20
HETATM   20  N3  UNL     1      51.822  34.978  33.898  1.00  0.00    -0.249 NA
BRANCH  20  21
HETATM   21  N4  UNL     1      51.222  36.056  33.883  1.00  0.00    -0.261 N
ATOM     22  H42 UNL     1      50.309  35.652  33.671  1.00  0.00     0.193 HD
ATOM     23  H41 UNL     1      51.016  37.053  33.936  1.00  0.00     0.193 HD
ENDBRANCH  20  21
ENDBRANCH  18  20
ENDBRANCH  17  18
ENDBRANCH  14  17
ENDBRANCH  13  14
ENDBRANCH  11  12
ENDBRANCH   9  11
ENDBRANCH   3   9
BRANCH   1  24
HETATM   24  C3  UNL     1      51.458  32.921  40.289  1.00  0.00     0.057 C
BRANCH  24  25
HETATM   25  C2  UNL     1      51.587  31.442  39.991  1.00  0.00     0.002 C
HETATM   26  C1  UNL     1      50.229  30.790  39.944  1.00  0.00     0.005 C
ENDBRANCH  24  25
ENDBRANCH   1  24
BRANCH   8  27
HETATM   27  C15 UNL     1      49.613  34.690  38.941  1.00  0.00     0.303 C
BRANCH  27  28
HETATM   28  O2  UNL     1      48.769  34.395  37.869  1.00  0.00    -0.363 OA
BRANCH  28  29
HETATM   29  C16 UNL     1      48.340  33.094  37.865  1.00  0.00     0.159 C
HETATM   30  C17 UNL     1      48.257  32.651  36.404  1.00  0.00     0.022 C
HETATM   31  C18 UNL     1      49.527  31.997  35.947  1.00  0.00     0.013 C
HETATM   32  C19 UNL     1      47.067  31.720  36.337  1.00  0.00     0.047 C
HETATM   33  C21 UNL     1      46.100  32.364  37.279  1.00  0.00     0.156 C
HETATM   34  C22 UNL     1      46.964  32.878  38.390  1.00  0.00     0.176 C
BRANCH  32  35
HETATM   35  C20 UNL     1      47.439  30.313  36.749  1.00  0.00     0.172 C
BRANCH  35  36
HETATM   36  O3  UNL     1      46.454  29.399  36.478  1.00  0.00    -0.400 OA
ATOM     37  H3  UNL     1      46.398  28.711  37.130  1.00  0.00     0.209 HD
ENDBRANCH  35  36
ENDBRANCH  32  35
BRANCH  33  38
HETATM   38  O4  UNL     1      45.083  31.528  37.701  1.00  0.00    -0.392 OA
ATOM     39  H4  UNL     1      45.279  31.053  38.500  1.00  0.00     0.210 HD
ENDBRANCH  33  38
BRANCH  34  40
HETATM   40  O5  UNL     1      46.367  34.030  38.894  1.00  0.00    -0.390 OA
ATOM     41  H5  UNL     1      45.658  34.361  38.356  1.00  0.00     0.210 HD
ENDBRANCH  34  40
ENDBRANCH  28  29
ENDBRANCH  27  28
ENDBRANCH   8  27
TORSDOF 17
ENDMDL