MODEL 2
REMARK VINA RESULT: -6.107493447      1.576      2.036
REMARK  15 active torsions:
REMARK  status: ('A' for Active; 'I' for Inactive)
REMARK    1  A    between atoms: C2_2  and  C4_4
REMARK    2  A    between atoms: C5_5  and  C6_6
REMARK    3  A    between atoms: C8_8  and  C9_9
REMARK    4  A    between atoms: C9_9  and  N1_10
REMARK    5  A    between atoms: C9_9  and  N2_14
REMARK    6  A    between atoms: C12_20  and  O1_21
REMARK    7  A    between atoms: O1_21  and  C13_22
REMARK    8  A    between atoms: C13_22  and  C14_23
REMARK    9  A    between atoms: C14_23  and  O2_24
REMARK   10  A    between atoms: O2_24  and  C15_25
REMARK   11  A    between atoms: C15_25  and  C16_26
REMARK   12  A    between atoms: C16_26  and  O3_27
REMARK   13  A    between atoms: O3_27  and  C17_28
REMARK   14  A    between atoms: C17_28  and  C18_29
REMARK   15  A    between atoms: C18_29  and  N3_30
ROOT
HETATM    1  C13 UNL     1      52.627  31.206  35.894  1.00  0.00     0.201 C
ENDROOT
BRANCH   1   2
HETATM    2  O1  UNL     1      53.687  31.631  36.642  1.00  0.00    -0.348 OA
BRANCH   2   3
HETATM    3  C12 UNL     1      54.381  32.799  36.630  1.00  0.00     0.087 A
HETATM    4  C6  UNL     1      54.095  33.711  37.652  1.00  0.00     0.051 A
HETATM    5  C7  UNL     1      54.761  34.947  37.757  1.00  0.00     0.034 A
HETATM    6  C8  UNL     1      55.703  35.209  36.796  1.00  0.00     0.000 A
HETATM    7  C10 UNL     1      55.986  34.328  35.789  1.00  0.00     0.014 A
HETATM    8  C11 UNL     1      55.338  33.117  35.683  1.00  0.00     0.039 A
BRANCH   4   9
HETATM    9  C5  UNL     1      53.070  33.396  38.601  1.00  0.00    -0.064 C
HETATM   10  C4  UNL     1      52.195  33.094  39.416  1.00  0.00    -0.097 C
BRANCH  10  11
HETATM   11  C2  UNL     1      51.183  32.701  40.376  1.00  0.00     0.057 C
HETATM   12  C1  UNL     1      50.933  31.222  40.359  1.00  0.00     0.023 C
HETATM   13  C3  UNL     1      49.874  33.462  40.155  1.00  0.00     0.023 C
ENDBRANCH  10  11
ENDBRANCH   4   9
BRANCH   6  14
HETATM   14  C9  UNL     1      56.478  36.505  36.849  1.00  0.00     0.411 C
BRANCH  14  15
HETATM   15  N1  UNL     1      55.819  37.516  36.020  1.00  0.00    -0.046 N
ATOM     16  H13 UNL     1      56.033  37.397  35.029  1.00  0.00     0.277 HD
ATOM     17  H12 UNL     1      54.811  37.373  35.972  1.00  0.00     0.277 HD
ATOM     18  H11 UNL     1      56.059  38.449  36.353  1.00  0.00     0.277 HD
ENDBRANCH  14  15
BRANCH  14  19
HETATM   19  N2  UNL     1      56.573  36.962  38.228  1.00  0.00    -0.046 N
ATOM     20  H23 UNL     1      55.824  37.610  38.471  1.00  0.00     0.277 HD
ATOM     21  H22 UNL     1      56.349  36.222  38.894  1.00  0.00     0.277 HD
ATOM     22  H21 UNL     1      57.496  37.362  38.394  1.00  0.00     0.277 HD
ENDBRANCH  14  19
ENDBRANCH   6  14
ENDBRANCH   2   3
ENDBRANCH   1   2
BRANCH   1  23
HETATM   23  C14 UNL     1      51.663  30.209  36.118  1.00  0.00     0.194 C
BRANCH  23  24
HETATM   24  O2  UNL     1      50.595  30.712  36.974  1.00  0.00    -0.387 OA
BRANCH  24  25
HETATM   25  C15 UNL     1      49.605  29.757  37.019  1.00  0.00     0.193 C
BRANCH  25  26
HETATM   26  C16 UNL     1      48.345  30.047  36.251  1.00  0.00     0.193 C
BRANCH  26  27
HETATM   27  O3  UNL     1      47.428  30.715  37.002  1.00  0.00    -0.387 OA
BRANCH  27  28
HETATM   28  C17 UNL     1      46.972  31.928  36.665  1.00  0.00     0.198 C
BRANCH  28  29
HETATM   29  C18 UNL     1      47.975  33.062  36.813  1.00  0.00     0.298 C
BRANCH  29  30
HETATM   30  N3  UNL     1      47.685  34.146  35.915  1.00  0.00     0.093 N
HETATM   31  C19 UNL     1      48.392  34.057  34.703  1.00  0.00     0.300 C
HETATM   32  C20 UNL     1      49.610  33.156  34.665  1.00  0.00     0.262 C
HETATM   33  N4  UNL     1      50.819  33.891  34.931  1.00  0.00    -0.073 N
HETATM   34  C21 UNL     1      51.137  34.781  33.836  1.00  0.00     0.232 C
ATOM     35  H42 UNL     1      50.768  34.391  35.819  1.00  0.00     0.277 HD
ATOM     36  H41 UNL     1      51.597  33.269  35.148  1.00  0.00     0.277 HD
HETATM   37  C22 UNL     1      51.378  36.184  34.269  1.00  0.00     0.029 C
HETATM   38  C23 UNL     1      52.103  36.327  35.582  1.00  0.00     0.021 C
HETATM   39  C24 UNL     1      51.264  36.072  36.792  1.00  0.00     0.113 C
HETATM   40  N5  UNL     1      49.904  36.378  36.541  1.00  0.00    -0.419 N
HETATM   41  C25 UNL     1      48.929  35.755  37.362  1.00  0.00     0.144 C
ATOM     42  H5  UNL     1      49.636  37.024  35.798  1.00  0.00     0.153 HD
HETATM   43  C26 UNL     1      47.701  35.416  36.594  1.00  0.00     0.291 C
ENDBRANCH  29  30
ENDBRANCH  28  29
ENDBRANCH  27  28
ENDBRANCH  26  27
ENDBRANCH  25  26
ENDBRANCH  24  25
ENDBRANCH  23  24
ENDBRANCH   1  23
TORSDOF 15
ENDMDL