MODEL 3
REMARK VINA RESULT: -6.562062448      0.538      1.309
REMARK  13 active torsions:
REMARK  status: ('A' for Active; 'I' for Inactive)
REMARK    1  A    between atoms: C2_2  and  C3_3
REMARK    2  A    between atoms: C6_6  and  S1_7
REMARK    3  A    between atoms: S1_7  and  N1_8
REMARK    4  A    between atoms: S1_7  and  C7_12
REMARK    5  A    between atoms: C10_20  and  N4_21
REMARK    6  A    between atoms: N6_27  and  C12_28
REMARK    7  A    between atoms: C12_28  and  C13_29
REMARK    8  A    between atoms: C13_29  and  O3_30
REMARK    9  A    between atoms: O3_30  and  C14_31
REMARK   10  A    between atoms: C14_31  and  C15_32
REMARK   11  A    between atoms: C15_32  and  N7_33
REMARK   12  A    between atoms: N7_33  and  C16_34
REMARK   13  A    between atoms: N7_33  and  C18_36
ROOT
HETATM    1  C7  UNL     1      45.852  34.379  37.362  1.00  0.00     0.191 A
HETATM    2  N2  UNL     1      45.296  35.307  38.211  1.00  0.00    -0.326 N
ATOM      3  H2  UNL     1      45.166  35.173  39.214  1.00  0.00     0.168 HD
HETATM    4  C8  UNL     1      44.952  36.401  37.544  1.00  0.00     0.149 A
HETATM    5  C9  UNL     1      44.379  37.609  37.881  1.00  0.00     0.290 A
HETATM    6  O2  UNL     1      44.060  37.820  39.067  1.00  0.00    -0.265 OA
HETATM    7  N3  UNL     1      44.169  38.545  36.916  1.00  0.00    -0.154 N
ATOM      8  H3  UNL     1      43.744  39.436  37.173  1.00  0.00     0.187 HD
HETATM    9  C10 UNL     1      44.508  38.327  35.631  1.00  0.00     0.680 A
HETATM   10  N5  UNL     1      45.061  37.154  35.309  1.00  0.00    -0.174 N
ATOM     11  H5  UNL     1      45.319  36.981  34.337  1.00  0.00     0.186 HD
HETATM   12  C11 UNL     1      45.291  36.183  36.232  1.00  0.00     0.158 A
HETATM   13  N6  UNL     1      45.840  34.920  36.174  1.00  0.00    -0.306 N
ENDROOT
BRANCH   1  14
HETATM   14  S1  UNL     1      46.460  32.843  37.913  1.00  0.00     0.114 S
HETATM   15  O1  UNL     1      45.685  32.363  39.125  1.00  0.00    -0.237 OA
BRANCH  14  16
HETATM   16  C6  UNL     1      48.100  33.110  38.458  1.00  0.00     0.046 A
HETATM   17  C5  UNL     1      48.779  34.298  38.282  1.00  0.00     0.023 A
HETATM   18  C4  UNL     1      50.064  34.524  38.707  1.00  0.00     0.008 A
HETATM   19  C3  UNL     1      50.733  33.518  39.353  1.00  0.00    -0.058 A
HETATM   20  C21 UNL     1      50.086  32.304  39.553  1.00  0.00     0.008 A
HETATM   21  C20 UNL     1      48.780  32.099  39.111  1.00  0.00     0.023 A
BRANCH  19  22
HETATM   22  C2  UNL     1      52.117  33.683  39.843  1.00  0.00     0.034 C
HETATM   23  C1  UNL     1      53.042  34.127  38.731  1.00  0.00     0.010 C
ENDBRANCH  19  22
ENDBRANCH  14  16
BRANCH  14  24
HETATM   24  N1  UNL     1      46.486  31.734  36.884  1.00  0.00    -0.350 N
ATOM     25  H12 UNL     1      47.315  31.210  36.604  1.00  0.00     0.166 HD
ATOM     26  H11 UNL     1      45.538  31.612  36.530  1.00  0.00     0.166 HD
ENDBRANCH  14  24
ENDBRANCH   1  14
BRANCH  13  27
HETATM   27  C12 UNL     1      46.248  34.371  34.892  1.00  0.00     0.159 C
BRANCH  27  28
HETATM   28  C13 UNL     1      47.794  34.374  34.813  1.00  0.00     0.188 C
BRANCH  28  29
HETATM   29  O3  UNL     1      48.271  33.101  34.762  1.00  0.00    -0.388 OA
BRANCH  29  30
HETATM   30  C14 UNL     1      49.610  32.900  34.616  1.00  0.00     0.198 C
BRANCH  30  31
HETATM   31  C15 UNL     1      50.218  32.041  35.686  1.00  0.00     0.298 C
BRANCH  31  32
HETATM   32  N7  UNL     1      50.476  30.677  35.282  1.00  0.00     0.089 N
BRANCH  32  33
HETATM   33  C16 UNL     1      51.584  30.111  36.047  1.00  0.00     0.268 C
HETATM   34  C17 UNL     1      52.475  31.126  36.669  1.00  0.00     0.037 C
ENDBRANCH  32  33
BRANCH  32  35
HETATM   35  C18 UNL     1      49.290  29.836  35.451  1.00  0.00     0.268 C
HETATM   36  C19 UNL     1      49.192  29.233  36.828  1.00  0.00     0.037 C
ENDBRANCH  32  35
ENDBRANCH  31  32
ENDBRANCH  30  31
ENDBRANCH  29  30
ENDBRANCH  28  29
ENDBRANCH  27  28
ENDBRANCH  13  27
BRANCH   9  37
HETATM   37  N4  UNL     1      44.296  39.260  34.752  1.00  0.00    -0.234 N
ATOM     38  H42 UNL     1      45.057  39.744  34.275  1.00  0.00     0.174 HD
ATOM     39  H41 UNL     1      43.337  39.527  34.531  1.00  0.00     0.174 HD
ENDBRANCH   9  37
TORSDOF 13
ENDMDL