MODEL 5
REMARK VINA RESULT: -6.466953542      2.185      3.353
REMARK  15 active torsions:
REMARK  status: ('A' for Active; 'I' for Inactive)
REMARK    1  A    between atoms: C3_3  and  O1_6
REMARK    2  A    between atoms: O1_6  and  C6_7
REMARK    3  A    between atoms: C6_7  and  C7_8
REMARK    4  A    between atoms: C7_8  and  O2_9
REMARK    5  A    between atoms: O2_9  and  C8_10
REMARK    6  A    between atoms: C10_12  and  O3_13
REMARK    7  A    between atoms: O3_13  and  C11_14
REMARK    8  A    between atoms: C11_14  and  C12_16
REMARK    9  A    between atoms: C12_16  and  N1_17
REMARK   10  A    between atoms: C12_16  and  C13_21
REMARK   11  A    between atoms: C13_21  and  C14_22
REMARK   12  A    between atoms: C14_22  and  O5_23
REMARK   13  A    between atoms: O5_23  and  N2_24
REMARK   14  A    between atoms: C18_31  and  N5_32
REMARK   15  A    between atoms: N5_32  and  C19_34
ROOT
HETATM    1  C1  UNL     1      50.546  31.310  32.122  1.00  0.00     0.015 C
HETATM    2  C2  UNL     1      51.137  31.923  32.971  1.00  0.00    -0.080 C
HETATM    3  C3  UNL     1      51.858  32.677  33.980  1.00  0.00     0.115 C
HETATM    4  C4  UNL     1      53.247  32.975  33.409  1.00  0.00     0.060 C
HETATM    5  C5  UNL     1      52.061  31.768  35.190  1.00  0.00     0.060 C
ENDROOT
BRANCH   3   6
HETATM    6  O1  UNL     1      51.288  33.875  34.308  1.00  0.00    -0.366 OA
BRANCH   6   7
HETATM    7  C6  UNL     1      52.114  34.779  34.919  1.00  0.00     0.196 C
BRANCH   7   8
HETATM    8  C7  UNL     1      51.283  35.601  35.881  1.00  0.00     0.202 C
BRANCH   8   9
HETATM    9  O2  UNL     1      51.698  35.414  37.220  1.00  0.00    -0.347 OA
BRANCH   9  10
HETATM   10  C8  UNL     1      51.338  34.237  37.861  1.00  0.00     0.098 A
HETATM   11  C9  UNL     1      50.073  33.697  37.708  1.00  0.00     0.076 A
HETATM   12  C10 UNL     1      49.746  32.526  38.360  1.00  0.00     0.082 A
HETATM   13  C16 UNL     1      50.696  31.919  39.153  1.00  0.00     0.040 A
HETATM   14  C17 UNL     1      51.966  32.471  39.301  1.00  0.00     0.035 A
HETATM   15  C18 UNL     1      52.296  33.639  38.653  1.00  0.00     0.067 A
BRANCH  12  16
HETATM   16  O3  UNL     1      48.508  31.920  38.260  1.00  0.00    -0.277 OA
BRANCH  16  17
HETATM   17  C11 UNL     1      47.349  32.655  38.408  1.00  0.00     0.294 C
HETATM   18  O4  UNL     1      47.269  33.459  39.368  1.00  0.00    -0.263 OA
BRANCH  17  19
HETATM   19  C12 UNL     1      46.255  32.470  37.439  1.00  0.00     0.284 C
BRANCH  19  20
HETATM   20  N1  UNL     1      45.101  33.219  37.893  1.00  0.00    -0.066 N
ATOM     21  H13 UNL     1      44.770  32.909  38.807  1.00  0.00     0.275 HD
ATOM     22  H12 UNL     1      45.334  34.179  38.147  1.00  0.00     0.275 HD
ATOM     23  H11 UNL     1      44.377  33.168  37.178  1.00  0.00     0.275 HD
ENDBRANCH  19  20
BRANCH  19  24
HETATM   24  C13 UNL     1      46.709  33.131  36.137  1.00  0.00     0.072 C
BRANCH  24  25
HETATM   25  C14 UNL     1      45.728  34.238  35.781  1.00  0.00     0.203 C
BRANCH  25  26
HETATM   26  O5  UNL     1      46.233  35.457  36.282  1.00  0.00    -0.278 OA
BRANCH  26  27
HETATM   27  N2  UNL     1      45.379  36.500  36.487  1.00  0.00    -0.241 N
HETATM   28  C15 UNL     1      44.974  36.892  37.648  1.00  0.00     0.221 C
HETATM   29  N3  UNL     1      44.081  37.998  37.701  1.00  0.00    -0.065 NA
HETATM   30  N4  UNL     1      45.356  36.300  38.869  1.00  0.00    -0.065 NA
ATOM     31  H2  UNL     1      45.038  37.005  35.669  1.00  0.00     0.196 HD
ENDBRANCH  26  27
ENDBRANCH  25  26
ENDBRANCH  24  25
ENDBRANCH  19  24
ENDBRANCH  17  19
ENDBRANCH  16  17
ENDBRANCH  12  16
BRANCH  15  32
HETATM   32  N5  UNL     1      53.584  34.228  38.782  1.00  0.00    -0.340 N
ATOM     33  H5  UNL     1      53.878  34.577  39.695  1.00  0.00     0.167 HD
BRANCH  32  34
HETATM   34  C19 UNL     1      54.396  34.335  37.780  1.00  0.00     0.105 A
HETATM   35  C20 UNL     1      54.821  33.185  37.166  1.00  0.00     0.048 A
HETATM   36  C21 UNL     1      55.678  33.213  36.102  1.00  0.00     0.005 A
HETATM   37  C22 UNL     1      56.118  34.441  35.646  1.00  0.00     0.017 A
HETATM   38  C23 UNL     1      55.672  35.577  36.287  1.00  0.00     0.089 A
HETATM   39  N6  UNL     1      54.832  35.515  37.327  1.00  0.00    -0.352 N
ATOM     40  H6  UNL     1      54.521  36.376  37.778  1.00  0.00     0.166 HD
ENDBRANCH  32  34
ENDBRANCH  15  32
ENDBRANCH   9  10
ENDBRANCH   8   9
ENDBRANCH   7   8
ENDBRANCH   6   7
ENDBRANCH   3   6
TORSDOF 15
ENDMDL