MODEL 4
REMARK VINA RESULT: -6.108352910      2.341      4.195
REMARK  18 active torsions:
REMARK  status: ('A' for Active; 'I' for Inactive)
REMARK    1  A    between atoms: C2_2  and  C4_4
REMARK    2  A    between atoms: C4_4  and  N1_5
REMARK    3  A    between atoms: N1_5  and  S1_7
REMARK    4  A    between atoms: S1_7  and  N2_10
REMARK    5  A    between atoms: N2_10  and  C5_12
REMARK    6  A    between atoms: C5_12  and  C7_14
REMARK       I    between atoms: C7_14  and  N3_16
REMARK    7  A    between atoms: N3_16  and  N4_18
REMARK    8  A    between atoms: N4_18  and  C9_20
REMARK    9  A    between atoms: C9_20  and  C10_21
REMARK   10  A    between atoms: C10_21  and  O4_22
REMARK   11  A    between atoms: C10_21  and  C11_24
REMARK   12  A    between atoms: C11_24  and  C12_25
REMARK   13  A    between atoms: C11_24  and  N5_32
REMARK   14  A    between atoms: C12_25  and  C13_26
REMARK       I    between atoms: N5_32  and  C19_34
REMARK   15  A    between atoms: C19_34  and  C20_36
REMARK   16  A    between atoms: C20_36  and  C21_37
REMARK   17  A    between atoms: C20_36  and  N6_44
REMARK       I    between atoms: N6_44  and  C28_46
REMARK   18  A    between atoms: C28_46  and  C29_48
ROOT
HETATM    1  C11 UNL     1      34.867  28.112  21.976  1.00  0.00     0.143 C
ENDROOT
BRANCH   1   2
HETATM    2  C10 UNL     1      36.133  28.464  22.712  1.00  0.00     0.083 C
BRANCH   2   3
HETATM    3  C9  UNL     1      37.435  27.971  22.241  1.00  0.00     0.143 C
BRANCH   3   4
HETATM    4  N4  UNL     1      38.228  28.579  21.298  1.00  0.00    -0.303 N
HETATM    5  C8  UNL     1      39.621  28.765  21.506  1.00  0.00     0.177 C
BRANCH   4   6
HETATM    6  N3  UNL     1      38.026  28.369  19.945  1.00  0.00    -0.267 N
HETATM    7  C7  UNL     1      37.408  29.306  19.092  1.00  0.00     0.259 C
HETATM    8  O3  UNL     1      36.984  30.390  19.484  1.00  0.00    -0.269 OA
ATOM      9  H3  UNL     1      38.344  27.487  19.542  1.00  0.00     0.190 HD
BRANCH   7  10
HETATM   10  C5  UNL     1      37.240  29.002  17.618  1.00  0.00     0.184 C
HETATM   11  C6  UNL     1      37.799  27.659  17.246  1.00  0.00     0.043 C
BRANCH  10  12
HETATM   12  N2  UNL     1      35.869  29.085  17.232  1.00  0.00    -0.289 N
ATOM     13  H2  UNL     1      35.153  28.470  17.620  1.00  0.00     0.174 HD
BRANCH  12  14
HETATM   14  S1  UNL     1      35.517  30.280  16.079  1.00  0.00     0.315 S
HETATM   15  O1  UNL     1      36.234  31.553  16.505  1.00  0.00    -0.183 OA
HETATM   16  O2  UNL     1      36.077  29.912  14.711  1.00  0.00    -0.183 OA
BRANCH  14  17
HETATM   17  N1  UNL     1      33.870  30.678  15.907  1.00  0.00    -0.302 N
ATOM     18  H1  UNL     1      33.105  30.107  16.264  1.00  0.00     0.173 HD
BRANCH  17  19
HETATM   19  C4  UNL     1      33.685  31.933  15.190  1.00  0.00     0.137 C
BRANCH  19  20
HETATM   20  C2  UNL     1      32.410  32.618  15.589  1.00  0.00    -0.004 C
HETATM   21  C1  UNL     1      31.207  31.726  15.480  1.00  0.00     0.011 C
HETATM   22  C3  UNL     1      32.197  33.824  14.671  1.00  0.00     0.011 C
ENDBRANCH  19  20
ENDBRANCH  17  19
ENDBRANCH  14  17
ENDBRANCH  12  14
ENDBRANCH  10  12
ENDBRANCH   7  10
ENDBRANCH   4   6
ENDBRANCH   3   4
ENDBRANCH   2   3
BRANCH   2  23
HETATM   23  O4  UNL     1      36.166  29.718  23.290  1.00  0.00    -0.361 OA
ATOM     24  H4  UNL     1      36.828  29.826  23.964  1.00  0.00     0.217 HD
ENDBRANCH   2  23
ENDBRANCH   1   2
BRANCH   1  25
HETATM   25  C12 UNL     1      34.229  29.324  21.485  1.00  0.00     0.036 C
BRANCH  25  26
HETATM   26  C13 UNL     1      33.599  29.376  20.145  1.00  0.00    -0.012 C
HETATM   27  C14 UNL     1      32.169  28.969  20.070  1.00  0.00     0.005 C
HETATM   28  C15 UNL     1      31.228  29.914  20.791  1.00  0.00     0.000 C
HETATM   29  C16 UNL     1      31.198  31.219  20.022  1.00  0.00     0.000 C
HETATM   30  C17 UNL     1      32.346  31.284  19.069  1.00  0.00     0.000 C
HETATM   31  C18 UNL     1      33.658  30.812  19.617  1.00  0.00     0.005 C
ENDBRANCH  25  26
ENDBRANCH   1  25
BRANCH   1  32
HETATM   32  N5  UNL     1      35.156  27.011  21.138  1.00  0.00    -0.348 N
HETATM   33  C19 UNL     1      34.457  25.761  21.164  1.00  0.00     0.244 C
HETATM   34  O5  UNL     1      33.501  25.713  22.014  1.00  0.00    -0.271 OA
ATOM     35  H5  UNL     1      35.917  27.112  20.468  1.00  0.00     0.163 HD
BRANCH  33  36
HETATM   36  C20 UNL     1      34.770  24.598  20.324  1.00  0.00     0.200 C
BRANCH  36  37
HETATM   37  C21 UNL     1      35.673  23.578  20.806  1.00  0.00     0.010 C
HETATM   38  C22 UNL     1      35.615  22.150  20.590  1.00  0.00    -0.081 C
HETATM   39  C23 UNL     1      35.670  21.546  19.239  1.00  0.00     0.034 C
HETATM   40  C27 UNL     1      34.599  21.412  21.476  1.00  0.00     0.034 C
HETATM   41  C24 UNL     1      34.425  20.742  18.889  1.00  0.00     0.004 C
HETATM   42  C25 UNL     1      34.143  19.651  19.873  1.00  0.00     0.001 C
HETATM   43  C26 UNL     1      34.858  19.927  21.180  1.00  0.00     0.004 C
ENDBRANCH  36  37
BRANCH  36  44
HETATM   44  N6  UNL     1      35.054  25.072  18.974  1.00  0.00    -0.339 N
HETATM   45  C28 UNL     1      34.309  24.719  17.831  1.00  0.00     0.276 C
HETATM   46  O6  UNL     1      33.330  23.952  17.973  1.00  0.00    -0.265 OA
ATOM     47  H6  UNL     1      35.847  25.702  18.849  1.00  0.00     0.164 HD
BRANCH  45  48
HETATM   48  C29 UNL     1      34.640  25.211  16.504  1.00  0.00     0.142 A
HETATM   49  C30 UNL     1      34.895  24.453  15.386  1.00  0.00     0.045 A
HETATM   50  C31 UNL     1      35.165  25.317  14.348  1.00  0.00     0.027 A
HETATM   51  C32 UNL     1      35.059  26.577  14.893  1.00  0.00     0.143 A
HETATM   52  O7  UNL     1      34.753  26.477  16.142  1.00  0.00    -0.317 OA
ENDBRANCH  45  48
ENDBRANCH  36  44
ENDBRANCH  33  36
ENDBRANCH   1  32
TORSDOF 18
ENDMDL