MODEL 2
REMARK VINA RESULT: -5.598045623      1.943      5.831
REMARK  21 active torsions:
REMARK  status: ('A' for Active; 'I' for Inactive)
REMARK       I    between atoms: N1_2  and  C2_4
REMARK    1  A    between atoms: C2_4  and  C3_6
REMARK    2  A    between atoms: C3_6  and  C4_7
REMARK    3  A    between atoms: C3_6  and  N2_14
REMARK    4  A    between atoms: C4_7  and  C5_8
REMARK       I    between atoms: N2_14  and  C11_16
REMARK    5  A    between atoms: C11_16  and  C12_18
REMARK    6  A    between atoms: C12_18  and  N3_20
REMARK       I    between atoms: N3_20  and  C14_22
REMARK    7  A    between atoms: C14_22  and  C15_24
REMARK    8  A    between atoms: C15_24  and  C16_26
REMARK    9  A    between atoms: C16_26  and  C17_27
REMARK   10  A    between atoms: C17_27  and  O5_28
REMARK   11  A    between atoms: C17_27  and  C18_30
REMARK   12  A    between atoms: C18_30  and  C19_31
REMARK   13  A    between atoms: C18_30  and  N4_35
REMARK   14  A    between atoms: C19_31  and  C20_32
REMARK   15  A    between atoms: N4_35  and  C23_37
REMARK   16  A    between atoms: C23_37  and  C24_38
REMARK   17  A    between atoms: C23_37  and  C26_41
REMARK   18  A    between atoms: C26_41  and  C27_42
REMARK   19  A    between atoms: C26_41  and  N5_46
REMARK       I    between atoms: N5_46  and  C31_48
REMARK   20  A    between atoms: C31_48  and  O8_50
REMARK   21  A    between atoms: O8_50  and  C32_51
ROOT
HETATM    1  C17 UNL     1      36.923  23.090  18.998  1.00  0.00     0.171 C
ENDROOT
BRANCH   1   2
HETATM    2  C16 UNL     1      36.572  24.369  19.758  1.00  0.00     0.126 C
BRANCH   2   3
HETATM    3  C15 UNL     1      37.137  24.396  21.121  1.00  0.00     0.219 C
HETATM    4  O4  UNL     1      37.933  23.525  21.514  1.00  0.00    -0.287 OA
BRANCH   3   5
HETATM    5  C14 UNL     1      36.748  25.459  21.999  1.00  0.00     0.288 C
HETATM    6  N3  UNL     1      36.927  26.818  21.625  1.00  0.00    -0.342 N
ATOM      7  H3  UNL     1      37.338  27.049  20.721  1.00  0.00     0.163 HD
HETATM    8  O3  UNL     1      36.237  25.219  23.117  1.00  0.00    -0.264 OA
BRANCH   6   9
HETATM    9  C12 UNL     1      36.516  27.891  22.545  1.00  0.00     0.173 C
HETATM   10  C13 UNL     1      37.795  28.439  23.152  1.00  0.00     0.042 C
BRANCH   9  11
HETATM   11  C11 UNL     1      35.886  28.943  21.664  1.00  0.00     0.240 C
HETATM   12  N2  UNL     1      35.950  28.780  20.267  1.00  0.00    -0.346 N
ATOM     13  H2  UNL     1      36.412  27.964  19.868  1.00  0.00     0.163 HD
HETATM   14  O2  UNL     1      35.318  29.948  22.148  1.00  0.00    -0.271 OA
BRANCH  12  15
HETATM   15  C3  UNL     1      35.355  29.777  19.399  1.00  0.00     0.177 C
BRANCH  15  16
HETATM   16  C2  UNL     1      36.297  29.869  18.211  1.00  0.00     0.240 C
HETATM   17  N1  UNL     1      35.915  30.717  17.151  1.00  0.00    -0.364 N
HETATM   18  C1  UNL     1      36.754  30.861  15.984  1.00  0.00     0.149 C
ATOM     19  H1  UNL     1      35.038  31.234  17.208  1.00  0.00     0.161 HD
HETATM   20  O1  UNL     1      37.356  29.202  18.218  1.00  0.00    -0.271 OA
ENDBRANCH  15  16
BRANCH  15  21
HETATM   21  C4  UNL     1      34.020  29.278  18.959  1.00  0.00     0.039 C
BRANCH  21  22
HETATM   22  C5  UNL     1      32.928  30.092  19.575  1.00  0.00    -0.012 C
HETATM   23  C6  UNL     1      31.612  29.328  19.457  1.00  0.00     0.005 C
HETATM   24  C7  UNL     1      30.503  30.126  20.155  1.00  0.00     0.000 C
HETATM   25  C8  UNL     1      30.396  31.468  19.503  1.00  0.00     0.000 C
HETATM   26  C9  UNL     1      31.386  31.718  18.411  1.00  0.00     0.000 C
HETATM   27  C10 UNL     1      32.812  31.429  18.863  1.00  0.00     0.005 C
ENDBRANCH  21  22
ENDBRANCH  15  21
ENDBRANCH  12  15
ENDBRANCH   9  11
ENDBRANCH   6   9
ENDBRANCH   3   5
ENDBRANCH   2   3
ENDBRANCH   1   2
BRANCH   1  28
HETATM   28  O5  UNL     1      38.070  23.362  18.268  1.00  0.00    -0.389 OA
ATOM     29  H5  UNL     1      37.888  23.110  17.370  1.00  0.00     0.210 HD
ENDBRANCH   1  28
BRANCH   1  30
HETATM   30  C18 UNL     1      35.770  22.600  18.189  1.00  0.00     0.016 C
BRANCH  30  31
HETATM   31  C19 UNL     1      34.662  22.083  19.154  1.00  0.00     0.059 C
BRANCH  31  32
HETATM   32  C20 UNL     1      34.976  21.009  20.064  1.00  0.00    -0.017 C
HETATM   33  C21 UNL     1      34.906  21.198  21.532  1.00  0.00     0.010 C
HETATM   34  C22 UNL     1      34.149  19.739  19.765  1.00  0.00     0.010 C
ENDBRANCH  31  32
ENDBRANCH  30  31
BRANCH  30  35
HETATM   35  N4  UNL     1      35.228  23.167  17.097  1.00  0.00    -0.356 N
ATOM     36  H4  UNL     1      35.800  23.023  16.265  1.00  0.00     0.166 HD
BRANCH  35  37
HETATM   37  C23 UNL     1      34.049  23.920  16.815  1.00  0.00     0.105 C
BRANCH  37  38
HETATM   38  C24 UNL     1      33.472  23.614  15.535  1.00  0.00     0.174 C
HETATM   39  C25 UNL     1      33.945  22.631  14.516  1.00  0.00     0.098 C
HETATM   40  O6  UNL     1      32.452  24.174  15.165  1.00  0.00    -0.291 OA
ENDBRANCH  37  38
BRANCH  37  41
HETATM   41  C26 UNL     1      34.233  25.290  17.368  1.00  0.00     0.067 C
BRANCH  41  42
HETATM   42  C27 UNL     1      33.579  25.910  18.464  1.00  0.00     0.034 C
HETATM   43  C28 UNL     1      32.621  25.720  19.482  1.00  0.00    -0.085 C
HETATM   44  C29 UNL     1      31.195  25.352  19.271  1.00  0.00     0.043 C
HETATM   45  C30 UNL     1      33.070  25.175  20.825  1.00  0.00     0.043 C
ENDBRANCH  41  42
BRANCH  41  46
HETATM   46  N5  UNL     1      34.447  26.243  16.235  1.00  0.00    -0.300 N
HETATM   47  C31 UNL     1      35.692  26.791  15.899  1.00  0.00     0.366 C
HETATM   48  O7  UNL     1      36.744  26.491  16.563  1.00  0.00    -0.238 OA
ATOM     49  H5  UNL     1      33.638  26.509  15.673  1.00  0.00     0.171 HD
BRANCH  47  50
HETATM   50  O8  UNL     1      35.892  27.672  14.868  1.00  0.00    -0.294 OA
BRANCH  50  51
HETATM   51  C32 UNL     1      36.322  27.426  13.586  1.00  0.00     0.061 C
HETATM   52  C33 UNL     1      35.640  28.304  12.549  1.00  0.00     0.046 C
HETATM   53  C34 UNL     1      37.815  27.776  13.519  1.00  0.00     0.046 C
HETATM   54  C35 UNL     1      36.232  26.005  13.090  1.00  0.00     0.046 C
ENDBRANCH  50  51
ENDBRANCH  47  50
ENDBRANCH  41  46
ENDBRANCH  37  41
ENDBRANCH  35  37
ENDBRANCH  30  35
ENDBRANCH   1  30
TORSDOF 21
ENDMDL