MODEL 4
REMARK VINA RESULT: -7.154491644      1.628      2.825
REMARK  18 active torsions:
REMARK  status: ('A' for Active; 'I' for Inactive)
REMARK    1  A    between atoms: C2_2  and  C3_3
REMARK    2  A    between atoms: C10_10  and  C11_11
REMARK    3  A    between atoms: C11_11  and  C12_12
REMARK    4  A    between atoms: C12_12  and  C13_13
REMARK    5  A    between atoms: C15_15  and  N1_16
REMARK       I    between atoms: N1_16  and  C16_18
REMARK       I    between atoms: C16_18  and  N2_20
REMARK    6  A    between atoms: N2_20  and  C17_22
REMARK    7  A    between atoms: C17_22  and  C18_23
REMARK    8  A    between atoms: C17_22  and  C22_27
REMARK    9  A    between atoms: C18_23  and  C19_24
REMARK   10  A    between atoms: C22_27  and  C23_29
REMARK       I    between atoms: C23_29  and  N3_31
REMARK   11  A    between atoms: N3_31  and  C24_33
REMARK   12  A    between atoms: C24_33  and  C25_34
REMARK   13  A    between atoms: C24_33  and  C29_38
REMARK   14  A    between atoms: C25_34  and  C26_35
REMARK   15  A    between atoms: C30_41  and  C31_42
REMARK       I    between atoms: C31_42  and  N5_44
REMARK   16  A    between atoms: N5_44  and  C32_46
REMARK   17  A    between atoms: C32_46  and  C33_47
REMARK   18  A    between atoms: C33_47  and  O6_48
ROOT
HETATM    1  C3  UNL     1      35.619  25.301  20.702  1.00  0.00    -0.011 C
HETATM    2  C4  UNL     1      34.152  24.933  20.968  1.00  0.00     0.021 C
HETATM    3  C5  UNL     1      36.344  25.550  21.998  1.00  0.00     0.015 C
HETATM    4  C6  UNL     1      35.530  26.624  22.660  1.00  0.00     0.010 C
HETATM    5  C7  UNL     1      35.815  27.963  21.924  1.00  0.00    -0.043 C
HETATM    6  C8  UNL     1      34.871  28.931  22.612  1.00  0.00     0.015 C
HETATM    7  C9  UNL     1      37.208  28.316  22.408  1.00  0.00     0.015 C
HETATM    8  C10 UNL     1      35.728  27.848  20.474  1.00  0.00     0.012 C
HETATM    9  C35 UNL     1      35.700  26.486  19.843  1.00  0.00     0.109 C
HETATM   10  C36 UNL     1      36.898  26.317  18.978  1.00  0.00     0.065 C
HETATM   11  N6  UNL     1      37.845  26.206  18.303  1.00  0.00    -0.197 NA
ENDROOT
BRANCH   1  12
HETATM   12  C2  UNL     1      36.227  24.089  20.058  1.00  0.00    -0.026 C
HETATM   13  C1  UNL     1      36.623  23.052  20.816  1.00  0.00     0.008 C
ENDBRANCH   1  12
BRANCH   8  14
HETATM   14  C11 UNL     1      34.725  28.666  19.724  1.00  0.00     0.007 C
BRANCH  14  15
HETATM   15  C12 UNL     1      33.928  28.081  18.631  1.00  0.00     0.012 C
BRANCH  15  16
HETATM   16  C13 UNL     1      32.504  27.823  19.031  1.00  0.00    -0.009 A
HETATM   17  C14 UNL     1      32.190  28.071  20.530  1.00  0.00     0.018 C
HETATM   18  C15 UNL     1      31.535  27.014  18.309  1.00  0.00     0.109 A
HETATM   19  C30 UNL     1      31.426  28.479  18.108  1.00  0.00     0.111 A
BRANCH  18  20
HETATM   20  N1  UNL     1      30.425  26.395  19.051  1.00  0.00    -0.337 N
HETATM   21  C16 UNL     1      29.223  25.984  18.455  1.00  0.00     0.317 C
HETATM   22  O1  UNL     1      29.063  26.135  17.222  1.00  0.00    -0.247 OA
HETATM   23  N2  UNL     1      28.163  25.394  19.192  1.00  0.00    -0.331 N
ATOM     24  H2  UNL     1      28.265  25.281  20.200  1.00  0.00     0.165 HD
ATOM     25  H1  UNL     1      30.536  26.258  20.056  1.00  0.00     0.164 HD
BRANCH  23  26
HETATM   26  C17 UNL     1      26.933  24.944  18.549  1.00  0.00     0.166 C
BRANCH  26  27
HETATM   27  C18 UNL     1      26.712  23.484  18.578  1.00  0.00     0.037 C
BRANCH  27  28
HETATM   28  C19 UNL     1      27.951  22.669  18.159  1.00  0.00    -0.020 C
HETATM   29  C20 UNL     1      27.985  21.321  18.795  1.00  0.00     0.009 C
HETATM   30  C21 UNL     1      28.200  22.700  16.700  1.00  0.00     0.009 C
ENDBRANCH  27  28
ENDBRANCH  26  27
BRANCH  26  31
HETATM   31  C22 UNL     1      25.797  25.793  18.958  1.00  0.00     0.238 C
HETATM   32  O2  UNL     1      24.931  25.985  18.036  1.00  0.00    -0.285 OA
BRANCH  31  33
HETATM   33  C23 UNL     1      25.569  26.406  20.245  1.00  0.00     0.290 C
HETATM   34  O3  UNL     1      25.749  25.805  21.303  1.00  0.00    -0.264 OA
HETATM   35  N3  UNL     1      25.107  27.777  20.324  1.00  0.00    -0.342 N
ATOM     36  H3  UNL     1      24.948  28.289  19.456  1.00  0.00     0.163 HD
BRANCH  35  37
HETATM   37  C24 UNL     1      24.864  28.447  21.572  1.00  0.00     0.174 C
BRANCH  37  38
HETATM   38  C25 UNL     1      25.227  29.891  21.555  1.00  0.00     0.038 C
BRANCH  38  39
HETATM   39  C26 UNL     1      26.192  30.319  20.506  1.00  0.00    -0.020 C
HETATM   40  C27 UNL     1      27.361  31.007  21.239  1.00  0.00     0.009 C
HETATM   41  C28 UNL     1      25.652  31.400  19.576  1.00  0.00     0.009 C
ENDBRANCH  38  39
ENDBRANCH  37  38
BRANCH  37  42
HETATM   42  C29 UNL     1      23.541  28.137  22.138  1.00  0.00     0.254 C
HETATM   43  N4  UNL     1      23.448  27.399  23.340  1.00  0.00    -0.060 NA
HETATM   44  O4  UNL     1      22.492  28.512  21.572  1.00  0.00    -0.275 OA
ENDBRANCH  37  42
ENDBRANCH  35  37
ENDBRANCH  31  33
ENDBRANCH  26  31
ENDBRANCH  23  26
ENDBRANCH  18  20
BRANCH  19  45
HETATM   45  C31 UNL     1      31.836  29.078  16.825  1.00  0.00     0.224 C
HETATM   46  O5  UNL     1      31.909  28.428  15.765  1.00  0.00    -0.273 OA
HETATM   47  N5  UNL     1      32.163  30.462  16.794  1.00  0.00    -0.359 N
ATOM     48  H5  UNL     1      32.097  30.973  17.674  1.00  0.00     0.162 HD
BRANCH  47  49
HETATM   49  C32 UNL     1      32.576  31.202  15.640  1.00  0.00     0.148 C
BRANCH  49  50
HETATM   50  C33 UNL     1      34.073  31.349  15.577  1.00  0.00     0.186 C
BRANCH  50  51
HETATM   51  O6  UNL     1      34.685  31.011  16.765  1.00  0.00    -0.394 OA
HETATM   52  C34 UNL     1      35.980  30.595  16.628  1.00  0.00     0.201 C
ENDBRANCH  50  51
ENDBRANCH  49  50
ENDBRANCH  47  49
ENDBRANCH  19  45
ENDBRANCH  15  16
ENDBRANCH  14  15
ENDBRANCH   8  14
TORSDOF 18
ENDMDL