MODEL 2
REMARK VINA RESULT: -7.359857250      1.598      3.480
REMARK  21 active torsions:
REMARK  status: ('A' for Active; 'I' for Inactive)
REMARK    1  A    between atoms: C2_2  and  C3_3
REMARK    2  A    between atoms: C3_3  and  C4_4
REMARK    3  A    between atoms: C4_4  and  N1_7
REMARK    4  A    between atoms: N1_7  and  C7_8
REMARK    5  A    between atoms: N1_7  and  C10_11
REMARK    6  A    between atoms: C10_11  and  C11_12
REMARK    7  A    between atoms: C10_11  and  C18_19
REMARK    8  A    between atoms: C11_12  and  C12_13
REMARK       I    between atoms: C18_19  and  N2_21
REMARK    9  A    between atoms: N2_21  and  C19_23
REMARK   10  A    between atoms: C19_23  and  C20_24
REMARK   11  A    between atoms: C19_23  and  C21_27
REMARK   12  A    between atoms: C20_24  and  O2_25
REMARK       I    between atoms: C21_27  and  N3_29
REMARK   13  A    between atoms: N3_29  and  C22_31
REMARK   14  A    between atoms: C22_31  and  C23_32
REMARK   15  A    between atoms: C22_31  and  C33_51
REMARK       I    between atoms: C23_32  and  N4_34
REMARK   16  A    between atoms: N4_34  and  N5_36
REMARK       I    between atoms: N5_36  and  C24_38
REMARK   17  A    between atoms: C24_38  and  C25_40
REMARK   18  A    between atoms: C27_42  and  O6_43
REMARK   19  A    between atoms: N6_46  and  C29_47
REMARK   20  A    between atoms: C29_47  and  C30_48
REMARK   21  A    between atoms: C33_51  and  C35_53
ROOT
HETATM    1  C21 UNL     1      29.570  24.607  17.950  1.00  0.00     0.243 C
HETATM    2  O3  UNL     1      29.247  24.960  16.784  1.00  0.00    -0.271 OA
HETATM    3  N3  UNL     1      28.536  24.108  18.776  1.00  0.00    -0.346 N
ATOM      4  H3  UNL     1      28.765  23.827  19.729  1.00  0.00     0.163 HD
ENDROOT
BRANCH   1   5
HETATM    5  C19 UNL     1      30.953  24.703  18.447  1.00  0.00     0.200 C
BRANCH   5   6
HETATM    6  N2  UNL     1      31.353  26.146  18.426  1.00  0.00    -0.340 N
HETATM    7  C18 UNL     1      32.219  26.637  19.383  1.00  0.00     0.268 C
HETATM    8  O1  UNL     1      32.609  25.734  20.217  1.00  0.00    -0.266 OA
ATOM      9  H2  UNL     1      30.986  26.767  17.705  1.00  0.00     0.163 HD
BRANCH   7  10
HETATM   10  C10 UNL     1      32.785  28.020  19.624  1.00  0.00     0.100 C
BRANCH  10  11
HETATM   11  N1  UNL     1      32.354  29.044  18.795  1.00  0.00    -0.342 N
BRANCH  11  12
HETATM   12  C4  UNL     1      33.099  29.546  17.691  1.00  0.00     0.030 C
HETATM   13  C5  UNL     1      32.957  31.088  17.595  1.00  0.00     0.038 C
HETATM   14  C6  UNL     1      32.551  29.130  16.356  1.00  0.00     0.038 C
BRANCH  12  15
HETATM   15  C3  UNL     1      34.544  29.184  17.749  1.00  0.00     0.030 C
BRANCH  15  16
HETATM   16  C2  UNL     1      35.546  30.079  18.350  1.00  0.00    -0.002 C
HETATM   17  C1  UNL     1      36.844  29.531  18.827  1.00  0.00     0.005 C
ENDBRANCH  15  16
ENDBRANCH  12  15
ENDBRANCH  11  12
BRANCH  11  18
HETATM   18  C7  UNL     1      31.160  29.697  19.150  1.00  0.00    -0.017 C
HETATM   19  C8  UNL     1      29.849  29.242  18.568  1.00  0.00     0.063 C
HETATM   20  C9  UNL     1      30.944  30.211  20.530  1.00  0.00     0.063 C
ENDBRANCH  11  18
ENDBRANCH  10  11
BRANCH  10  21
HETATM   21  C11 UNL     1      33.194  28.107  21.026  1.00  0.00     0.013 C
BRANCH  21  22
HETATM   22  C12 UNL     1      34.583  28.119  21.523  1.00  0.00     0.010 C
HETATM   23  C13 UNL     1      34.691  27.095  22.700  1.00  0.00     0.008 C
HETATM   24  C14 UNL     1      36.126  26.665  22.743  1.00  0.00     0.001 C
HETATM   25  C15 UNL     1      37.039  27.888  22.592  1.00  0.00     0.000 C
HETATM   26  C16 UNL     1      36.235  29.053  23.107  1.00  0.00     0.001 C
HETATM   27  C17 UNL     1      35.170  29.375  22.045  1.00  0.00     0.008 C
ENDBRANCH  21  22
ENDBRANCH  10  21
ENDBRANCH   7  10
ENDBRANCH   5   6
BRANCH   5  28
HETATM   28  C20 UNL     1      31.827  23.946  17.460  1.00  0.00     0.199 C
BRANCH  28  29
HETATM   29  O2  UNL     1      31.165  22.795  17.041  1.00  0.00    -0.398 OA
ATOM     30  H2  UNL     1      31.472  22.051  17.545  1.00  0.00     0.209 HD
ENDBRANCH  28  29
ENDBRANCH   5  28
ENDBRANCH   1   5
BRANCH   3  31
HETATM   31  C22 UNL     1      27.147  23.976  18.321  1.00  0.00     0.182 C
BRANCH  31  32
HETATM   32  C23 UNL     1      26.472  25.232  18.534  1.00  0.00     0.259 C
HETATM   33  O4  UNL     1      26.077  25.928  17.539  1.00  0.00    -0.269 OA
HETATM   34  N4  UNL     1      26.204  25.760  19.812  1.00  0.00    -0.266 N
ATOM     35  H4  UNL     1      26.507  25.222  20.625  1.00  0.00     0.190 HD
BRANCH  34  36
HETATM   36  N5  UNL     1      25.547  26.976  20.038  1.00  0.00    -0.266 N
HETATM   37  C24 UNL     1      24.995  27.305  21.286  1.00  0.00     0.269 C
HETATM   38  O5  UNL     1      25.046  26.547  22.300  1.00  0.00    -0.269 OA
ATOM     39  H5  UNL     1      25.467  27.644  19.270  1.00  0.00     0.190 HD
BRANCH  37  40
HETATM   40  C25 UNL     1      24.302  28.610  21.459  1.00  0.00     0.318 A
HETATM   41  C26 UNL     1      23.136  28.436  22.414  1.00  0.00     0.079 A
HETATM   42  C27 UNL     1      23.237  29.497  23.456  1.00  0.00     0.149 A
HETATM   43  C28 UNL     1      24.529  30.182  23.178  1.00  0.00     0.305 A
HETATM   44  N6  UNL     1      25.129  29.643  22.004  1.00  0.00     0.105 N
BRANCH  42  45
HETATM   45  O6  UNL     1      23.265  28.881  24.728  1.00  0.00    -0.394 OA
ATOM     46  H6  UNL     1      22.865  29.468  25.359  1.00  0.00     0.210 HD
ENDBRANCH  42  45
BRANCH  44  47
HETATM   47  C29 UNL     1      25.377  30.619  20.975  1.00  0.00     0.277 C
BRANCH  47  48
HETATM   48  C30 UNL     1      26.599  30.336  20.136  1.00  0.00     0.006 C
HETATM   49  C31 UNL     1      26.256  30.283  18.654  1.00  0.00     0.011 C
HETATM   50  C32 UNL     1      27.539  31.529  20.303  1.00  0.00     0.011 C
ENDBRANCH  47  48
ENDBRANCH  44  47
ENDBRANCH  37  40
ENDBRANCH  34  36
ENDBRANCH  31  32
BRANCH  31  51
HETATM   51  C33 UNL     1      26.542  22.753  18.955  1.00  0.00     0.013 C
HETATM   52  C34 UNL     1      25.224  22.319  18.437  1.00  0.00     0.012 C
BRANCH  51  53
HETATM   53  C35 UNL     1      27.559  21.606  18.934  1.00  0.00     0.002 C
HETATM   54  C36 UNL     1      26.924  20.347  19.465  1.00  0.00     0.005 C
ENDBRANCH  51  53
ENDBRANCH  31  51
ENDBRANCH   3  31
TORSDOF 21
ENDMDL