MODEL 5
REMARK VINA RESULT: -6.139657159      1.893      3.095
REMARK  21 active torsions:
REMARK  status: ('A' for Active; 'I' for Inactive)
REMARK    1  A    between atoms: C2_2  and  C4_4
REMARK    2  A    between atoms: C4_4  and  C5_5
REMARK    3  A    between atoms: C5_5  and  N1_6
REMARK    4  A    between atoms: C5_5  and  C11_15
REMARK       I    between atoms: N1_6  and  C6_8
REMARK    5  A    between atoms: C6_8  and  O2_10
REMARK    6  A    between atoms: O2_10  and  C7_11
REMARK    7  A    between atoms: C11_15  and  O3_16
REMARK    8  A    between atoms: C11_15  and  N2_18
REMARK       I    between atoms: N2_18  and  C12_20
REMARK    9  A    between atoms: C12_20  and  C13_22
REMARK   10  A    between atoms: C13_22  and  N3_23
REMARK   11  A    between atoms: C13_22  and  C32_52
REMARK   12  A    between atoms: C14_25  and  C16_27
REMARK   13  A    between atoms: C16_27  and  C17_28
REMARK   14  A    between atoms: C16_27  and  N4_31
REMARK   15  A    between atoms: C17_28  and  O5_29
REMARK       I    between atoms: N4_31  and  C18_33
REMARK   16  A    between atoms: C18_33  and  C19_35
REMARK   17  A    between atoms: C19_35  and  C22_38
REMARK   18  A    between atoms: C22_38  and  C23_39
REMARK   19  A    between atoms: C22_38  and  N5_41
REMARK       I    between atoms: N5_41  and  C24_43
REMARK   20  A    between atoms: C24_43  and  C25_45
REMARK   21  A    between atoms: C25_45  and  C26_46
ROOT
HETATM    1  N3  UNL     1      33.966  23.583  19.020  1.00  0.00    -0.360 N
ATOM      2  H3  UNL     1      33.305  23.625  19.796  1.00  0.00     0.165 HD
HETATM    3  C14 UNL     1      35.089  22.944  19.381  1.00  0.00     0.008 C
HETATM    4  C15 UNL     1      35.675  21.735  18.756  1.00  0.00     0.065 C
ENDROOT
BRANCH   1   5
HETATM    5  C13 UNL     1      33.452  24.194  17.907  1.00  0.00     0.081 C
BRANCH   5   6
HETATM    6  C12 UNL     1      34.432  24.786  16.928  1.00  0.00     0.270 C
HETATM    7  N2  UNL     1      34.882  26.095  17.156  1.00  0.00    -0.304 N
ATOM      8  H2  UNL     1      34.491  26.543  17.985  1.00  0.00     0.171 HD
HETATM    9  O4  UNL     1      34.801  24.124  15.978  1.00  0.00    -0.266 OA
BRANCH   7  10
HETATM   10  C11 UNL     1      35.774  26.884  16.433  1.00  0.00     0.141 C
BRANCH  10  11
HETATM   11  C5  UNL     1      35.595  27.702  15.231  1.00  0.00     0.162 C
BRANCH  11  12
HETATM   12  C4  UNL     1      34.191  28.111  14.947  1.00  0.00     0.037 C
BRANCH  12  13
HETATM   13  C2  UNL     1      33.522  29.071  15.859  1.00  0.00    -0.020 C
HETATM   14  C1  UNL     1      32.143  28.459  16.260  1.00  0.00     0.009 C
HETATM   15  C3  UNL     1      33.149  30.346  15.149  1.00  0.00     0.009 C
ENDBRANCH  12  13
ENDBRANCH  11  12
BRANCH  11  16
HETATM   16  N1  UNL     1      36.474  28.877  15.368  1.00  0.00    -0.325 N
HETATM   17  C6  UNL     1      37.360  29.304  14.346  1.00  0.00     0.362 C
HETATM   18  O1  UNL     1      37.402  28.659  13.279  1.00  0.00    -0.238 OA
ATOM     19  H1  UNL     1      36.445  29.407  16.239  1.00  0.00     0.165 HD
BRANCH  17  20
HETATM   20  O2  UNL     1      38.170  30.403  14.497  1.00  0.00    -0.294 OA
BRANCH  20  21
HETATM   21  C7  UNL     1      37.688  31.699  14.369  1.00  0.00     0.061 C
HETATM   22  C8  UNL     1      37.101  32.265  15.634  1.00  0.00     0.046 C
HETATM   23  C9  UNL     1      38.886  32.578  13.986  1.00  0.00     0.046 C
HETATM   24  C10 UNL     1      36.691  31.826  13.219  1.00  0.00     0.046 C
ENDBRANCH  20  21
ENDBRANCH  17  20
ENDBRANCH  11  16
ENDBRANCH  10  11
BRANCH  10  25
HETATM   25  O3  UNL     1      36.987  26.887  16.923  1.00  0.00    -0.348 OA
ATOM     26  H3  UNL     1      37.039  27.040  17.859  1.00  0.00     0.219 HD
ENDBRANCH  10  25
ENDBRANCH   7  10
ENDBRANCH   5   6
BRANCH   5  27
HETATM   27  C32 UNL     1      32.244  25.097  18.022  1.00  0.00     0.033 C
HETATM   28  C33 UNL     1      31.035  24.515  17.398  1.00  0.00     0.016 C
HETATM   29  C34 UNL     1      31.992  25.578  19.422  1.00  0.00     0.016 C
ENDBRANCH   5  27
ENDBRANCH   1   5
BRANCH   3  30
HETATM   30  C16 UNL     1      36.152  23.784  20.041  1.00  0.00     0.153 C
BRANCH  30  31
HETATM   31  C17 UNL     1      37.276  24.145  19.051  1.00  0.00     0.195 C
BRANCH  31  32
HETATM   32  O5  UNL     1      38.494  24.107  19.722  1.00  0.00    -0.398 OA
ATOM     33  H5  UNL     1      39.152  23.740  19.143  1.00  0.00     0.209 HD
ENDBRANCH  31  32
ENDBRANCH  30  31
BRANCH  30  34
HETATM   34  N4  UNL     1      35.687  25.097  20.487  1.00  0.00    -0.349 N
HETATM   35  C18 UNL     1      36.203  25.726  21.661  1.00  0.00     0.228 C
HETATM   36  O6  UNL     1      37.058  25.098  22.319  1.00  0.00    -0.273 OA
ATOM     37  H4  UNL     1      34.973  25.579  19.942  1.00  0.00     0.163 HD
BRANCH  35  38
HETATM   38  C19 UNL     1      35.688  27.061  21.995  1.00  0.00     0.060 C
HETATM   39  C20 UNL     1      36.068  27.456  23.418  1.00  0.00     0.027 C
HETATM   40  C21 UNL     1      34.170  27.000  21.943  1.00  0.00     0.027 C
BRANCH  38  41
HETATM   41  C22 UNL     1      36.222  28.153  21.111  1.00  0.00     0.162 C
BRANCH  41  42
HETATM   42  C23 UNL     1      37.393  27.657  20.324  1.00  0.00     0.257 C
HETATM   43  O7  UNL     1      38.555  27.892  20.652  1.00  0.00    -0.305 OA
ENDBRANCH  41  42
BRANCH  41  44
HETATM   44  N5  UNL     1      35.198  28.657  20.237  1.00  0.00    -0.349 N
HETATM   45  C24 UNL     1      34.921  30.040  20.162  1.00  0.00     0.218 C
HETATM   46  O8  UNL     1      35.568  30.844  20.875  1.00  0.00    -0.274 OA
ATOM     47  H5  UNL     1      34.664  28.007  19.662  1.00  0.00     0.163 HD
BRANCH  45  48
HETATM   48  C25 UNL     1      33.876  30.512  19.245  1.00  0.00     0.107 C
BRANCH  48  49
HETATM   49  C26 UNL     1      32.545  30.773  19.864  1.00  0.00    -0.006 C
HETATM   50  C27 UNL     1      31.577  29.638  19.690  1.00  0.00     0.005 C
HETATM   51  C28 UNL     1      30.148  30.150  19.711  1.00  0.00     0.000 C
HETATM   52  C29 UNL     1      29.903  30.939  18.439  1.00  0.00     0.000 C
HETATM   53  C30 UNL     1      31.167  31.594  17.981  1.00  0.00     0.000 C
HETATM   54  C31 UNL     1      31.950  32.009  19.223  1.00  0.00     0.005 C
ENDBRANCH  48  49
ENDBRANCH  45  48
ENDBRANCH  41  44
ENDBRANCH  38  41
ENDBRANCH  35  38
ENDBRANCH  30  34
ENDBRANCH   3  30
TORSDOF 21
ENDMDL