MODEL 2
REMARK VINA RESULT: -6.338997567      5.423      8.665
REMARK  23 active torsions:
REMARK  status: ('A' for Active; 'I' for Inactive)
REMARK    1  A    between atoms: C2_2  and  C3_3
REMARK    2  A    between atoms: C3_3  and  N1_4
REMARK    3  A    between atoms: N1_4  and  C4_6
REMARK    4  A    between atoms: C4_6  and  C5_7
REMARK    5  A    between atoms: C5_7  and  N2_8
REMARK    6  A    between atoms: C5_7  and  C6_12
REMARK    7  A    between atoms: C6_12  and  N3_13
REMARK    8  A    between atoms: C6_12  and  C33_55
REMARK       I    between atoms: N3_13  and  C7_15
REMARK    9  A    between atoms: C7_15  and  C8_17
REMARK   10  A    between atoms: C8_17  and  C9_18
REMARK   11  A    between atoms: C8_17  and  N4_22
REMARK   12  A    between atoms: C9_18  and  C10_19
REMARK       I    between atoms: N4_22  and  C13_24
REMARK   13  A    between atoms: C13_24  and  C14_26
REMARK   14  A    between atoms: N5_30  and  C18_31
REMARK   15  A    between atoms: C18_31  and  O3_32
REMARK   16  A    between atoms: C18_31  and  C19_34
REMARK   17  A    between atoms: C19_34  and  N6_35
REMARK   18  A    between atoms: C19_34  and  C30_52
REMARK       I    between atoms: N6_35  and  C20_37
REMARK   19  A    between atoms: C20_37  and  C21_39
REMARK   20  A    between atoms: C21_39  and  N7_40
REMARK   21  A    between atoms: C21_39  and  C27_49
REMARK       I    between atoms: N7_40  and  C22_42
REMARK   22  A    between atoms: C22_42  and  O6_44
REMARK   23  A    between atoms: O6_44  and  C23_45
ROOT
HETATM    1  C14 UNL     1      37.774  27.048  18.725  1.00  0.00     0.178 C
HETATM    2  C15 UNL     1      39.158  27.450  19.321  1.00  0.00     0.037 C
HETATM    3  C16 UNL     1      38.603  28.124  20.582  1.00  0.00     0.022 C
HETATM    4  C17 UNL     1      37.383  28.824  20.121  1.00  0.00     0.126 C
HETATM    5  N5  UNL     1      37.171  28.350  18.673  1.00  0.00    -0.350 N
ENDROOT
BRANCH   1   6
HETATM    6  C13 UNL     1      37.113  26.253  19.835  1.00  0.00     0.241 C
HETATM    7  N4  UNL     1      35.800  26.477  20.240  1.00  0.00    -0.346 N
ATOM      8  H4  UNL     1      35.318  27.294  19.866  1.00  0.00     0.163 HD
HETATM    9  O2  UNL     1      37.848  25.381  20.303  1.00  0.00    -0.271 OA
BRANCH   7  10
HETATM   10  C8  UNL     1      35.078  25.623  21.158  1.00  0.00     0.177 C
BRANCH  10  11
HETATM   11  C7  UNL     1      34.482  24.438  20.577  1.00  0.00     0.244 C
HETATM   12  N3  UNL     1      35.262  23.318  20.263  1.00  0.00    -0.330 N
ATOM     13  H3  UNL     1      36.226  23.587  20.454  1.00  0.00     0.168 HD
HETATM   14  O1  UNL     1      33.250  24.400  20.349  1.00  0.00    -0.271 OA
BRANCH  12  15
HETATM   15  C6  UNL     1      35.316  22.011  19.810  1.00  0.00     0.025 C
BRANCH  15  16
HETATM   16  C5  UNL     1      34.392  20.998  20.296  1.00  0.00     0.246 C
BRANCH  16  17
HETATM   17  C4  UNL     1      34.473  19.611  19.698  1.00  0.00     0.152 C
BRANCH  17  18
HETATM   18  N1  UNL     1      33.300  19.102  19.073  1.00  0.00    -0.419 N
ATOM     19  H1  UNL     1      33.046  18.124  19.209  1.00  0.00     0.153 HD
BRANCH  18  20
HETATM   20  C3  UNL     1      32.493  19.910  18.278  1.00  0.00     0.113 C
BRANCH  20  21
HETATM   21  C2  UNL     1      32.885  19.760  16.790  1.00  0.00     0.015 C
HETATM   22  C1  UNL     1      32.041  20.819  16.075  1.00  0.00     0.006 C
ENDBRANCH  20  21
ENDBRANCH  18  20
ENDBRANCH  17  18
ENDBRANCH  16  17
BRANCH  16  23
HETATM   23  N2  UNL     1      34.475  20.808  21.721  1.00  0.00    -0.068 N
ATOM     24  H23 UNL     1      34.992  19.972  21.994  1.00  0.00     0.275 HD
ATOM     25  H22 UNL     1      35.080  21.482  22.191  1.00  0.00     0.275 HD
ATOM     26  H21 UNL     1      33.510  20.820  22.054  1.00  0.00     0.275 HD
ENDBRANCH  16  23
ENDBRANCH  15  16
BRANCH  15  27
HETATM   27  C33 UNL     1      35.688  22.034  18.355  1.00  0.00     0.025 C
HETATM   28  C34 UNL     1      34.850  22.857  17.425  1.00  0.00     0.016 C
HETATM   29  C35 UNL     1      37.155  22.545  18.231  1.00  0.00     0.016 C
ENDBRANCH  15  27
ENDBRANCH  12  15
ENDBRANCH  10  11
BRANCH  10  30
HETATM   30  C9  UNL     1      34.167  26.404  22.042  1.00  0.00     0.038 C
BRANCH  30  31
HETATM   31  C10 UNL     1      34.522  27.794  22.447  1.00  0.00    -0.020 C
HETATM   32  C11 UNL     1      33.483  28.763  22.792  1.00  0.00     0.009 C
HETATM   33  C12 UNL     1      35.616  27.714  23.559  1.00  0.00     0.009 C
ENDBRANCH  30  31
ENDBRANCH  10  30
ENDBRANCH   7  10
ENDBRANCH   1   6
BRANCH   5  34
HETATM   34  C18 UNL     1      36.619  29.272  17.813  1.00  0.00     0.138 C
BRANCH  34  35
HETATM   35  O3  UNL     1      36.919  30.527  18.146  1.00  0.00    -0.348 OA
ATOM     36  H3  UNL     1      37.375  30.990  17.453  1.00  0.00     0.219 HD
ENDBRANCH  34  35
BRANCH  34  37
HETATM   37  C19 UNL     1      35.791  29.222  16.617  1.00  0.00     0.162 C
BRANCH  37  38
HETATM   38  N6  UNL     1      34.560  28.484  16.983  1.00  0.00    -0.347 N
HETATM   39  C20 UNL     1      34.376  27.098  16.914  1.00  0.00     0.241 C
HETATM   40  O4  UNL     1      35.216  26.278  16.522  1.00  0.00    -0.271 OA
ATOM     41  H6  UNL     1      33.772  29.038  17.317  1.00  0.00     0.163 HD
BRANCH  39  42
HETATM   42  C21 UNL     1      32.996  26.615  17.365  1.00  0.00     0.182 C
BRANCH  42  43
HETATM   43  N7  UNL     1      32.192  27.839  17.484  1.00  0.00    -0.323 N
HETATM   44  C22 UNL     1      31.654  28.204  18.758  1.00  0.00     0.362 C
HETATM   45  O5  UNL     1      31.840  27.431  19.755  1.00  0.00    -0.238 OA
ATOM     46  H7  UNL     1      32.019  28.423  16.665  1.00  0.00     0.165 HD
BRANCH  44  47
HETATM   47  O6  UNL     1      30.960  29.363  18.941  1.00  0.00    -0.294 OA
BRANCH  47  48
HETATM   48  C23 UNL     1      31.458  30.524  19.584  1.00  0.00     0.061 C
HETATM   49  C24 UNL     1      32.963  30.622  19.574  1.00  0.00     0.046 C
HETATM   50  C25 UNL     1      30.889  30.729  20.945  1.00  0.00     0.046 C
HETATM   51  C26 UNL     1      30.991  31.717  18.711  1.00  0.00     0.046 C
ENDBRANCH  47  48
ENDBRANCH  44  47
ENDBRANCH  42  43
BRANCH  42  52
HETATM   52  C27 UNL     1      32.439  25.786  16.235  1.00  0.00     0.009 C
HETATM   53  C28 UNL     1      31.572  24.674  16.798  1.00  0.00     0.012 C
HETATM   54  C29 UNL     1      31.591  26.653  15.312  1.00  0.00     0.012 C
ENDBRANCH  42  52
ENDBRANCH  39  42
ENDBRANCH  37  38
BRANCH  37  55
HETATM   55  C30 UNL     1      35.353  30.500  15.991  1.00  0.00     0.008 C
HETATM   56  C31 UNL     1      36.087  30.887  14.739  1.00  0.00     0.012 C
HETATM   57  C32 UNL     1      33.891  30.758  16.010  1.00  0.00     0.012 C
ENDBRANCH  37  55
ENDBRANCH  34  37
ENDBRANCH   5  34
TORSDOF 23
ENDMDL