MODEL 1
REMARK VINA RESULT: -6.618427541      0.000      0.000
REMARK  24 active torsions:
REMARK  status: ('A' for Active; 'I' for Inactive)
REMARK    1  A    between atoms: C2_2  and  C3_3
REMARK    2  A    between atoms: C3_3  and  N1_4
REMARK    3  A    between atoms: C3_3  and  C9_16
REMARK       I    between atoms: N1_4  and  C4_6
REMARK    4  A    between atoms: C4_6  and  C5_8
REMARK    5  A    between atoms: C5_8  and  N2_9
REMARK    6  A    between atoms: C5_8  and  C6_13
REMARK       I    between atoms: C9_16  and  N3_18
REMARK    7  A    between atoms: N3_18  and  C10_20
REMARK    8  A    between atoms: C10_20  and  C11_21
REMARK    9  A    between atoms: C10_20  and  C18_28
REMARK   10  A    between atoms: C11_21  and  C12_22
REMARK   11  A    between atoms: C18_28  and  O3_29
REMARK   12  A    between atoms: C18_28  and  N4_31
REMARK   13  A    between atoms: N4_31  and  C19_33
REMARK   14  A    between atoms: C19_33  and  C20_34
REMARK   15  A    between atoms: C19_33  and  C34_56
REMARK       I    between atoms: C20_34  and  N5_36
REMARK   16  A    between atoms: N5_36  and  C21_38
REMARK   17  A    between atoms: C21_38  and  C22_39
REMARK   18  A    between atoms: C21_38  and  C31_53
REMARK   19  A    between atoms: C22_39  and  O5_40
REMARK   20  A    between atoms: C22_39  and  N6_42
REMARK   21  A    between atoms: N6_42  and  C23_44
REMARK   22  A    between atoms: C23_44  and  C24_45
REMARK   23  A    between atoms: C23_44  and  C26_47
REMARK   24  A    between atoms: C26_47  and  C27_49
ROOT
HETATM    1  C18 UNL     1      32.825  26.390  20.165  1.00  0.00     0.135 C
ENDROOT
BRANCH   1   2
HETATM    2  C10 UNL     1      31.576  26.643  19.449  1.00  0.00     0.159 C
BRANCH   2   3
HETATM    3  N3  UNL     1      31.251  25.395  18.704  1.00  0.00    -0.347 N
HETATM    4  C9  UNL     1      29.941  24.885  18.602  1.00  0.00     0.241 C
HETATM    5  O2  UNL     1      29.025  25.529  19.171  1.00  0.00    -0.271 OA
ATOM      6  H3  UNL     1      32.008  24.887  18.247  1.00  0.00     0.163 HD
BRANCH   4   7
HETATM    7  C3  UNL     1      29.611  23.656  17.869  1.00  0.00     0.176 C
BRANCH   7   8
HETATM    8  C2  UNL     1      29.457  23.969  16.381  1.00  0.00     0.030 C
HETATM    9  C1  UNL     1      30.477  23.262  15.544  1.00  0.00     0.007 C
ENDBRANCH   7   8
BRANCH   7  10
HETATM   10  N1  UNL     1      28.436  23.035  18.416  1.00  0.00    -0.346 N
HETATM   11  C4  UNL     1      28.209  21.636  18.486  1.00  0.00     0.249 C
HETATM   12  O1  UNL     1      29.068  20.813  18.061  1.00  0.00    -0.271 OA
ATOM     13  H1  UNL     1      27.708  23.648  18.783  1.00  0.00     0.163 HD
BRANCH  11  14
HETATM   14  C5  UNL     1      26.957  21.095  19.056  1.00  0.00     0.278 C
BRANCH  14  15
HETATM   15  N2  UNL     1      27.215  19.761  19.595  1.00  0.00    -0.066 N
ATOM     16  H23 UNL     1      28.185  19.640  19.885  1.00  0.00     0.275 HD
ATOM     17  H22 UNL     1      26.776  19.618  20.505  1.00  0.00     0.275 HD
ATOM     18  H21 UNL     1      26.925  19.063  18.911  1.00  0.00     0.275 HD
ENDBRANCH  14  15
BRANCH  14  19
HETATM   19  C6  UNL     1      25.793  21.098  18.110  1.00  0.00     0.017 C
HETATM   20  C7  UNL     1      24.769  22.087  18.637  1.00  0.00     0.012 C
HETATM   21  C8  UNL     1      25.136  19.743  17.989  1.00  0.00     0.012 C
ENDBRANCH  14  19
ENDBRANCH  11  14
ENDBRANCH   7  10
ENDBRANCH   4   7
ENDBRANCH   2   3
BRANCH   2  22
HETATM   22  C11 UNL     1      31.488  27.753  18.488  1.00  0.00     0.038 C
BRANCH  22  23
HETATM   23  C12 UNL     1      31.902  29.111  18.923  1.00  0.00    -0.012 C
HETATM   24  C13 UNL     1      31.608  30.067  17.749  1.00  0.00     0.005 C
HETATM   25  C14 UNL     1      32.405  31.326  18.016  1.00  0.00     0.000 C
HETATM   26  C15 UNL     1      32.585  31.505  19.493  1.00  0.00     0.000 C
HETATM   27  C16 UNL     1      31.404  31.056  20.318  1.00  0.00     0.000 C
HETATM   28  C17 UNL     1      31.039  29.611  20.083  1.00  0.00     0.005 C
ENDBRANCH  22  23
ENDBRANCH   2  22
ENDBRANCH   1   2
BRANCH   1  29
HETATM   29  O3  UNL     1      32.907  25.165  20.613  1.00  0.00    -0.348 OA
ATOM     30  H3  UNL     1      33.712  25.005  21.092  1.00  0.00     0.219 HD
ENDBRANCH   1  29
BRANCH   1  31
HETATM   31  N4  UNL     1      33.919  27.181  20.448  1.00  0.00    -0.359 N
ATOM     32  H4  UNL     1      34.257  27.802  19.712  1.00  0.00     0.162 HD
BRANCH  31  33
HETATM   33  C19 UNL     1      34.632  27.193  21.730  1.00  0.00     0.179 C
BRANCH  33  34
HETATM   34  C20 UNL     1      35.938  26.504  21.606  1.00  0.00     0.241 C
HETATM   35  O4  UNL     1      36.920  26.735  22.396  1.00  0.00    -0.271 OA
HETATM   36  N5  UNL     1      36.146  25.554  20.593  1.00  0.00    -0.347 N
ATOM     37  H5  UNL     1      35.373  25.335  19.964  1.00  0.00     0.163 HD
BRANCH  36  38
HETATM   38  C21 UNL     1      37.432  24.862  20.400  1.00  0.00     0.162 C
BRANCH  38  39
HETATM   39  C22 UNL     1      37.383  23.516  20.936  1.00  0.00     0.135 C
BRANCH  39  40
HETATM   40  O5  UNL     1      37.930  23.321  22.116  1.00  0.00    -0.348 OA
ATOM     41  H5  UNL     1      38.850  23.086  22.133  1.00  0.00     0.219 HD
ENDBRANCH  39  40
BRANCH  39  42
HETATM   42  N6  UNL     1      36.832  22.364  20.388  1.00  0.00    -0.361 N
ATOM     43  H6  UNL     1      37.429  21.542  20.289  1.00  0.00     0.162 HD
BRANCH  42  44
HETATM   44  C23 UNL     1      35.437  22.267  19.943  1.00  0.00     0.153 C
BRANCH  44  45
HETATM   45  C24 UNL     1      34.521  21.712  20.972  1.00  0.00     0.028 C
HETATM   46  C25 UNL     1      34.831  20.235  21.242  1.00  0.00     0.007 C
ENDBRANCH  44  45
BRANCH  44  47
HETATM   47  C26 UNL     1      35.342  21.648  18.596  1.00  0.00     0.157 C
HETATM   48  O6  UNL     1      36.309  20.987  18.218  1.00  0.00    -0.295 OA
BRANCH  47  49
HETATM   49  C27 UNL     1      34.167  21.785  17.726  1.00  0.00     0.012 C
HETATM   50  C28 UNL     1      33.552  23.186  17.773  1.00  0.00     0.022 C
HETATM   51  C29 UNL     1      34.637  21.661  16.255  1.00  0.00     0.022 C
HETATM   52  C30 UNL     1      33.111  20.746  17.883  1.00  0.00     0.022 C
ENDBRANCH  47  49
ENDBRANCH  44  47
ENDBRANCH  42  44
ENDBRANCH  39  42
ENDBRANCH  38  39
BRANCH  38  53
HETATM   53  C31 UNL     1      37.860  25.083  19.030  1.00  0.00     0.008 C
HETATM   54  C32 UNL     1      38.835  26.198  18.763  1.00  0.00     0.012 C
HETATM   55  C33 UNL     1      36.657  25.251  18.064  1.00  0.00     0.012 C
ENDBRANCH  38  53
ENDBRANCH  36  38
ENDBRANCH  33  34
BRANCH  33  56
HETATM   56  C34 UNL     1      34.787  28.543  22.299  1.00  0.00     0.009 C
HETATM   57  C35 UNL     1      35.258  29.577  21.287  1.00  0.00     0.012 C
HETATM   58  C36 UNL     1      33.511  29.043  22.984  1.00  0.00     0.012 C
ENDBRANCH  33  56
ENDBRANCH  31  33
ENDBRANCH   1  31
TORSDOF 24
ENDMDL