MODEL 5
REMARK VINA RESULT: -6.609051420      3.430      8.271
REMARK  24 active torsions:
REMARK  status: ('A' for Active; 'I' for Inactive)
REMARK    1  A    between atoms: C2_2  and  C4_4
REMARK    2  A    between atoms: C4_4  and  C5_5
REMARK    3  A    between atoms: C5_5  and  N1_6
REMARK    4  A    between atoms: C5_5  and  C19_30
REMARK    5  A    between atoms: N1_6  and  C6_8
REMARK    6  A    between atoms: C6_8  and  O1_9
REMARK    7  A    between atoms: C6_8  and  C7_11
REMARK    8  A    between atoms: C7_11  and  N2_12
REMARK    9  A    between atoms: C7_11  and  C16_27
REMARK       I    between atoms: N2_12  and  C8_13
REMARK   10  A    between atoms: C8_13  and  C9_15
REMARK   11  A    between atoms: C9_15  and  C10_16
REMARK   12  A    between atoms: C9_15  and  N4_21
REMARK   13  A    between atoms: C10_16  and  C11_17
REMARK   14  A    between atoms: C11_17  and  C12_18
REMARK   15  A    between atoms: N4_21  and  C13_24
REMARK   16  A    between atoms: C19_30  and  O4_31
REMARK   17  A    between atoms: N5_33  and  C20_35
REMARK   18  A    between atoms: C20_35  and  O5_36
REMARK   19  A    between atoms: C20_35  and  C21_38
REMARK   20  A    between atoms: C21_38  and  C22_39
REMARK   21  A    between atoms: C21_38  and  N6_51
REMARK   22  A    between atoms: C22_39  and  C23_40
REMARK   23  A    between atoms: C23_40  and  C24_41
REMARK   24  A    between atoms: N6_51  and  C32_53
ROOT
HETATM    1  C5  UNL     1      35.871  28.900  20.784  1.00  0.00     0.158 C
ENDROOT
BRANCH   1   2
HETATM    2  C4  UNL     1      35.722  29.207  22.163  1.00  0.00     0.037 C
BRANCH   2   3
HETATM    3  C2  UNL     1      34.741  28.471  23.020  1.00  0.00    -0.020 C
HETATM    4  C1  UNL     1      34.973  26.988  23.051  1.00  0.00     0.009 C
HETATM    5  C3  UNL     1      33.289  28.694  22.604  1.00  0.00     0.009 C
ENDBRANCH   2   3
ENDBRANCH   1   2
BRANCH   1   6
HETATM    6  N1  UNL     1      37.163  28.277  20.391  1.00  0.00    -0.360 N
ATOM      7  H1  UNL     1      38.017  28.816  20.529  1.00  0.00     0.162 HD
BRANCH   6   8
HETATM    8  C6  UNL     1      37.275  27.018  19.852  1.00  0.00     0.149 C
BRANCH   8   9
HETATM    9  O1  UNL     1      37.665  26.097  20.682  1.00  0.00    -0.347 OA
ATOM     10  H1  UNL     1      38.568  25.821  20.581  1.00  0.00     0.219 HD
ENDBRANCH   8   9
BRANCH   8  11
HETATM   11  C7  UNL     1      37.009  26.555  18.494  1.00  0.00     0.244 C
BRANCH  11  12
HETATM   12  N2  UNL     1      36.808  25.158  18.468  1.00  0.00    -0.399 NA
HETATM   13  C8  UNL     1      36.619  23.835  18.443  1.00  0.00     0.318 C
HETATM   14  O2  UNL     1      37.427  22.998  17.893  1.00  0.00    -0.255 OA
BRANCH  13  15
HETATM   15  C9  UNL     1      35.445  23.098  19.047  1.00  0.00     0.292 C
BRANCH  15  16
HETATM   16  C10 UNL     1      35.278  23.298  20.506  1.00  0.00     0.053 C
BRANCH  16  17
HETATM   17  C11 UNL     1      36.006  22.308  21.394  1.00  0.00     0.102 C
BRANCH  17  18
HETATM   18  C12 UNL     1      37.108  23.067  22.070  1.00  0.00     0.231 C
HETATM   19  N3  UNL     1      38.339  23.294  21.419  1.00  0.00    -0.062 NA
HETATM   20  O3  UNL     1      36.993  23.522  23.233  1.00  0.00    -0.277 OA
ENDBRANCH  17  18
ENDBRANCH  16  17
ENDBRANCH  15  16
BRANCH  15  21
HETATM   21  N4  UNL     1      35.614  21.690  18.720  1.00  0.00    -0.057 N
ATOM     22  H42 UNL     1      36.253  21.562  17.935  1.00  0.00     0.278 HD
ATOM     23  H41 UNL     1      36.148  21.200  19.438  1.00  0.00     0.278 HD
BRANCH  21  24
HETATM   24  C13 UNL     1      34.336  21.050  18.476  1.00  0.00     0.187 A
HETATM   25  C14 UNL     1      34.366  19.685  17.909  1.00  0.00     0.035 A
HETATM   26  C15 UNL     1      34.025  19.856  19.334  1.00  0.00     0.035 A
ENDBRANCH  21  24
ENDBRANCH  15  21
ENDBRANCH  13  15
ENDBRANCH  11  12
BRANCH  11  27
HETATM   27  C16 UNL     1      37.956  27.024  17.391  1.00  0.00     0.021 C
HETATM   28  C17 UNL     1      39.334  27.355  17.850  1.00  0.00     0.013 C
HETATM   29  C18 UNL     1      37.422  28.329  16.799  1.00  0.00     0.013 C
ENDBRANCH  11  27
ENDBRANCH   8  11
ENDBRANCH   6   8
ENDBRANCH   1   6
BRANCH   1  30
HETATM   30  C19 UNL     1      35.640  29.952  19.775  1.00  0.00     0.140 C
HETATM   31  N5  UNL     1      34.700  30.599  19.061  1.00  0.00    -0.321 N
ATOM     32  H5  UNL     1      35.172  31.123  18.324  1.00  0.00     0.169 HD
BRANCH  30  33
HETATM   33  O4  UNL     1      36.893  30.471  19.467  1.00  0.00    -0.348 OA
ATOM     34  H4  UNL     1      37.359  29.781  19.011  1.00  0.00     0.219 HD
ENDBRANCH  30  33
BRANCH  31  35
HETATM   35  C20 UNL     1      33.345  30.828  18.940  1.00  0.00     0.140 C
BRANCH  35  36
HETATM   36  O5  UNL     1      32.837  31.522  19.932  1.00  0.00    -0.348 OA
ATOM     37  H5  UNL     1      32.151  32.123  19.665  1.00  0.00     0.219 HD
ENDBRANCH  35  36
BRANCH  35  38
HETATM   38  C21 UNL     1      32.312  30.480  17.979  1.00  0.00     0.152 C
BRANCH  38  39
HETATM   39  C22 UNL     1      31.250  29.526  18.547  1.00  0.00     0.036 C
BRANCH  39  40
HETATM   40  C23 UNL     1      31.869  28.261  19.073  1.00  0.00     0.037 C
BRANCH  40  41
HETATM   41  C24 UNL     1      31.208  26.999  18.519  1.00  0.00     0.160 C
HETATM   42  C25 UNL     1      32.032  25.805  18.921  1.00  0.00     0.038 C
HETATM   43  C26 UNL     1      33.249  25.655  18.041  1.00  0.00     0.044 C
HETATM   44  C27 UNL     1      32.835  25.630  16.577  1.00  0.00     0.096 C
HETATM   45  C28 UNL     1      33.043  24.242  15.981  1.00  0.00     0.041 C
HETATM   46  C31 UNL     1      33.740  26.492  15.757  1.00  0.00     0.041 C
HETATM   47  O6  UNL     1      31.531  26.036  16.488  1.00  0.00    -0.229 OA
HETATM   48  C29 UNL     1      34.529  24.235  15.666  1.00  0.00     0.003 C
HETATM   49  C30 UNL     1      34.932  25.651  15.366  1.00  0.00     0.003 C
HETATM   50  O7  UNL     1      31.135  27.077  17.112  1.00  0.00    -0.235 OA
ENDBRANCH  40  41
ENDBRANCH  39  40
ENDBRANCH  38  39
BRANCH  38  51
HETATM   51  N6  UNL     1      32.901  29.689  16.890  1.00  0.00    -0.403 N
ATOM     52  H6  UNL     1      33.257  28.748  17.062  1.00  0.00     0.154 HD
BRANCH  51  53
HETATM   53  C32 UNL     1      32.964  30.248  15.624  1.00  0.00     0.015 C
HETATM   54  C33 UNL     1      32.177  29.564  14.537  1.00  0.00     0.037 C
HETATM   55  C34 UNL     1      34.434  30.239  15.182  1.00  0.00     0.037 C
HETATM   56  C35 UNL     1      32.547  31.716  15.577  1.00  0.00     0.037 C
ENDBRANCH  51  53
ENDBRANCH  38  51
ENDBRANCH  35  38
ENDBRANCH  31  35
ENDBRANCH   1  30
TORSDOF 24
ENDMDL