MODEL 1
REMARK VINA RESULT: -6.534212823      0.000      0.000
REMARK  20 active torsions:
REMARK  status: ('A' for Active; 'I' for Inactive)
REMARK    1  A    between atoms: C2_2  and  C3_3
REMARK    2  A    between atoms: C3_3  and  C5_5
REMARK    3  A    between atoms: C5_5  and  N1_6
REMARK    4  A    between atoms: C5_5  and  C13_19
REMARK    5  A    between atoms: N1_6  and  C6_8
REMARK    6  A    between atoms: C6_8  and  C8_10
REMARK    7  A    between atoms: C8_10  and  N2_11
REMARK    8  A    between atoms: C8_10  and  C10_16
REMARK       I    between atoms: N2_11  and  C9_13
REMARK       I    between atoms: C13_19  and  N4_21
REMARK    9  A    between atoms: N4_21  and  C14_23
REMARK   10  A    between atoms: C14_23  and  C16_25
REMARK       I    between atoms: C16_25  and  N5_27
REMARK   11  A    between atoms: N5_27  and  C17_29
REMARK   12  A    between atoms: C17_29  and  C18_30
REMARK   13  A    between atoms: C17_29  and  C29_49
REMARK   14  A    between atoms: C18_30  and  O4_31
REMARK   15  A    between atoms: C18_30  and  N6_33
REMARK   16  A    between atoms: N6_33  and  C19_35
REMARK   17  A    between atoms: C19_35  and  C20_36
REMARK   18  A    between atoms: C19_35  and  C24_40
REMARK   19  A    between atoms: C20_36  and  C21_37
REMARK   20  A    between atoms: C24_40  and  C25_42
ROOT
HETATM    1  C16 UNL     1      37.895  28.121  16.966  1.00  0.00     0.240 C
HETATM    2  O3  UNL     1      39.027  27.723  16.617  1.00  0.00    -0.271 OA
HETATM    3  N5  UNL     1      37.426  27.913  18.267  1.00  0.00    -0.347 N
ATOM      4  H5  UNL     1      36.497  28.281  18.470  1.00  0.00     0.163 HD
ENDROOT
BRANCH   3   5
HETATM    5  C17 UNL     1      38.103  27.232  19.372  1.00  0.00     0.163 C
BRANCH   5   6
HETATM    6  C18 UNL     1      37.680  25.824  19.250  1.00  0.00     0.135 C
BRANCH   6   7
HETATM    7  O4  UNL     1      38.559  24.996  18.723  1.00  0.00    -0.348 OA
ATOM      8  H4  UNL     1      38.251  24.116  18.542  1.00  0.00     0.219 HD
ENDBRANCH   6   7
BRANCH   6   9
HETATM    9  N6  UNL     1      36.486  25.201  19.592  1.00  0.00    -0.361 N
ATOM     10  H6  UNL     1      35.832  24.937  18.854  1.00  0.00     0.162 HD
BRANCH   9  11
HETATM   11  C19 UNL     1      36.138  24.904  21.026  1.00  0.00     0.160 C
BRANCH  11  12
HETATM   12  C20 UNL     1      34.643  25.066  21.082  1.00  0.00     0.037 C
BRANCH  12  13
HETATM   13  C21 UNL     1      34.125  26.452  21.122  1.00  0.00    -0.020 C
HETATM   14  C22 UNL     1      32.864  26.683  20.323  1.00  0.00     0.009 C
HETATM   15  C23 UNL     1      33.803  26.808  22.569  1.00  0.00     0.009 C
ENDBRANCH  12  13
ENDBRANCH  11  12
BRANCH  11  16
HETATM   16  C24 UNL     1      36.495  23.495  21.290  1.00  0.00     0.205 C
HETATM   17  O5  UNL     1      37.475  23.273  22.063  1.00  0.00    -0.288 OA
BRANCH  16  18
HETATM   18  C25 UNL     1      35.819  22.325  20.742  1.00  0.00     0.122 A
HETATM   19  N7  UNL     1      35.658  21.921  19.495  1.00  0.00    -0.351 N
HETATM   20  C26 UNL     1      35.016  20.837  19.225  1.00  0.00     0.012 A
ATOM     21  H7  UNL     1      36.049  22.476  18.734  1.00  0.00     0.166 HD
HETATM   22  C27 UNL     1      34.816  20.346  17.802  1.00  0.00     0.068 C
HETATM   23  C28 UNL     1      34.505  20.118  20.277  1.00  0.00     0.076 A
HETATM   24  S1  UNL     1      34.995  21.072  21.609  1.00  0.00    -0.079 SA
ENDBRANCH  16  18
ENDBRANCH  11  16
ENDBRANCH   9  11
ENDBRANCH   6   9
ENDBRANCH   5   6
BRANCH   5  25
HETATM   25  C29 UNL     1      37.947  27.791  20.710  1.00  0.00     0.016 C
HETATM   26  C30 UNL     1      39.151  28.692  21.049  1.00  0.00     0.007 C
HETATM   27  C31 UNL     1      39.165  28.780  22.554  1.00  0.00     0.000 C
HETATM   28  C32 UNL     1      37.827  28.470  23.160  1.00  0.00     0.000 C
HETATM   29  C33 UNL     1      36.646  28.956  22.396  1.00  0.00     0.000 C
HETATM   30  C34 UNL     1      36.762  28.721  20.910  1.00  0.00     0.007 C
ENDBRANCH   5  25
ENDBRANCH   3   5
BRANCH   1  31
HETATM   31  C14 UNL     1      37.099  28.820  15.919  1.00  0.00     0.172 C
HETATM   32  C15 UNL     1      37.184  27.881  14.683  1.00  0.00     0.042 C
BRANCH  31  33
HETATM   33  N4  UNL     1      35.701  28.830  16.291  1.00  0.00    -0.346 N
HETATM   34  C13 UNL     1      35.130  29.826  17.119  1.00  0.00     0.241 C
HETATM   35  O2  UNL     1      35.914  30.720  17.514  1.00  0.00    -0.271 OA
ATOM     36  H4  UNL     1      35.099  28.085  15.940  1.00  0.00     0.163 HD
BRANCH  34  37
HETATM   37  C5  UNL     1      33.693  29.762  17.458  1.00  0.00     0.173 C
BRANCH  37  38
HETATM   38  C3  UNL     1      33.378  31.015  18.252  1.00  0.00     0.013 C
HETATM   39  C4  UNL     1      33.042  30.726  19.698  1.00  0.00     0.012 C
BRANCH  38  40
HETATM   40  C2  UNL     1      32.092  31.658  17.690  1.00  0.00     0.002 C
HETATM   41  C1  UNL     1      31.114  31.924  18.797  1.00  0.00     0.005 C
ENDBRANCH  38  40
ENDBRANCH  37  38
BRANCH  37  42
HETATM   42  N1  UNL     1      32.822  29.476  16.415  1.00  0.00    -0.403 N
ATOM     43  H1  UNL     1      32.715  30.215  15.720  1.00  0.00     0.154 HD
BRANCH  42  44
HETATM   44  C6  UNL     1      32.089  28.347  16.185  1.00  0.00     0.096 C
HETATM   45  C7  UNL     1      31.199  27.740  17.208  1.00  0.00     0.034 C
BRANCH  44  46
HETATM   46  C8  UNL     1      32.935  27.203  15.621  1.00  0.00     0.111 C
BRANCH  46  47
HETATM   47  N2  UNL     1      32.826  26.000  16.430  1.00  0.00    -0.338 N
HETATM   48  C9  UNL     1      33.999  25.473  17.016  1.00  0.00     0.329 C
HETATM   49  N3  UNL     1      33.923  24.298  17.813  1.00  0.00    -0.040 NA
HETATM   50  O1  UNL     1      35.112  26.028  16.842  1.00  0.00    -0.251 OA
ATOM     51  H2  UNL     1      31.924  25.546  16.571  1.00  0.00     0.164 HD
ENDBRANCH  46  47
BRANCH  46  52
HETATM   52  C10 UNL     1      32.657  26.807  14.226  1.00  0.00     0.002 C
HETATM   53  C11 UNL     1      32.269  27.889  13.257  1.00  0.00     0.011 C
HETATM   54  C12 UNL     1      31.671  25.690  14.041  1.00  0.00     0.011 C
ENDBRANCH  46  52
ENDBRANCH  44  46
ENDBRANCH  42  44
ENDBRANCH  37  42
ENDBRANCH  34  37
ENDBRANCH  31  33
ENDBRANCH   1  31
TORSDOF 20
ENDMDL