MODEL 4
REMARK VINA RESULT: -8.610826449      1.446      3.809
REMARK  17 active torsions:
REMARK  status: ('A' for Active; 'I' for Inactive)
REMARK    1  A    between atoms: C2_2  and  C4_4
REMARK    2  A    between atoms: C5_5  and  C6_6
REMARK    3  A    between atoms: C6_6  and  C22_34
REMARK    4  A    between atoms: C7_7  and  C8_8
REMARK    5  A    between atoms: C9_9  and  C10_10
REMARK    6  A    between atoms: C10_10  and  C12_12
REMARK    7  A    between atoms: C12_12  and  C13_13
REMARK    8  A    between atoms: C13_13  and  C14_14
REMARK    9  A    between atoms: C14_14  and  C15_15
REMARK       I    between atoms: C15_15  and  N1_17
REMARK   10  A    between atoms: N1_17  and  C16_19
REMARK   11  A    between atoms: C17_20  and  O2_21
REMARK   12  A    between atoms: C18_24  and  C19_25
REMARK   13  A    between atoms: C19_25  and  O4_26
REMARK   14  A    between atoms: C20_28  and  O5_29
REMARK   15  A    between atoms: C21_31  and  O6_32
REMARK   16  A    between atoms: C22_34  and  O7_35
REMARK   17  A    between atoms: C22_34  and  C23_37
ROOT
HETATM    1  C14 UNL     1      16.474  18.828  20.693  1.00  0.00     0.106 C
ENDROOT
BRANCH   1   2
HETATM    2  C13 UNL     1      15.973  17.392  20.697  1.00  0.00     0.037 C
BRANCH   2   3
HETATM    3  C12 UNL     1      17.109  16.496  20.707  1.00  0.00    -0.020 C
BRANCH   3   4
HETATM    4  C10 UNL     1      17.945  16.223  21.732  1.00  0.00    -0.066 C
HETATM    5  C11 UNL     1      17.451  15.663  22.989  1.00  0.00     0.048 C
BRANCH   4   6
HETATM    6  C9  UNL     1      19.344  16.502  21.505  1.00  0.00     0.006 C
HETATM    7  C8  UNL     1      20.209  17.147  22.178  1.00  0.00     0.001 C
BRANCH   7   8
HETATM    8  C7  UNL     1      20.176  17.853  23.391  1.00  0.00     0.014 C
HETATM    9  C6  UNL     1      19.901  19.206  23.541  1.00  0.00    -0.007 C
BRANCH   9  10
HETATM   10  C5  UNL     1      19.651  19.936  22.367  1.00  0.00     0.014 C
HETATM   11  C4  UNL     1      20.435  20.404  21.444  1.00  0.00     0.007 C
BRANCH  11  12
HETATM   12  C2  UNL     1      19.832  21.144  20.295  1.00  0.00    -0.071 C
HETATM   13  C1  UNL     1      20.308  21.130  19.114  1.00  0.00     0.018 C
HETATM   14  C3  UNL     1      18.566  21.908  20.610  1.00  0.00     0.047 C
ENDBRANCH  11  12
ENDBRANCH   9  10
BRANCH   9  15
HETATM   15  C22 UNL     1      19.979  19.685  24.900  1.00  0.00     0.057 C
BRANCH  15  16
HETATM   16  O7  UNL     1      19.029  19.265  25.713  1.00  0.00    -0.364 OA
ATOM     17  H7  UNL     1      18.146  19.537  25.495  1.00  0.00     0.217 HD
ENDBRANCH  15  16
BRANCH  15  18
HETATM   18  C23 UNL     1      20.936  20.557  25.556  1.00  0.00     0.035 C
HETATM   19  C24 UNL     1      22.375  20.325  25.145  1.00  0.00     0.016 C
HETATM   20  C25 UNL     1      20.886  20.371  27.082  1.00  0.00     0.016 C
ENDBRANCH  15  18
ENDBRANCH   9  15
ENDBRANCH   7   8
ENDBRANCH   4   6
ENDBRANCH   3   4
ENDBRANCH   2   3
ENDBRANCH   1   2
BRANCH   1  21
HETATM   21  C15 UNL     1      15.751  19.702  21.620  1.00  0.00     0.218 C
HETATM   22  O1  UNL     1      16.228  19.993  22.737  1.00  0.00    -0.274 OA
HETATM   23  N1  UNL     1      14.485  20.230  21.262  1.00  0.00    -0.349 N
ATOM     24  H1  UNL     1      14.104  20.016  20.341  1.00  0.00     0.163 HD
BRANCH  23  25
HETATM   25  C16 UNL     1      13.714  21.065  22.162  1.00  0.00     0.170 C
HETATM   26  C17 UNL     1      13.592  22.463  21.607  1.00  0.00     0.282 C
HETATM   27  O3  UNL     1      12.786  23.290  22.318  1.00  0.00    -0.349 OA
HETATM   28  C18 UNL     1      12.190  22.834  23.445  1.00  0.00     0.179 C
HETATM   29  C20 UNL     1      11.786  21.418  23.546  1.00  0.00     0.180 C
HETATM   30  C21 UNL     1      12.323  20.557  22.413  1.00  0.00     0.177 C
BRANCH  26  31
HETATM   31  O2  UNL     1      14.898  22.995  21.582  1.00  0.00    -0.369 OA
ATOM     32  H2  UNL     1      14.979  23.466  20.760  1.00  0.00     0.212 HD
ENDBRANCH  26  31
BRANCH  28  33
HETATM   33  C19 UNL     1      10.942  23.705  23.679  1.00  0.00     0.198 C
BRANCH  33  34
HETATM   34  O4  UNL     1      10.572  23.691  25.016  1.00  0.00    -0.398 OA
ATOM     35  H4  UNL     1       9.665  23.952  25.120  1.00  0.00     0.209 HD
ENDBRANCH  33  34
ENDBRANCH  28  33
BRANCH  29  36
HETATM   36  O5  UNL     1      10.412  21.188  23.613  1.00  0.00    -0.390 OA
ATOM     37  H5  UNL     1      10.150  20.276  23.637  1.00  0.00     0.210 HD
ENDBRANCH  29  36
BRANCH  30  38
HETATM   38  O6  UNL     1      12.271  19.228  22.758  1.00  0.00    -0.391 OA
ATOM     39  H6  UNL     1      12.297  19.074  23.695  1.00  0.00     0.210 HD
ENDBRANCH  30  38
ENDBRANCH  23  25
ENDBRANCH   1  21
TORSDOF 17
ENDMDL