MODEL 2
REMARK VINA RESULT: -8.353283533      2.686      4.409
REMARK  13 active torsions:
REMARK  status: ('A' for Active; 'I' for Inactive)
REMARK    1  A    between atoms: C2_2  and  C4_4
REMARK    2  A    between atoms: C5_6  and  N1_7
REMARK       I    between atoms: N1_7  and  C6_9
REMARK    3  A    between atoms: C6_9  and  C7_11
REMARK    4  A    between atoms: C7_11  and  C8_12
REMARK    5  A    between atoms: C8_12  and  C9_13
REMARK    6  A    between atoms: C9_13  and  C10_14
REMARK    7  A    between atoms: C13_21  and  N4_22
REMARK    8  A    between atoms: C16_31  and  C17_32
REMARK    9  A    between atoms: C17_32  and  C18_33
REMARK   10  A    between atoms: C18_33  and  O3_34
REMARK   11  A    between atoms: O3_34  and  C19_35
REMARK   12  A    between atoms: C19_35  and  C20_36
REMARK   13  A    between atoms: C20_36  and  O4_37
ROOT
HETATM    1  N1  UNL     1      20.253  19.366  20.810  1.00  0.00    -0.316 N
ATOM      2  H1  UNL     1      20.674  18.628  20.244  1.00  0.00     0.170 HD
HETATM    3  C6  UNL     1      19.905  20.651  20.256  1.00  0.00     0.222 C
HETATM    4  O1  UNL     1      20.783  21.495  20.126  1.00  0.00    -0.273 OA
ENDROOT
BRANCH   3   5
HETATM    5  C7  UNL     1      18.497  20.862  19.883  1.00  0.00     0.103 C
BRANCH   5   6
HETATM    6  C8  UNL     1      17.744  21.815  20.717  1.00  0.00     0.014 C
BRANCH   6   7
HETATM    7  C9  UNL     1      16.354  22.066  20.271  1.00  0.00     0.042 C
BRANCH   7   8
HETATM    8  C10 UNL     1      15.397  21.266  21.077  1.00  0.00    -0.023 A
HETATM    9  C11 UNL     1      15.441  19.946  21.474  1.00  0.00     0.098 A
HETATM   10  N2  UNL     1      14.353  19.685  22.231  1.00  0.00    -0.350 N
HETATM   11  C12 UNL     1      13.601  20.784  22.343  1.00  0.00     0.137 A
ATOM     12  H2  UNL     1      14.137  18.782  22.655  1.00  0.00     0.166 HD
HETATM   13  N3  UNL     1      12.438  21.075  22.981  1.00  0.00    -0.176 N
HETATM   14  C15 UNL     1      14.232  21.784  21.631  1.00  0.00     0.085 A
HETATM   15  C13 UNL     1      11.938  22.326  22.901  1.00  0.00     0.680 A
ATOM     16  H3  UNL     1      11.949  20.357  23.515  1.00  0.00     0.186 HD
HETATM   17  N5  UNL     1      12.530  23.302  22.220  1.00  0.00    -0.155 N
HETATM   18  C14 UNL     1      13.702  23.050  21.563  1.00  0.00     0.274 A
ATOM     19  H5  UNL     1      12.113  24.232  22.188  1.00  0.00     0.187 HD
HETATM   20  O2  UNL     1      14.252  23.987  20.922  1.00  0.00    -0.267 OA
BRANCH  15  21
HETATM   21  N4  UNL     1      10.840  22.563  23.524  1.00  0.00    -0.234 N
ATOM     22  H42 UNL     1      10.626  22.051  24.380  1.00  0.00     0.174 HD
ATOM     23  H41 UNL     1      10.216  23.264  23.124  1.00  0.00     0.174 HD
ENDBRANCH  15  21
ENDBRANCH   7   8
ENDBRANCH   6   7
ENDBRANCH   5   6
ENDBRANCH   3   5
BRANCH   1  24
HETATM   24  C5  UNL     1      20.003  19.207  22.054  1.00  0.00     0.119 A
HETATM   25  S1  UNL     1      21.034  19.668  23.319  1.00  0.00    -0.064 SA
HETATM   26  C4  UNL     1      20.293  19.299  24.839  1.00  0.00     0.025 A
HETATM   27  C16 UNL     1      19.058  18.726  24.659  1.00  0.00     0.005 A
HETATM   28  S2  UNL     1      18.725  18.597  22.983  1.00  0.00    -0.068 SA
BRANCH  26  29
HETATM   29  C2  UNL     1      21.028  19.591  26.061  1.00  0.00    -0.053 C
HETATM   30  C1  UNL     1      20.871  20.639  26.824  1.00  0.00     0.020 C
HETATM   31  C3  UNL     1      22.041  18.546  26.481  1.00  0.00     0.049 C
ENDBRANCH  26  29
BRANCH  27  32
HETATM   32  C17 UNL     1      18.115  18.283  25.700  1.00  0.00     0.074 C
BRANCH  32  33
HETATM   33  C18 UNL     1      18.202  16.779  25.942  1.00  0.00     0.172 C
BRANCH  33  34
HETATM   34  O3  UNL     1      17.009  16.155  25.712  1.00  0.00    -0.389 OA
BRANCH  34  35
HETATM   35  C19 UNL     1      16.854  15.568  24.492  1.00  0.00     0.193 C
BRANCH  35  36
HETATM   36  C20 UNL     1      15.506  15.643  23.868  1.00  0.00     0.190 C
BRANCH  36  37
HETATM   37  O4  UNL     1      15.325  16.935  23.359  1.00  0.00    -0.399 OA
ATOM     38  H4  UNL     1      15.049  16.866  22.453  1.00  0.00     0.209 HD
ENDBRANCH  36  37
ENDBRANCH  35  36
ENDBRANCH  34  35
ENDBRANCH  33  34
ENDBRANCH  32  33
ENDBRANCH  27  32
ENDBRANCH   1  24
TORSDOF 13
ENDMDL