MODEL 2
REMARK VINA RESULT: -8.542664555      3.066      8.446
REMARK  15 active torsions:
REMARK  status: ('A' for Active; 'I' for Inactive)
REMARK    1  A    between atoms: C6_6  and  C7_7
REMARK    2  A    between atoms: C7_7  and  O1_8
REMARK    3  A    between atoms: C8_10  and  C9_11
REMARK    4  A    between atoms: C9_11  and  C10_12
REMARK    5  A    between atoms: C10_12  and  C11_13
REMARK    6  A    between atoms: C11_13  and  C12_14
REMARK    7  A    between atoms: C12_14  and  C13_15
REMARK    8  A    between atoms: C13_15  and  C14_16
REMARK    9  A    between atoms: C17_19  and  O2_20
REMARK   10  A    between atoms: O2_20  and  C18_21
REMARK   11  A    between atoms: C20_23  and  O3_24
REMARK   12  A    between atoms: C21_26  and  O4_27
REMARK   13  A    between atoms: C22_29  and  C23_30
REMARK   14  A    between atoms: C23_30  and  O5_31
REMARK   15  A    between atoms: C24_34  and  O7_35
ROOT
HETATM    1  C1  UNL     1      12.011  25.988  25.017  1.00  0.00     0.018 C
HETATM    2  C2  UNL     1      11.939  24.882  24.545  1.00  0.00    -0.078 C
HETATM    3  C3  UNL     1      11.868  23.551  24.004  1.00  0.00     0.017 A
HETATM    4  C4  UNL     1      10.986  22.620  24.509  1.00  0.00     0.021 A
HETATM    5  C5  UNL     1      10.922  21.349  23.987  1.00  0.00     0.011 A
HETATM    6  C6  UNL     1      11.736  20.938  22.933  1.00  0.00    -0.028 A
HETATM    7  C8  UNL     1      12.618  21.850  22.416  1.00  0.00    -0.048 A
HETATM    8  C26 UNL     1      12.667  23.136  22.961  1.00  0.00     0.028 A
ENDROOT
BRANCH   7   9
HETATM    9  C9  UNL     1      13.518  21.532  21.286  1.00  0.00     0.039 C
BRANCH   9  10
HETATM   10  C10 UNL     1      14.945  21.902  21.461  1.00  0.00     0.005 C
BRANCH  10  11
HETATM   11  C11 UNL     1      15.652  22.369  20.206  1.00  0.00     0.001 C
BRANCH  11  12
HETATM   12  C12 UNL     1      15.614  21.385  19.080  1.00  0.00     0.005 C
BRANCH  12  13
HETATM   13  C13 UNL     1      16.998  21.248  18.491  1.00  0.00     0.038 C
BRANCH  13  14
HETATM   14  C14 UNL     1      18.003  20.728  19.448  1.00  0.00    -0.055 A
HETATM   15  C15 UNL     1      19.288  21.249  19.553  1.00  0.00     0.010 A
HETATM   16  C16 UNL     1      20.186  20.731  20.463  1.00  0.00     0.040 A
HETATM   17  C17 UNL     1      19.841  19.688  21.294  1.00  0.00     0.105 A
HETATM   18  C24 UNL     1      18.547  19.173  21.179  1.00  0.00     0.099 A
HETATM   19  C25 UNL     1      17.638  19.673  20.280  1.00  0.00     0.046 A
BRANCH  17  20
HETATM   20  O2  UNL     1      20.675  19.130  22.212  1.00  0.00    -0.318 OA
BRANCH  20  21
HETATM   21  C18 UNL     1      20.959  19.550  23.509  1.00  0.00     0.269 C
HETATM   22  C19 UNL     1      20.656  18.473  24.542  1.00  0.00     0.095 C
HETATM   23  C20 UNL     1      21.660  17.359  24.388  1.00  0.00     0.154 C
HETATM   24  C21 UNL     1      23.020  17.901  24.759  1.00  0.00     0.178 C
HETATM   25  C22 UNL     1      22.963  19.415  24.689  1.00  0.00     0.179 C
HETATM   26  O6  UNL     1      22.313  19.852  23.563  1.00  0.00    -0.351 OA
BRANCH  23  27
HETATM   27  O3  UNL     1      21.721  16.954  23.048  1.00  0.00    -0.393 OA
ATOM     28  H3  UNL     1      21.994  16.045  22.997  1.00  0.00     0.210 HD
ENDBRANCH  23  27
BRANCH  24  29
HETATM   29  O4  UNL     1      23.375  17.493  26.045  1.00  0.00    -0.390 OA
ATOM     30  H4  UNL     1      23.749  18.218  26.533  1.00  0.00     0.210 HD
ENDBRANCH  24  29
BRANCH  25  31
HETATM   31  C23 UNL     1      24.422  19.865  24.540  1.00  0.00     0.198 C
BRANCH  31  32
HETATM   32  O5  UNL     1      25.272  18.763  24.520  1.00  0.00    -0.398 OA
ATOM     33  H5  UNL     1      25.887  18.829  23.799  1.00  0.00     0.209 HD
ENDBRANCH  31  32
ENDBRANCH  25  31
ENDBRANCH  20  21
ENDBRANCH  17  20
BRANCH  18  34
HETATM   34  O7  UNL     1      18.201  18.124  22.015  1.00  0.00    -0.358 OA
ATOM     35  H7  UNL     1      18.011  17.286  21.610  1.00  0.00     0.217 HD
ENDBRANCH  18  34
ENDBRANCH  13  14
ENDBRANCH  12  13
ENDBRANCH  11  12
ENDBRANCH  10  11
ENDBRANCH   9  10
ENDBRANCH   7   9
BRANCH   6  36
HETATM   36  C7  UNL     1      11.627  19.520  22.439  1.00  0.00     0.203 C
BRANCH  36  37
HETATM   37  O1  UNL     1      12.445  18.689  23.221  1.00  0.00    -0.396 OA
ATOM     38  H1  UNL     1      12.527  17.841  22.801  1.00  0.00     0.209 HD
ENDBRANCH  36  37
ENDBRANCH   6  36
TORSDOF 15
ENDMDL