MODEL 3
REMARK VINA RESULT: -8.473824179      1.625      2.800
REMARK  14 active torsions:
REMARK  status: ('A' for Active; 'I' for Inactive)
REMARK    1  A    between atoms: S1_2  and  N1_4
REMARK    2  A    between atoms: S1_2  and  C19_32
REMARK    3  A    between atoms: N1_4  and  C1_6
REMARK    4  A    between atoms: C1_6  and  O3_7
REMARK    5  A    between atoms: C1_6  and  C2_9
REMARK    6  A    between atoms: C2_9  and  O4_10
REMARK    7  A    between atoms: C2_9  and  C3_12
REMARK    8  A    between atoms: C3_12  and  O5_13
REMARK    9  A    between atoms: C3_12  and  C4_15
REMARK   10  A    between atoms: C4_15  and  O6_16
REMARK   11  A    between atoms: C4_15  and  C5_18
REMARK   12  A    between atoms: C5_18  and  C6_19
REMARK   13  A    between atoms: C6_19  and  C7_20
REMARK   14  A    between atoms: C6_19  and  C13_26
ROOT
HETATM    1  C3  UNL     1      17.600  20.587  21.580  1.00  0.00     0.179 C
ENDROOT
BRANCH   1   2
HETATM    2  C2  UNL     1      16.443  20.621  20.645  1.00  0.00     0.198 C
BRANCH   2   3
HETATM    3  C1  UNL     1      16.126  22.090  20.318  1.00  0.00     0.259 C
BRANCH   3   4
HETATM    4  N1  UNL     1      15.274  22.593  21.343  1.00  0.00    -0.285 N
ATOM      5  H1  UNL     1      15.623  22.924  22.242  1.00  0.00     0.175 HD
BRANCH   4   6
HETATM    6  S1  UNL     1      13.611  22.592  20.935  1.00  0.00     0.267 S
HETATM    7  O1  UNL     1      13.187  21.419  20.134  1.00  0.00    -0.200 OA
HETATM    8  O2  UNL     1      13.331  23.835  20.131  1.00  0.00    -0.200 OA
BRANCH   6   9
HETATM    9  C19 UNL     1      12.598  22.706  22.382  1.00  0.00     0.120 A
HETATM   10  C20 UNL     1      12.494  23.798  23.203  1.00  0.00     0.033 A
HETATM   11  C21 UNL     1      11.671  23.698  24.258  1.00  0.00     0.009 A
HETATM   12  C22 UNL     1      11.004  22.510  24.423  1.00  0.00     0.051 A
HETATM   13  S2  UNL     1      11.549  21.580  23.103  1.00  0.00    -0.088 SA
ENDBRANCH   6   9
ENDBRANCH   4   6
ENDBRANCH   3   4
BRANCH   3  14
HETATM   14  O3  UNL     1      15.592  22.213  19.040  1.00  0.00    -0.373 OA
ATOM     15  H3  UNL     1      14.929  22.891  18.968  1.00  0.00     0.212 HD
ENDBRANCH   3  14
ENDBRANCH   2   3
BRANCH   2  16
HETATM   16  O4  UNL     1      16.793  19.932  19.491  1.00  0.00    -0.388 OA
ATOM     17  H4  UNL     1      16.684  20.488  18.727  1.00  0.00     0.210 HD
ENDBRANCH   2  16
ENDBRANCH   1   2
BRANCH   1  18
HETATM   18  O5  UNL     1      18.213  21.789  21.826  1.00  0.00    -0.390 OA
ATOM     19  H5  UNL     1      18.556  21.912  22.703  1.00  0.00     0.210 HD
ENDBRANCH   1  18
BRANCH   1  20
HETATM   20  C4  UNL     1      17.243  19.970  22.948  1.00  0.00     0.150 C
BRANCH  20  21
HETATM   21  O6  UNL     1      15.888  19.949  23.009  1.00  0.00    -0.393 OA
ATOM     22  H6  UNL     1      15.660  20.236  23.885  1.00  0.00     0.210 HD
ENDBRANCH  20  21
BRANCH  20  23
HETATM   23  C5  UNL     1      17.998  18.714  23.059  1.00  0.00     0.048 C
BRANCH  23  24
HETATM   24  C6  UNL     1      19.467  18.731  23.182  1.00  0.00     0.054 C
BRANCH  24  25
HETATM   25  C7  UNL     1      20.229  17.549  22.820  1.00  0.00    -0.050 A
HETATM   26  C8  UNL     1      21.193  16.947  23.596  1.00  0.00     0.008 A
HETATM   27  C9  UNL     1      21.864  15.834  23.180  1.00  0.00     0.001 A
HETATM   28  C10 UNL     1      21.624  15.240  21.959  1.00  0.00     0.000 A
HETATM   29  C11 UNL     1      20.672  15.819  21.172  1.00  0.00     0.001 A
HETATM   30  C12 UNL     1      19.982  16.959  21.596  1.00  0.00     0.008 A
ENDBRANCH  24  25
BRANCH  24  31
HETATM   31  C13 UNL     1      19.927  19.222  24.518  1.00  0.00    -0.050 A
HETATM   32  C14 UNL     1      20.885  20.216  24.669  1.00  0.00     0.008 A
HETATM   33  C15 UNL     1      21.307  20.656  25.888  1.00  0.00     0.001 A
HETATM   34  C16 UNL     1      20.794  20.125  27.045  1.00  0.00     0.000 A
HETATM   35  C17 UNL     1      19.842  19.137  26.934  1.00  0.00     0.001 A
HETATM   36  C18 UNL     1      19.427  18.704  25.691  1.00  0.00     0.008 A
ENDBRANCH  24  31
ENDBRANCH  23  24
ENDBRANCH  20  23
ENDBRANCH   1  20
TORSDOF 14
ENDMDL