MODEL 4
REMARK VINA RESULT: -6.930872525      1.762      3.230
REMARK  15 active torsions:
REMARK  status: ('A' for Active; 'I' for Inactive)
REMARK    1  A    between atoms: C2_2  and  C3_3
REMARK    2  A    between atoms: C4_4  and  C5_5
REMARK    3  A    between atoms: C5_5  and  C6_6
REMARK    4  A    between atoms: C5_5  and  C8_8
REMARK    5  A    between atoms: C5_5  and  C13_13
REMARK    6  A    between atoms: C8_8  and  C9_9
REMARK    7  A    between atoms: C13_13  and  C14_14
REMARK    8  A    between atoms: C14_14  and  O2_16
REMARK    9  A    between atoms: O2_16  and  C15_17
REMARK   10  A    between atoms: C15_17  and  C16_18
REMARK   11  A    between atoms: C18_20  and  N1_21
REMARK       I    between atoms: N1_21  and  C19_23
REMARK   12  A    between atoms: C21_26  and  O4_27
REMARK   13  A    between atoms: C22_29  and  O5_30
REMARK   14  A    between atoms: C23_32  and  O6_33
REMARK   15  A    between atoms: C24_35  and  O7_36
ROOT
HETATM    1  C16 UNL     1      17.034  19.906  20.406  1.00  0.00     0.043 C
HETATM    2  C17 UNL     1      15.777  19.643  19.651  1.00  0.00     0.037 C
HETATM    3  C18 UNL     1      15.231  20.796  18.859  1.00  0.00     0.116 C
HETATM    4  C21 UNL     1      14.406  21.704  19.734  1.00  0.00     0.172 C
HETATM    5  C22 UNL     1      15.141  22.365  20.839  1.00  0.00     0.180 C
HETATM    6  C23 UNL     1      15.649  21.415  21.901  1.00  0.00     0.178 C
HETATM    7  C24 UNL     1      16.986  20.896  21.488  1.00  0.00     0.155 C
ENDROOT
BRANCH   1   8
HETATM    8  C15 UNL     1      17.592  18.554  20.806  1.00  0.00     0.185 C
BRANCH   8   9
HETATM    9  O2  UNL     1      18.985  18.578  20.981  1.00  0.00    -0.321 OA
BRANCH   9  10
HETATM   10  C14 UNL     1      19.563  17.632  21.863  1.00  0.00     0.259 C
HETATM   11  O1  UNL     1      19.402  16.451  21.481  1.00  0.00    -0.265 OA
BRANCH  10  12
HETATM   12  C13 UNL     1      20.259  18.045  23.070  1.00  0.00     0.124 C
BRANCH  12  13
HETATM   13  C5  UNL     1      19.765  17.543  24.396  1.00  0.00    -0.011 C
BRANCH  13  14
HETATM   14  C4  UNL     1      20.253  18.665  25.346  1.00  0.00    -0.020 C
HETATM   15  C3  UNL     1      20.505  19.884  24.973  1.00  0.00    -0.030 C
BRANCH  15  16
HETATM   16  C2  UNL     1      20.978  20.931  25.946  1.00  0.00     0.022 C
HETATM   17  C1  UNL     1      20.973  20.378  27.352  1.00  0.00     0.009 C
ENDBRANCH  15  16
ENDBRANCH  13  14
BRANCH  13  18
HETATM   18  C6  UNL     1      20.383  16.308  24.912  1.00  0.00     0.010 C
HETATM   19  C7  UNL     1      21.315  16.314  26.044  1.00  0.00     0.006 C
ENDBRANCH  13  18
BRANCH  13  20
HETATM   20  C8  UNL     1      18.278  17.657  24.467  1.00  0.00     0.041 C
BRANCH  20  21
HETATM   21  C9  UNL     1      17.642  16.576  25.214  1.00  0.00    -0.024 C
HETATM   22  C10 UNL     1      16.705  15.819  24.684  1.00  0.00    -0.091 C
HETATM   23  C11 UNL     1      16.067  14.701  25.487  1.00  0.00     0.042 C
HETATM   24  C12 UNL     1      16.223  16.038  23.301  1.00  0.00     0.042 C
ENDBRANCH  20  21
ENDBRANCH  13  20
ENDBRANCH  12  13
ENDBRANCH  10  12
ENDBRANCH   9  10
ENDBRANCH   8   9
ENDBRANCH   1   8
BRANCH   7  25
HETATM   25  O7  UNL     1      17.615  20.414  22.660  1.00  0.00    -0.392 OA
ATOM     26  H7  UNL     1      18.021  21.118  23.153  1.00  0.00     0.210 HD
ENDBRANCH   7  25
BRANCH   3  27
HETATM   27  N1  UNL     1      16.177  21.452  18.027  1.00  0.00    -0.354 N
HETATM   28  C19 UNL     1      15.880  21.820  16.709  1.00  0.00     0.214 C
HETATM   29  C20 UNL     1      16.810  22.504  15.788  1.00  0.00     0.117 C
HETATM   30  O3  UNL     1      14.726  21.555  16.248  1.00  0.00    -0.274 OA
ATOM     31  H1  UNL     1      17.102  21.662  18.401  1.00  0.00     0.162 HD
ENDBRANCH   3  27
BRANCH   6  32
HETATM   32  O6  UNL     1      14.742  20.479  22.311  1.00  0.00    -0.390 OA
ATOM     33  H6  UNL     1      15.120  19.721  22.740  1.00  0.00     0.210 HD
ENDBRANCH   6  32
BRANCH   4  34
HETATM   34  O4  UNL     1      13.778  22.684  18.970  1.00  0.00    -0.391 OA
ATOM     35  H4  UNL     1      13.781  23.517  19.427  1.00  0.00     0.210 HD
ENDBRANCH   4  34
BRANCH   5  36
HETATM   36  O5  UNL     1      16.161  23.183  20.419  1.00  0.00    -0.390 OA
ATOM     37  H5  UNL     1      16.960  23.093  20.924  1.00  0.00     0.210 HD
ENDBRANCH   5  36
TORSDOF 15
ENDMDL