MODEL 1
REMARK VINA RESULT: -8.068252860      0.000      0.000
REMARK  15 active torsions:
REMARK  status: ('A' for Active; 'I' for Inactive)
REMARK    1  A    between atoms: C2_2  and  C3_3
REMARK    2  A    between atoms: C3_3  and  C4_4
REMARK    3  A    between atoms: C4_4  and  C5_5
REMARK    4  A    between atoms: C5_5  and  C6_6
REMARK    5  A    between atoms: C6_6  and  C7_7
REMARK    6  A    between atoms: C7_7  and  C8_8
REMARK    7  A    between atoms: C8_8  and  C9_9
REMARK    8  A    between atoms: C9_9  and  C10_10
REMARK    9  A    between atoms: C10_10  and  C11_11
REMARK   10  A    between atoms: C11_11  and  C12_12
REMARK   11  A    between atoms: C18_21  and  O3_22
REMARK   12  A    between atoms: C19_24  and  O4_25
REMARK   13  A    between atoms: C20_27  and  O5_28
REMARK   14  A    between atoms: C21_30  and  O6_31
REMARK   15  A    between atoms: C24_35  and  O7_36
ROOT
HETATM    1  C5  UNL     1      17.531  19.525  21.217  1.00  0.00     0.100 C
HETATM    2  O1  UNL     1      17.059  19.664  19.861  1.00  0.00    -0.290 OA
HETATM    3  C16 UNL     1      16.039  20.556  19.617  1.00  0.00     0.364 C
HETATM    4  O2  UNL     1      15.525  20.688  18.449  1.00  0.00    -0.238 OA
HETATM    5  N1  UNL     1      15.550  21.344  20.690  1.00  0.00    -0.318 N
HETATM    6  C17 UNL     1      15.277  22.634  20.034  1.00  0.00     0.163 C
HETATM    7  C18 UNL     1      14.833  23.585  21.124  1.00  0.00     0.167 C
HETATM    8  C19 UNL     1      13.327  23.602  21.269  1.00  0.00     0.179 C
HETATM    9  C20 UNL     1      12.821  22.495  22.132  1.00  0.00     0.178 C
HETATM   10  C21 UNL     1      13.010  21.119  21.554  1.00  0.00     0.151 C
HETATM   11  C22 UNL     1      14.054  20.385  22.312  1.00  0.00     0.062 C
HETATM   12  C23 UNL     1      15.475  20.744  21.991  1.00  0.00     0.123 C
HETATM   13  C24 UNL     1      16.357  19.524  22.109  1.00  0.00     0.176 C
ENDROOT
BRANCH   1  14
HETATM   14  C4  UNL     1      18.424  20.686  21.451  1.00  0.00     0.041 C
BRANCH  14  15
HETATM   15  C3  UNL     1      19.897  20.452  21.240  1.00  0.00     0.003 C
BRANCH  15  16
HETATM   16  C2  UNL     1      20.319  21.577  20.263  1.00  0.00    -0.004 C
HETATM   17  C1  UNL     1      20.157  21.131  18.842  1.00  0.00     0.005 C
ENDBRANCH  15  16
ENDBRANCH  14  15
ENDBRANCH   1  14
BRANCH   1  18
HETATM   18  C6  UNL     1      18.289  18.209  21.216  1.00  0.00     0.041 C
BRANCH  18  19
HETATM   19  C7  UNL     1      17.541  17.129  21.947  1.00  0.00     0.003 C
BRANCH  19  20
HETATM   20  C8  UNL     1      18.457  16.420  22.923  1.00  0.00     0.000 C
BRANCH  20  21
HETATM   21  C9  UNL     1      19.702  17.169  23.227  1.00  0.00     0.000 C
BRANCH  21  22
HETATM   22  C10 UNL     1      19.657  17.686  24.641  1.00  0.00     0.001 C
BRANCH  22  23
HETATM   23  C11 UNL     1      19.841  19.162  24.684  1.00  0.00     0.008 C
BRANCH  23  24
HETATM   24  C12 UNL     1      21.147  19.569  25.340  1.00  0.00    -0.051 C
HETATM   25  C13 UNL     1      22.136  19.871  24.231  1.00  0.00     0.014 C
HETATM   26  C14 UNL     1      21.708  18.417  26.148  1.00  0.00     0.014 C
HETATM   27  C15 UNL     1      20.986  20.777  26.228  1.00  0.00     0.014 C
ENDBRANCH  23  24
ENDBRANCH  22  23
ENDBRANCH  21  22
ENDBRANCH  20  21
ENDBRANCH  19  20
ENDBRANCH  18  19
ENDBRANCH   1  18
BRANCH  13  28
HETATM   28  O7  UNL     1      16.734  19.275  23.415  1.00  0.00    -0.390 OA
ATOM     29  H7  UNL     1      16.515  18.385  23.665  1.00  0.00     0.210 HD
ENDBRANCH  13  28
BRANCH  10  30
HETATM   30  O6  UNL     1      11.801  20.412  21.761  1.00  0.00    -0.393 OA
ATOM     31  H6  UNL     1      11.841  20.040  22.634  1.00  0.00     0.210 HD
ENDBRANCH  10  30
BRANCH   7  32
HETATM   32  O3  UNL     1      15.246  24.864  20.791  1.00  0.00    -0.391 OA
ATOM     33  H3  UNL     1      14.479  25.398  20.624  1.00  0.00     0.210 HD
ENDBRANCH   7  32
BRANCH   9  34
HETATM   34  O5  UNL     1      11.466  22.744  22.377  1.00  0.00    -0.390 OA
ATOM     35  H5  UNL     1      11.046  21.905  22.527  1.00  0.00     0.210 HD
ENDBRANCH   9  34
BRANCH   8  36
HETATM   36  O4  UNL     1      12.706  23.574  20.029  1.00  0.00    -0.390 OA
ATOM     37  H4  UNL     1      11.771  23.718  20.111  1.00  0.00     0.210 HD
ENDBRANCH   8  36
TORSDOF 15
ENDMDL