MODEL 3
REMARK VINA RESULT: -7.848321470      1.413      2.271
REMARK  14 active torsions:
REMARK  status: ('A' for Active; 'I' for Inactive)
REMARK    1  A    between atoms: C2_2  and  N6_27
REMARK    2  A    between atoms: N1_3  and  C3_5
REMARK    3  A    between atoms: C3_5  and  C4_6
REMARK    4  A    between atoms: C4_6  and  N2_7
REMARK    5  A    between atoms: N2_7  and  C5_8
REMARK    6  A    between atoms: C6_11  and  C7_12
REMARK    7  A    between atoms: C10_15  and  O1_16
REMARK    8  A    between atoms: O1_16  and  C11_17
REMARK    9  A    between atoms: N6_27  and  C18_29
REMARK   10  A    between atoms: C20_33  and  N8_34
REMARK   11  A    between atoms: N8_34  and  C21_36
REMARK   12  A    between atoms: C21_36  and  C22_37
REMARK   13  A    between atoms: C22_37  and  C23_38
REMARK   14  A    between atoms: C23_38  and  N9_39
ROOT
HETATM    1  C11 UNL     1      10.910  22.949  24.216  1.00  0.00     0.299 C
HETATM    2  C12 UNL     1      11.508  24.182  24.656  1.00  0.00     0.085 C
HETATM    3  N4  UNL     1      11.972  25.183  24.999  1.00  0.00    -0.195 NA
ENDROOT
BRANCH   1   4
HETATM    4  O1  UNL     1      11.229  22.584  22.919  1.00  0.00    -0.338 OA
BRANCH   4   5
HETATM    5  C10 UNL     1      12.473  22.435  22.351  1.00  0.00     0.070 A
HETATM    6  C9  UNL     1      13.032  21.163  22.356  1.00  0.00     0.038 A
HETATM    7  C8  UNL     1      14.274  20.927  21.808  1.00  0.00     0.018 A
HETATM    8  C7  UNL     1      15.014  21.942  21.230  1.00  0.00     0.008 A
HETATM    9  C14 UNL     1      14.465  23.193  21.224  1.00  0.00     0.018 A
HETATM   10  C13 UNL     1      13.201  23.443  21.781  1.00  0.00     0.038 A
BRANCH   8  11
HETATM   11  C6  UNL     1      16.336  21.675  20.644  1.00  0.00     0.117 A
HETATM   12  N3  UNL     1      17.297  21.146  21.406  1.00  0.00    -0.316 N
HETATM   13  C5  UNL     1      18.564  20.853  20.959  1.00  0.00     0.186 A
ATOM     14  H3  UNL     1      17.077  20.947  22.382  1.00  0.00     0.170 HD
HETATM   15  C16 UNL     1      18.860  21.130  19.612  1.00  0.00     0.012 A
HETATM   16  C15 UNL     1      17.863  21.671  18.849  1.00  0.00     0.101 A
HETATM   17  C17 UNL     1      20.202  20.844  19.036  1.00  0.00     0.055 C
HETATM   18  N5  UNL     1      16.649  21.928  19.368  1.00  0.00    -0.351 N
ATOM     19  H5  UNL     1      15.935  22.333  18.762  1.00  0.00     0.166 HD
BRANCH  13  20
HETATM   20  N2  UNL     1      19.429  20.371  21.648  1.00  0.00    -0.402 NA
BRANCH  20  21
HETATM   21  C4  UNL     1      20.212  19.809  22.569  1.00  0.00     0.177 C
BRANCH  21  22
HETATM   22  C3  UNL     1      19.648  19.681  23.984  1.00  0.00     0.180 C
BRANCH  22  23
HETATM   23  N1  UNL     1      18.628  18.661  24.070  1.00  0.00    -0.374 N
HETATM   24  C2  UNL     1      18.429  17.986  25.150  1.00  0.00     0.074 C
HETATM   25  C1  UNL     1      19.237  18.216  26.376  1.00  0.00     0.089 C
ATOM     26  H1  UNL     1      18.049  18.469  23.252  1.00  0.00     0.161 HD
BRANCH  24  27
HETATM   27  N6  UNL     1      17.419  16.975  25.209  1.00  0.00    -0.331 N
ATOM     28  H6  UNL     1      17.070  16.643  26.108  1.00  0.00     0.168 HD
BRANCH  27  29
HETATM   29  C18 UNL     1      16.911  16.441  23.999  1.00  0.00     0.138 A
HETATM   30  C19 UNL     1      17.575  15.557  23.184  1.00  0.00     0.155 A
HETATM   31  N7  UNL     1      16.787  15.276  22.134  1.00  0.00    -0.198 N
HETATM   32  C20 UNL     1      15.632  15.971  22.281  1.00  0.00     0.679 A
ATOM     33  H7  UNL     1      17.016  14.649  21.363  1.00  0.00     0.183 HD
HETATM   34  N10 UNL     1      15.719  16.679  23.420  1.00  0.00    -0.175 N
ATOM     35  H10 UNL     1      14.996  17.298  23.788  1.00  0.00     0.186 HD
BRANCH  32  36
HETATM   36  N8  UNL     1      14.650  15.927  21.439  1.00  0.00    -0.226 N
ATOM     37  H8  UNL     1      14.712  16.461  20.572  1.00  0.00     0.177 HD
BRANCH  36  38
HETATM   38  C21 UNL     1      13.474  15.142  21.700  1.00  0.00     0.139 C
BRANCH  38  39
HETATM   39  C22 UNL     1      12.849  14.744  20.376  1.00  0.00     0.047 C
BRANCH  39  40
HETATM   40  C23 UNL     1      11.354  14.762  20.442  1.00  0.00     0.231 C
BRANCH  40  41
HETATM   41  N9  UNL     1      10.924  15.897  21.236  1.00  0.00    -0.079 N
ATOM     42  H93 UNL     1      11.050  15.740  22.236  1.00  0.00     0.274 HD
ATOM     43  H92 UNL     1      11.548  16.698  21.137  1.00  0.00     0.274 HD
ATOM     44  H91 UNL     1       9.959  16.127  21.000  1.00  0.00     0.274 HD
ENDBRANCH  40  41
ENDBRANCH  39  40
ENDBRANCH  38  39
ENDBRANCH  36  38
ENDBRANCH  32  36
ENDBRANCH  27  29
ENDBRANCH  24  27
ENDBRANCH  22  23
ENDBRANCH  21  22
ENDBRANCH  20  21
ENDBRANCH  13  20
ENDBRANCH   8  11
ENDBRANCH   4   5
ENDBRANCH   1   4
TORSDOF 14
ENDMDL