MODEL 1
REMARK VINA RESULT: -7.978633524      0.000      0.000
REMARK  12 active torsions:
REMARK  status: ('A' for Active; 'I' for Inactive)
REMARK    1  A    between atoms: C2_2  and  C3_3
REMARK    2  A    between atoms: C3_3  and  C4_4
REMARK    3  A    between atoms: C4_4  and  C5_5
REMARK    4  A    between atoms: C5_5  and  N1_6
REMARK    5  A    between atoms: N4_20  and  C14_21
REMARK    6  A    between atoms: C15_23  and  C16_24
REMARK    7  A    between atoms: C16_24  and  N5_25
REMARK       I    between atoms: N5_25  and  C17_27
REMARK       I    between atoms: C17_27  and  N6_29
REMARK    8  A    between atoms: N6_29  and  C18_31
REMARK    9  A    between atoms: C18_31  and  C19_32
REMARK   10  A    between atoms: C19_32  and  C20_33
REMARK   11  A    between atoms: C22_35  and  O3_36
REMARK   12  A    between atoms: C23_38  and  O4_39
ROOT
HETATM    1  N1  UNL     1      21.478  18.786  23.275  1.00  0.00    -0.374 N
ATOM      2  H1  UNL     1      21.840  19.528  22.674  1.00  0.00     0.161 HD
HETATM    3  C6  UNL     1      20.241  18.417  23.146  1.00  0.00     0.131 A
HETATM    4  N2  UNL     1      19.669  17.473  23.867  1.00  0.00    -0.344 N
ATOM      5  H2  UNL     1      20.198  16.974  24.583  1.00  0.00     0.167 HD
HETATM    6  C7  UNL     1      18.381  17.178  23.645  1.00  0.00     0.015 A
HETATM    7  C8  UNL     1      17.737  16.103  24.469  1.00  0.00     0.069 C
HETATM    8  C9  UNL     1      17.598  17.814  22.689  1.00  0.00    -0.010 A
HETATM    9  C10 UNL     1      16.190  17.457  22.479  1.00  0.00     0.052 C
HETATM   10  C11 UNL     1      18.183  18.794  21.937  1.00  0.00     0.076 A
HETATM   11  C12 UNL     1      19.510  19.085  22.179  1.00  0.00     0.105 A
HETATM   12  N3  UNL     1      19.831  20.069  21.318  1.00  0.00    -0.347 N
ATOM     13  H3  UNL     1      20.743  20.517  21.235  1.00  0.00     0.167 HD
HETATM   14  C13 UNL     1      18.751  20.356  20.594  1.00  0.00     0.186 A
HETATM   15  N4  UNL     1      17.700  19.563  20.968  1.00  0.00    -0.310 N
ENDROOT
BRANCH  15  16
HETATM   16  C14 UNL     1      16.420  19.659  20.356  1.00  0.00     0.261 C
HETATM   17  O1  UNL     1      15.701  20.609  21.136  1.00  0.00    -0.354 OA
HETATM   18  C15 UNL     1      15.224  21.581  20.354  1.00  0.00     0.173 C
HETATM   19  C22 UNL     1      15.928  21.607  19.042  1.00  0.00     0.181 C
HETATM   20  C23 UNL     1      16.481  20.234  18.949  1.00  0.00     0.198 C
BRANCH  18  21
HETATM   21  C16 UNL     1      13.725  21.421  20.224  1.00  0.00     0.159 C
BRANCH  21  22
HETATM   22  N5  UNL     1      13.084  21.032  21.434  1.00  0.00    -0.341 N
HETATM   23  C17 UNL     1      12.282  21.960  22.137  1.00  0.00     0.316 C
HETATM   24  O2  UNL     1      12.135  23.118  21.699  1.00  0.00    -0.247 OA
HETATM   25  N6  UNL     1      11.616  21.606  23.366  1.00  0.00    -0.343 N
ATOM     26  H6  UNL     1      11.706  20.672  23.767  1.00  0.00     0.164 HD
ATOM     27  H5  UNL     1      13.203  20.085  21.793  1.00  0.00     0.164 HD
BRANCH  25  28
HETATM   28  C18 UNL     1      10.832  22.603  23.999  1.00  0.00     0.124 C
BRANCH  28  29
HETATM   29  C19 UNL     1      11.465  23.444  25.037  1.00  0.00     0.019 C
BRANCH  29  30
HETATM   30  C20 UNL     1      11.163  24.893  25.058  1.00  0.00    -0.003 C
HETATM   31  C21 UNL     1      12.290  25.834  24.841  1.00  0.00     0.005 C
ENDBRANCH  29  30
ENDBRANCH  28  29
ENDBRANCH  25  28
ENDBRANCH  21  22
ENDBRANCH  18  21
BRANCH  19  32
HETATM   32  O3  UNL     1      16.938  22.563  18.973  1.00  0.00    -0.390 OA
ATOM     33  H3  UNL     1      17.792  22.197  18.779  1.00  0.00     0.210 HD
ENDBRANCH  19  32
BRANCH  20  34
HETATM   34  O4  UNL     1      15.749  19.435  18.048  1.00  0.00    -0.388 OA
ATOM     35  H4  UNL     1      15.877  19.729  17.154  1.00  0.00     0.210 HD
ENDBRANCH  20  34
ENDBRANCH  15  16
BRANCH   1  36
HETATM   36  C5  UNL     1      22.372  18.165  24.263  1.00  0.00     0.121 C
BRANCH  36  37
HETATM   37  C4  UNL     1      22.704  19.088  25.367  1.00  0.00     0.020 C
BRANCH  37  38
HETATM   38  C3  UNL     1      22.143  20.444  25.383  1.00  0.00     0.001 C
BRANCH  38  39
HETATM   39  C2  UNL     1      21.026  20.780  26.283  1.00  0.00    -0.004 C
HETATM   40  C1  UNL     1      20.294  19.626  26.897  1.00  0.00     0.005 C
ENDBRANCH  38  39
ENDBRANCH  37  38
ENDBRANCH  36  37
ENDBRANCH   1  36
TORSDOF 12
ENDMDL