MODEL 5
REMARK VINA RESULT: -6.095547346      1.871      6.835
REMARK  16 active torsions:
REMARK  status: ('A' for Active; 'I' for Inactive)
REMARK    1  A    between atoms: O1_2  and  C2_3
REMARK    2  A    between atoms: C2_3  and  C3_4
REMARK    3  A    between atoms: C4_5  and  O2_6
REMARK    4  A    between atoms: C6_9  and  O3_10
REMARK    5  A    between atoms: C7_12  and  C8_13
REMARK    6  A    between atoms: C9_14  and  C10_15
REMARK    7  A    between atoms: C10_15  and  C11_16
REMARK    8  A    between atoms: C11_16  and  O4_17
REMARK    9  A    between atoms: C11_16  and  C12_19
REMARK   10  A    between atoms: C12_19  and  O5_20
REMARK   11  A    between atoms: C12_19  and  C13_22
REMARK   12  A    between atoms: C13_22  and  C14_24
REMARK   13  A    between atoms: C14_24  and  C16_26
REMARK   14  A    between atoms: C16_26  and  C18_28
REMARK   15  A    between atoms: C18_28  and  C19_29
REMARK   16  A    between atoms: C24_34  and  O7_35
ROOT
HETATM    1  C12 UNL     1      21.731  18.649  24.375  1.00  0.00     0.216 C
ENDROOT
BRANCH   1   2
HETATM    2  C11 UNL     1      20.794  18.592  23.176  1.00  0.00     0.157 C
BRANCH   2   3
HETATM    3  C10 UNL     1      20.710  19.876  22.419  1.00  0.00     0.061 C
BRANCH   3   4
HETATM    4  C9  UNL     1      19.687  19.902  21.362  1.00  0.00    -0.027 C
HETATM    5  C8  UNL     1      18.396  19.732  21.605  1.00  0.00    -0.023 C
BRANCH   5   6
HETATM    6  C7  UNL     1      17.377  19.759  20.538  1.00  0.00     0.045 C
HETATM    7  C3  UNL     1      17.367  21.123  19.902  1.00  0.00     0.048 C
HETATM    8  C4  UNL     1      16.728  21.983  20.965  1.00  0.00     0.127 C
HETATM    9  C5  UNL     1      15.717  21.097  21.627  1.00  0.00     0.064 C
HETATM   10  C6  UNL     1      16.011  19.688  21.186  1.00  0.00     0.128 C
BRANCH   7  11
HETATM   11  C2  UNL     1      16.447  21.112  18.698  1.00  0.00     0.174 C
BRANCH  11  12
HETATM   12  O1  UNL     1      16.766  22.208  17.891  1.00  0.00    -0.395 OA
HETATM   13  C1  UNL     1      16.791  21.834  16.552  1.00  0.00     0.201 C
ENDBRANCH  11  12
ENDBRANCH   7  11
BRANCH   8  14
HETATM   14  O2  UNL     1      16.105  23.111  20.381  1.00  0.00    -0.395 OA
ATOM     15  H2  UNL     1      15.161  23.051  20.466  1.00  0.00     0.210 HD
ENDBRANCH   8  14
BRANCH  10  16
HETATM   16  O3  UNL     1      16.158  18.836  22.303  1.00  0.00    -0.395 OA
ATOM     17  H3  UNL     1      15.761  17.990  22.134  1.00  0.00     0.210 HD
ENDBRANCH  10  16
ENDBRANCH   5   6
ENDBRANCH   3   4
ENDBRANCH   2   3
BRANCH   2  18
HETATM   18  O4  UNL     1      21.023  17.473  22.405  1.00  0.00    -0.392 OA
ATOM     19  H4  UNL     1      21.846  17.473  21.929  1.00  0.00     0.210 HD
ENDBRANCH   2  18
ENDBRANCH   1   2
BRANCH   1  20
HETATM   20  O5  UNL     1      23.018  18.223  23.994  1.00  0.00    -0.385 OA
ATOM     21  H5  UNL     1      23.562  18.113  24.766  1.00  0.00     0.210 HD
ENDBRANCH   1  20
BRANCH   1  22
HETATM   22  C13 UNL     1      21.159  17.772  25.399  1.00  0.00     0.162 C
HETATM   23  O6  UNL     1      21.491  16.575  25.333  1.00  0.00    -0.295 OA
BRANCH  22  24
HETATM   24  C14 UNL     1      20.258  18.179  26.456  1.00  0.00     0.058 C
HETATM   25  C15 UNL     1      20.542  19.667  26.803  1.00  0.00     0.018 C
BRANCH  24  26
HETATM   26  C16 UNL     1      18.776  18.094  26.166  1.00  0.00    -0.007 C
HETATM   27  C17 UNL     1      18.235  19.098  25.235  1.00  0.00     0.011 C
BRANCH  26  28
HETATM   28  C18 UNL     1      18.446  16.672  25.849  1.00  0.00     0.010 C
BRANCH  28  29
HETATM   29  C19 UNL     1      17.502  16.422  24.717  1.00  0.00    -0.004 C
HETATM   30  C20 UNL     1      18.279  15.708  23.635  1.00  0.00     0.032 C
HETATM   31  C21 UNL     1      17.682  14.481  23.115  1.00  0.00    -0.021 C
HETATM   32  C22 UNL     1      16.390  14.263  23.164  1.00  0.00    -0.059 C
HETATM   33  C23 UNL     1      15.792  13.009  22.629  1.00  0.00     0.046 C
HETATM   34  C24 UNL     1      15.525  15.305  23.783  1.00  0.00     0.150 C
HETATM   35  C25 UNL     1      16.238  15.725  25.087  1.00  0.00     0.019 C
HETATM   36  C26 UNL     1      16.406  14.526  25.944  1.00  0.00     0.013 C
BRANCH  34  37
HETATM   37  O7  UNL     1      14.268  14.822  24.095  1.00  0.00    -0.391 OA
ATOM     38  H7  UNL     1      13.891  15.262  24.848  1.00  0.00     0.210 HD
ENDBRANCH  34  37
ENDBRANCH  28  29
ENDBRANCH  26  28
ENDBRANCH  24  26
ENDBRANCH  22  24
ENDBRANCH   1  22
TORSDOF 16
ENDMDL