MODEL 5
REMARK VINA RESULT: -8.740504944      1.318      1.908
REMARK  14 active torsions:
REMARK  status: ('A' for Active; 'I' for Inactive)
REMARK    1  A    between atoms: O1_1  and  C1_3
REMARK    2  A    between atoms: C1_3  and  C2_4
REMARK    3  A    between atoms: C2_4  and  O2_5
REMARK    4  A    between atoms: C2_4  and  C3_7
REMARK    5  A    between atoms: C3_7  and  N1_8
REMARK    6  A    between atoms: N1_8  and  C4_10
REMARK    7  A    between atoms: C4_10  and  C5_11
REMARK    8  A    between atoms: C4_10  and  C21_38
REMARK    9  A    between atoms: C5_11  and  N2_12
REMARK   10  A    between atoms: N2_12  and  C6_13
REMARK   11  A    between atoms: C7_16  and  C8_17
REMARK   12  A    between atoms: C14_25  and  N5_26
REMARK   13  A    between atoms: N5_26  and  C15_28
REMARK   14  A    between atoms: C15_28  and  C16_29
ROOT
HETATM    1  C6  UNL     1      17.205  20.682  20.909  1.00  0.00     0.274 A
HETATM    2  N3  UNL     1      17.148  20.579  19.550  1.00  0.00    -0.301 N
ATOM      3  H3  UNL     1      17.741  19.882  19.101  1.00  0.00     0.171 HD
HETATM    4  C7  UNL     1      16.368  21.332  18.769  1.00  0.00     0.134 A
HETATM    5  N4  UNL     1      15.578  22.256  19.340  1.00  0.00    -0.176 N
ATOM      6  H4  UNL     1      14.973  22.841  18.763  1.00  0.00     0.186 HD
HETATM    7  C14 UNL     1      15.590  22.404  20.660  1.00  0.00     0.683 A
HETATM    8  N7  UNL     1      16.379  21.642  21.435  1.00  0.00    -0.149 N
ATOM      9  H7  UNL     1      16.364  21.781  22.445  1.00  0.00     0.188 HD
ENDROOT
BRANCH   1  10
HETATM   10  N2  UNL     1      17.904  20.007  21.561  1.00  0.00    -0.385 NA
BRANCH  10  11
HETATM   11  C5  UNL     1      18.695  19.237  22.262  1.00  0.00     0.188 C
BRANCH  11  12
HETATM   12  C4  UNL     1      18.606  19.374  23.805  1.00  0.00     0.163 C
BRANCH  12  13
HETATM   13  N1  UNL     1      17.944  18.237  24.289  1.00  0.00    -0.406 N
ATOM     14  H1  UNL     1      17.053  18.348  24.774  1.00  0.00     0.154 HD
BRANCH  13  15
HETATM   15  C3  UNL     1      18.477  16.953  24.121  1.00  0.00     0.148 C
BRANCH  15  16
HETATM   16  C2  UNL     1      18.017  16.111  25.325  1.00  0.00     0.159 C
BRANCH  16  17
HETATM   17  C1  UNL     1      18.846  16.424  26.538  1.00  0.00     0.197 C
BRANCH  17  18
HETATM   18  O1  UNL     1      18.261  17.475  27.236  1.00  0.00    -0.398 OA
ATOM     19  H1  UNL     1      18.926  17.922  27.747  1.00  0.00     0.209 HD
ENDBRANCH  17  18
ENDBRANCH  16  17
BRANCH  16  20
HETATM   20  O2  UNL     1      16.667  16.387  25.583  1.00  0.00    -0.392 OA
ATOM     21  H2  UNL     1      16.218  15.594  25.853  1.00  0.00     0.210 HD
ENDBRANCH  16  20
ENDBRANCH  15  16
ENDBRANCH  13  15
ENDBRANCH  12  13
BRANCH  12  22
HETATM   22  C21 UNL     1      19.944  19.669  24.336  1.00  0.00    -0.030 A
HETATM   23  C22 UNL     1      20.130  20.053  25.646  1.00  0.00     0.009 A
HETATM   24  C23 UNL     1      21.352  20.326  26.224  1.00  0.00     0.001 A
HETATM   25  C24 UNL     1      22.454  20.196  25.395  1.00  0.00     0.000 A
HETATM   26  C25 UNL     1      22.339  19.818  24.089  1.00  0.00     0.001 A
HETATM   27  C26 UNL     1      21.085  19.556  23.562  1.00  0.00     0.009 A
ENDBRANCH  12  22
ENDBRANCH  11  12
ENDBRANCH  10  11
ENDBRANCH   1  10
BRANCH   4  28
HETATM   28  C8  UNL     1      16.417  21.100  17.323  1.00  0.00     0.009 A
HETATM   29  C9  UNL     1      15.704  20.095  16.745  1.00  0.00     0.015 A
HETATM   30  C10 UNL     1      15.778  19.910  15.364  1.00  0.00     0.001 A
HETATM   31  C11 UNL     1      16.578  20.754  14.601  1.00  0.00     0.000 A
HETATM   32  C12 UNL     1      17.288  21.761  15.213  1.00  0.00     0.001 A
HETATM   33  C13 UNL     1      17.224  21.953  16.572  1.00  0.00     0.015 A
ENDBRANCH   4  28
BRANCH   7  34
HETATM   34  N5  UNL     1      14.827  23.303  21.227  1.00  0.00    -0.220 N
ATOM     35  H5  UNL     1      15.205  23.946  21.922  1.00  0.00     0.178 HD
BRANCH  34  36
HETATM   36  C15 UNL     1      13.446  23.362  20.848  1.00  0.00     0.195 C
BRANCH  36  37
HETATM   37  C16 UNL     1      12.589  22.722  21.905  1.00  0.00     0.027 A
HETATM   38  C17 UNL     1      12.056  23.477  22.931  1.00  0.00     0.027 A
HETATM   39  C18 UNL     1      11.266  22.833  23.879  1.00  0.00     0.003 A
HETATM   40  C19 UNL     1      11.022  21.478  23.800  1.00  0.00     0.017 A
HETATM   41  C20 UNL     1      11.587  20.792  22.747  1.00  0.00     0.088 A
HETATM   42  N6  UNL     1      12.364  21.406  21.808  1.00  0.00    -0.368 N
ATOM     43  H6  UNL     1      12.769  20.869  21.041  1.00  0.00     0.165 HD
ENDBRANCH  36  37
ENDBRANCH  34  36
ENDBRANCH   7  34
TORSDOF 14
ENDMDL