MODEL 1
REMARK VINA RESULT: -6.774621855      0.000      0.000
REMARK  14 active torsions:
REMARK  status: ('A' for Active; 'I' for Inactive)
REMARK    1  A    between atoms: C2_2  and  C3_3
REMARK    2  A    between atoms: C3_3  and  C4_4
REMARK    3  A    between atoms: C4_4  and  C5_5
REMARK    4  A    between atoms: C5_5  and  N1_6
REMARK    5  A    between atoms: N1_6  and  C7_8
REMARK    6  A    between atoms: C7_8  and  O1_9
REMARK    7  A    between atoms: O1_9  and  C8_10
REMARK    8  A    between atoms: C8_10  and  C9_11
REMARK    9  A    between atoms: C9_11  and  C10_12
REMARK   10  A    between atoms: C15_17  and  O2_18
REMARK   11  A    between atoms: C17_21  and  O3_22
REMARK   12  A    between atoms: C18_24  and  O4_25
REMARK   13  A    between atoms: C20_28  and  O5_29
REMARK   14  A    between atoms: C21_31  and  O6_32
ROOT
HETATM    1  C10 UNL     1      17.260  16.523  20.981  1.00  0.00    -0.012 C
HETATM    2  C11 UNL     1      16.255  15.701  20.225  1.00  0.00     0.005 C
HETATM    3  C12 UNL     1      15.071  15.397  21.117  1.00  0.00     0.007 C
HETATM    4  C13 UNL     1      13.957  16.375  20.955  1.00  0.00     0.016 C
HETATM    5  C14 UNL     1      12.663  15.709  21.339  1.00  0.00     0.013 C
HETATM    6  C15 UNL     1      14.213  17.641  21.773  1.00  0.00     0.068 C
HETATM    7  C16 UNL     1      12.991  18.483  21.653  1.00  0.00     0.073 C
HETATM    8  C17 UNL     1      13.181  19.682  20.748  1.00  0.00     0.156 C
HETATM    9  C18 UNL     1      14.300  20.495  21.384  1.00  0.00     0.096 C
HETATM   10  C19 UNL     1      14.541  21.779  20.663  1.00  0.00     0.075 C
HETATM   11  C20 UNL     1      16.040  21.816  20.455  1.00  0.00     0.150 C
HETATM   12  C21 UNL     1      16.368  20.350  20.289  1.00  0.00     0.158 C
HETATM   13  C22 UNL     1      15.570  19.735  21.448  1.00  0.00     0.024 C
HETATM   14  C23 UNL     1      16.312  20.107  22.710  1.00  0.00     0.022 C
HETATM   15  C24 UNL     1      15.461  18.270  21.222  1.00  0.00     0.034 C
HETATM   16  C25 UNL     1      16.646  17.595  21.831  1.00  0.00     0.013 C
ENDROOT
BRANCH   1  17
HETATM   17  C9  UNL     1      18.055  15.579  21.853  1.00  0.00     0.031 C
BRANCH  17  18
HETATM   18  C8  UNL     1      18.005  15.953  23.316  1.00  0.00     0.170 C
BRANCH  18  19
HETATM   19  O1  UNL     1      19.227  15.849  23.953  1.00  0.00    -0.362 OA
BRANCH  19  20
HETATM   20  C7  UNL     1      19.673  16.979  24.551  1.00  0.00     0.439 C
BRANCH  20  21
HETATM   21  N1  UNL     1      19.022  18.205  24.329  1.00  0.00     0.107 N
HETATM   22  C6  UNL     1      18.808  18.851  25.620  1.00  0.00     0.312 C
BRANCH  21  23
HETATM   23  C5  UNL     1      19.782  19.198  23.543  1.00  0.00     0.274 C
BRANCH  23  24
HETATM   24  C4  UNL     1      20.277  18.727  22.248  1.00  0.00     0.030 C
BRANCH  24  25
HETATM   25  C3  UNL     1      19.683  19.403  21.068  1.00  0.00     0.001 C
BRANCH  25  26
HETATM   26  C2  UNL     1      20.049  20.788  20.742  1.00  0.00    -0.005 C
HETATM   27  C1  UNL     1      20.038  21.224  19.326  1.00  0.00     0.005 C
ENDBRANCH  25  26
ENDBRANCH  24  25
ENDBRANCH  23  24
ENDBRANCH  21  23
ENDBRANCH  20  21
ENDBRANCH  19  20
ENDBRANCH  18  19
ENDBRANCH  17  18
ENDBRANCH   1  17
BRANCH   6  28
HETATM   28  O2  UNL     1      14.401  17.343  23.124  1.00  0.00    -0.389 OA
ATOM     29  H2  UNL     1      14.504  18.134  23.641  1.00  0.00     0.210 HD
ENDBRANCH   6  28
BRANCH   9  30
HETATM   30  O4  UNL     1      13.875  20.773  22.694  1.00  0.00    -0.386 OA
ATOM     31  H4  UNL     1      14.208  21.639  22.896  1.00  0.00     0.210 HD
ENDBRANCH   9  30
BRANCH  12  32
HETATM   32  O6  UNL     1      15.765  19.929  19.105  1.00  0.00    -0.392 OA
ATOM     33  H6  UNL     1      16.365  20.138  18.399  1.00  0.00     0.210 HD
ENDBRANCH  12  32
BRANCH   8  34
HETATM   34  O3  UNL     1      12.001  20.432  20.831  1.00  0.00    -0.392 OA
ATOM     35  H3  UNL     1      12.232  21.250  21.256  1.00  0.00     0.210 HD
ENDBRANCH   8  34
BRANCH  11  36
HETATM   36  O5  UNL     1      16.304  22.571  19.339  1.00  0.00    -0.393 OA
ATOM     37  H5  UNL     1      16.255  22.005  18.577  1.00  0.00     0.210 HD
ENDBRANCH  11  36
TORSDOF 14
ENDMDL