MODEL 1
REMARK VINA RESULT: -7.320153213      0.000      0.000
REMARK  16 active torsions:
REMARK  status: ('A' for Active; 'I' for Inactive)
REMARK    1  A    between atoms: C2_2  and  C3_3
REMARK    2  A    between atoms: C3_3  and  C4_4
REMARK    3  A    between atoms: C3_3  and  C23_35
REMARK    4  A    between atoms: C4_4  and  O1_5
REMARK    5  A    between atoms: C5_7  and  C6_8
REMARK    6  A    between atoms: C6_8  and  C8_10
REMARK    7  A    between atoms: C8_10  and  C9_11
REMARK    8  A    between atoms: C9_11  and  C10_12
REMARK    9  A    between atoms: C9_11  and  C12_15
REMARK   10  A    between atoms: C10_12  and  O2_13
REMARK   11  A    between atoms: C15_18  and  C17_20
REMARK   12  A    between atoms: C17_20  and  C18_21
REMARK   13  A    between atoms: C18_21  and  O3_22
REMARK   14  A    between atoms: C19_24  and  O4_25
REMARK   15  A    between atoms: C21_28  and  O5_29
REMARK   16  A    between atoms: C22_31  and  O6_32
ROOT
HETATM    1  C12 UNL     1      15.305  20.024  21.155  1.00  0.00     0.132 C
HETATM    2  C13 UNL     1      14.273  20.865  20.509  1.00  0.00     0.036 C
HETATM    3  C14 UNL     1      13.314  19.831  19.956  1.00  0.00     0.041 C
HETATM    4  C15 UNL     1      14.081  18.559  19.958  1.00  0.00     0.072 C
HETATM    5  C16 UNL     1      14.507  18.205  18.558  1.00  0.00     0.047 C
HETATM    6  O7  UNL     1      15.248  18.756  20.682  1.00  0.00    -0.373 OA
ENDROOT
BRANCH   1   7
HETATM    7  C9  UNL     1      16.715  20.634  21.169  1.00  0.00     0.061 C
BRANCH   7   8
HETATM    8  C8  UNL     1      17.742  19.639  20.890  1.00  0.00    -0.011 C
BRANCH   8   9
HETATM    9  C6  UNL     1      19.094  19.710  21.457  1.00  0.00    -0.063 C
HETATM   10  C7  UNL     1      20.088  20.538  20.691  1.00  0.00     0.048 C
BRANCH   9  11
HETATM   11  C5  UNL     1      19.190  19.790  22.924  1.00  0.00     0.038 C
HETATM   12  C4  UNL     1      19.978  19.070  23.641  1.00  0.00     0.048 C
BRANCH  12  13
HETATM   13  C3  UNL     1      20.131  19.099  25.156  1.00  0.00     0.045 C
BRANCH  13  14
HETATM   14  C2  UNL     1      18.677  18.986  25.630  1.00  0.00     0.007 C
HETATM   15  C1  UNL     1      18.387  17.909  26.593  1.00  0.00     0.006 C
ENDBRANCH  13  14
BRANCH  13  16
HETATM   16  C23 UNL     1      20.833  20.317  25.607  1.00  0.00    -0.012 C
HETATM   17  C24 UNL     1      22.339  20.126  25.322  1.00  0.00     0.010 C
HETATM   18  C25 UNL     1      20.765  20.643  27.074  1.00  0.00     0.010 C
ENDBRANCH  13  16
ENDBRANCH  12  13
BRANCH  12  19
HETATM   19  O1  UNL     1      20.829  18.128  23.071  1.00  0.00    -0.365 OA
ATOM     20  H1  UNL     1      20.338  17.466  22.599  1.00  0.00     0.217 HD
ENDBRANCH  12  19
ENDBRANCH   9  11
ENDBRANCH   8   9
ENDBRANCH   7   8
BRANCH   7  21
HETATM   21  C10 UNL     1      16.655  21.881  20.377  1.00  0.00     0.178 C
BRANCH  21  22
HETATM   22  O2  UNL     1      17.365  21.875  19.185  1.00  0.00    -0.395 OA
HETATM   23  C11 UNL     1      16.624  21.731  18.049  1.00  0.00     0.201 C
ENDBRANCH  21  22
ENDBRANCH   7  21
ENDBRANCH   1   7
BRANCH   4  24
HETATM   24  C17 UNL     1      13.298  17.471  20.633  1.00  0.00     0.066 C
HETATM   25  C19 UNL     1      14.158  16.450  21.309  1.00  0.00     0.137 C
HETATM   26  C20 UNL     1      13.404  15.171  21.182  1.00  0.00     0.067 C
HETATM   27  C21 UNL     1      12.645  15.288  19.892  1.00  0.00     0.150 C
HETATM   28  C22 UNL     1      12.335  16.766  19.720  1.00  0.00     0.163 C
BRANCH  24  29
HETATM   29  C18 UNL     1      12.460  18.101  21.730  1.00  0.00     0.181 C
BRANCH  29  30
HETATM   30  O3  UNL     1      13.198  18.025  22.942  1.00  0.00    -0.400 OA
ATOM     31  H3  UNL     1      12.779  18.597  23.575  1.00  0.00     0.209 HD
ENDBRANCH  29  30
ENDBRANCH  24  29
BRANCH  25  32
HETATM   32  O4  UNL     1      15.409  16.271  20.759  1.00  0.00    -0.394 OA
ATOM     33  H4  UNL     1      15.975  15.661  21.219  1.00  0.00     0.210 HD
ENDBRANCH  25  32
BRANCH  27  34
HETATM   34  O5  UNL     1      11.483  14.517  19.890  1.00  0.00    -0.393 OA
ATOM     35  H5  UNL     1      10.932  14.694  20.644  1.00  0.00     0.210 HD
ENDBRANCH  27  34
BRANCH  28  36
HETATM   36  O6  UNL     1      12.383  17.167  18.411  1.00  0.00    -0.392 OA
ATOM     37  H6  UNL     1      12.343  18.107  18.280  1.00  0.00     0.210 HD
ENDBRANCH  28  36
ENDBRANCH   4  24
TORSDOF 16
ENDMDL