MODEL 3
REMARK VINA RESULT: -7.635522255      0.806      1.014
REMARK  12 active torsions:
REMARK  status: ('A' for Active; 'I' for Inactive)
REMARK    1  A    between atoms: C2_2  and  C3_3
REMARK    2  A    between atoms: C3_3  and  C4_4
REMARK    3  A    between atoms: C4_4  and  N1_5
REMARK    4  A    between atoms: N1_5  and  C5_7
REMARK    5  A    between atoms: C7_9  and  N2_10
REMARK    6  A    between atoms: N2_10  and  C8_12
REMARK    7  A    between atoms: N4_16  and  C10_18
REMARK    8  A    between atoms: C10_18  and  C11_19
REMARK    9  A    between atoms: C14_26  and  N7_27
REMARK   10  A    between atoms: N7_27  and  C16_29
REMARK   11  A    between atoms: C16_29  and  C17_30
REMARK   12  A    between atoms: C17_30  and  C18_32
ROOT
HETATM    1  C8  UNL     1      14.804  21.662  21.120  1.00  0.00     0.152 A
HETATM    2  N3  UNL     1      13.946  22.444  21.824  1.00  0.00    -0.174 N
ATOM      3  H3  UNL     1      14.273  23.339  22.188  1.00  0.00     0.186 HD
HETATM    4  C9  UNL     1      12.677  22.066  22.051  1.00  0.00     0.681 A
HETATM    5  N4  UNL     1      11.918  22.858  22.727  1.00  0.00    -0.226 N
ATOM      6  H4  UNL     1      10.950  22.597  22.915  1.00  0.00     0.177 HD
HETATM    7  N5  UNL     1      12.222  20.885  21.580  1.00  0.00    -0.174 N
ATOM      8  H5  UNL     1      11.256  20.615  21.764  1.00  0.00     0.186 HD
HETATM    9  C13 UNL     1      13.009  20.058  20.874  1.00  0.00     0.167 A
HETATM   10  N6  UNL     1      12.837  18.854  20.291  1.00  0.00    -0.173 N
ATOM     11  H6  UNL     1      11.979  18.302  20.287  1.00  0.00     0.186 HD
HETATM   12  C14 UNL     1      13.985  18.521  19.724  1.00  0.00     0.686 A
HETATM   13  N9  UNL     1      14.890  19.498  19.937  1.00  0.00    -0.184 N
ATOM     14  H9  UNL     1      15.855  19.492  19.607  1.00  0.00     0.184 HD
HETATM   15  C21 UNL     1      14.321  20.475  20.652  1.00  0.00     0.138 A
ENDROOT
BRANCH   1  16
HETATM   16  N2  UNL     1      15.988  22.108  20.961  1.00  0.00    -0.340 N
ATOM     17  H2  UNL     1      16.052  23.101  20.739  1.00  0.00     0.167 HD
BRANCH  16  18
HETATM   18  C7  UNL     1      17.204  21.439  21.047  1.00  0.00     0.038 A
HETATM   19  C6  UNL     1      17.497  20.719  22.207  1.00  0.00     0.077 A
HETATM   20  C5  UNL     1      18.699  20.052  22.288  1.00  0.00     0.102 A
HETATM   21  N10 UNL     1      19.582  20.099  21.250  1.00  0.00    -0.352 N
HETATM   22  C23 UNL     1      19.335  20.777  20.125  1.00  0.00     0.092 A
ATOM     23  H10 UNL     1      20.466  19.596  21.335  1.00  0.00     0.166 HD
HETATM   24  C22 UNL     1      18.133  21.451  20.030  1.00  0.00     0.046 A
BRANCH  20  25
HETATM   25  N1  UNL     1      19.027  19.379  23.311  1.00  0.00    -0.376 N
ATOM     26  H1  UNL     1      19.861  18.795  23.269  1.00  0.00     0.161 HD
BRANCH  25  27
HETATM   27  C4  UNL     1      18.264  19.413  24.527  1.00  0.00     0.121 C
BRANCH  27  28
HETATM   28  C3  UNL     1      19.187  19.218  25.726  1.00  0.00     0.019 C
BRANCH  28  29
HETATM   29  C2  UNL     1      20.323  20.234  25.682  1.00  0.00    -0.003 C
HETATM   30  C1  UNL     1      20.782  20.586  27.074  1.00  0.00     0.005 C
ENDBRANCH  28  29
ENDBRANCH  27  28
ENDBRANCH  25  27
ENDBRANCH  20  25
ENDBRANCH  16  18
ENDBRANCH   1  16
BRANCH   5  31
HETATM   31  C10 UNL     1      12.430  24.099  23.211  1.00  0.00     0.137 C
BRANCH  31  32
HETATM   32  C11 UNL     1      11.687  24.566  24.445  1.00  0.00     0.016 C
HETATM   33  C12 UNL     1      12.058  25.986  24.811  1.00  0.00     0.006 C
ENDBRANCH  31  32
ENDBRANCH   5  31
BRANCH  12  34
HETATM   34  N7  UNL     1      14.343  17.327  18.967  1.00  0.00    -0.196 N
HETATM   35  C15 UNL     1      13.255  16.768  18.210  1.00  0.00     0.175 C
BRANCH  34  36
HETATM   36  C16 UNL     1      15.659  16.811  19.016  1.00  0.00     0.131 C
BRANCH  36  37
HETATM   37  C17 UNL     1      16.228  16.217  20.229  1.00  0.00     0.043 C
HETATM   38  N8  UNL     1      16.684  14.834  20.017  1.00  0.00    -0.105 NA
BRANCH  37  39
HETATM   39  C18 UNL     1      17.106  16.927  21.157  1.00  0.00     0.026 C
HETATM   40  C19 UNL     1      16.323  16.914  22.522  1.00  0.00     0.016 C
HETATM   41  C20 UNL     1      18.425  16.353  21.516  1.00  0.00     0.016 C
ENDBRANCH  37  39
ENDBRANCH  36  37
ENDBRANCH  34  36
ENDBRANCH  12  34
TORSDOF 12
ENDMDL