MODEL 3
REMARK VINA RESULT: -7.360710936      1.653      2.570
REMARK  15 active torsions:
REMARK  status: ('A' for Active; 'I' for Inactive)
REMARK    1  A    between atoms: C2_2  and  C3_3
REMARK    2  A    between atoms: C2_2  and  C16_21
REMARK    3  A    between atoms: C3_3  and  C4_4
REMARK    4  A    between atoms: C4_4  and  C5_5
REMARK    5  A    between atoms: C9_10  and  O2_11
REMARK    6  A    between atoms: C14_17  and  C15_18
REMARK    7  A    between atoms: C17_22  and  O5_23
REMARK    8  A    between atoms: C18_26  and  C19_27
REMARK    9  A    between atoms: C19_27  and  C20_28
REMARK   10  A    between atoms: C20_28  and  O7_29
REMARK   11  A    between atoms: C20_28  and  C21_31
REMARK   12  A    between atoms: C21_31  and  C22_32
REMARK   13  A    between atoms: C22_32  and  C23_33
REMARK   14  A    between atoms: C23_33  and  C24_34
REMARK   15  A    between atoms: C24_34  and  O8_35
ROOT
HETATM    1  C1  UNL     1      18.726  20.942  20.007  1.00  0.00     0.019 C
HETATM    2  C2  UNL     1      18.680  20.341  21.125  1.00  0.00    -0.056 C
ENDROOT
BRANCH   2   3
HETATM    3  C3  UNL     1      19.792  19.789  21.831  1.00  0.00     0.007 C
BRANCH   3   4
HETATM    4  C4  UNL     1      19.869  19.403  23.081  1.00  0.00     0.013 C
BRANCH   4   5
HETATM    5  C5  UNL     1      21.095  19.096  23.759  1.00  0.00     0.011 C
HETATM    6  C6  UNL     1      20.314  17.841  24.612  1.00  0.00     0.163 C
HETATM    7  O1  UNL     1      19.706  17.050  23.984  1.00  0.00    -0.292 OA
HETATM    8  C7  UNL     1      20.638  18.126  25.983  1.00  0.00     0.092 C
HETATM    9  C8  UNL     1      19.677  19.075  26.669  1.00  0.00     0.021 C
HETATM   10  C9  UNL     1      22.042  18.647  25.916  1.00  0.00     0.091 C
HETATM   11  C10 UNL     1      22.995  17.480  25.989  1.00  0.00     0.051 C
HETATM   12  C14 UNL     1      22.273  18.800  24.410  1.00  0.00     0.117 C
HETATM   13  C11 UNL     1      23.057  17.546  24.458  1.00  0.00    -0.020 C
HETATM   14  C12 UNL     1      24.568  17.718  24.128  1.00  0.00     0.016 C
HETATM   15  C13 UNL     1      22.608  16.288  23.814  1.00  0.00     0.016 C
BRANCH  10  16
HETATM   16  O2  UNL     1      22.324  19.718  26.707  1.00  0.00    -0.387 OA
ATOM     17  H2  UNL     1      23.113  20.203  26.491  1.00  0.00     0.210 HD
ENDBRANCH  10  16
BRANCH  12  18
HETATM   18  C15 UNL     1      23.344  19.923  24.209  1.00  0.00     0.190 C
HETATM   19  O3  UNL     1      23.419  20.375  23.049  1.00  0.00    -0.647 OA
HETATM   20  O4  UNL     1      24.134  20.383  25.213  1.00  0.00    -0.647 OA
ENDBRANCH  12  18
ENDBRANCH   4   5
ENDBRANCH   3   4
ENDBRANCH   2   3
BRANCH   2  21
HETATM   21  C16 UNL     1      17.320  20.170  21.783  1.00  0.00     0.102 C
HETATM   22  C17 UNL     1      16.757  18.784  21.569  1.00  0.00     0.268 C
HETATM   23  O6  UNL     1      15.943  19.228  20.528  1.00  0.00    -0.354 OA
HETATM   24  C18 UNL     1      16.168  20.550  20.920  1.00  0.00     0.140 C
BRANCH  22  25
HETATM   25  O5  UNL     1      17.672  17.863  21.056  1.00  0.00    -0.370 OA
ATOM     26  H5  UNL     1      17.752  17.066  21.566  1.00  0.00     0.212 HD
ENDBRANCH  22  25
BRANCH  24  27
HETATM   27  C19 UNL     1      14.938  21.026  21.671  1.00  0.00     0.064 C
BRANCH  27  28
HETATM   28  C20 UNL     1      14.275  22.183  20.975  1.00  0.00     0.120 C
BRANCH  28  29
HETATM   29  O7  UNL     1      15.148  23.239  20.725  1.00  0.00    -0.395 OA
ATOM     30  H7  UNL     1      14.977  23.674  19.898  1.00  0.00     0.210 HD
ENDBRANCH  28  29
BRANCH  28  31
HETATM   31  C21 UNL     1      12.966  22.601  21.560  1.00  0.00     0.032 C
BRANCH  31  32
HETATM   32  C22 UNL     1      13.036  24.001  22.150  1.00  0.00     0.004 C
BRANCH  32  33
HETATM   33  C23 UNL     1      12.220  24.107  23.420  1.00  0.00     0.026 C
BRANCH  33  34
HETATM   34  C24 UNL     1      11.450  22.841  23.741  1.00  0.00     0.164 C
BRANCH  34  35
HETATM   35  O8  UNL     1      10.331  23.160  24.494  1.00  0.00    -0.401 OA
ATOM     36  H8  UNL     1       9.556  22.804  24.074  1.00  0.00     0.209 HD
ENDBRANCH  34  35
ENDBRANCH  33  34
ENDBRANCH  32  33
ENDBRANCH  31  32
ENDBRANCH  28  31
ENDBRANCH  27  28
ENDBRANCH  24  27
ENDBRANCH   2  21
TORSDOF 15
ENDMDL