MODEL 5
REMARK VINA RESULT: -7.533447724      1.880      2.819
REMARK  13 active torsions:
REMARK  status: ('A' for Active; 'I' for Inactive)
REMARK    1  A    between atoms: C2_2  and  C3_3
REMARK    2  A    between atoms: C3_3  and  C4_4
REMARK    3  A    between atoms: C4_4  and  C5_5
REMARK    4  A    between atoms: N1_10  and  C9_11
REMARK    5  A    between atoms: C9_11  and  C10_12
REMARK    6  A    between atoms: C10_12  and  N2_13
REMARK    7  A    between atoms: N2_13  and  C11_15
REMARK    8  A    between atoms: C12_18  and  N4_19
REMARK    9  A    between atoms: C15_27  and  C16_28
REMARK   10  A    between atoms: C16_28  and  C17_29
REMARK   11  A    between atoms: C17_29  and  C18_30
REMARK   12  A    between atoms: C18_30  and  O3_32
REMARK   13  A    between atoms: O3_32  and  C19_33
ROOT
HETATM    1  C11 UNL     1      18.863  19.263  22.468  1.00  0.00     0.681 A
HETATM    2  N3  UNL     1      18.931  20.517  22.002  1.00  0.00    -0.176 N
ATOM      3  H3  UNL     1      19.849  20.956  21.920  1.00  0.00     0.186 HD
HETATM    4  C12 UNL     1      17.833  21.237  21.630  1.00  0.00     0.131 A
HETATM    5  C13 UNL     1      16.588  20.677  21.729  1.00  0.00     0.079 A
HETATM    6  C14 UNL     1      15.418  21.355  21.367  1.00  0.00     0.051 A
HETATM    7  N5  UNL     1      15.417  22.511  20.934  1.00  0.00    -0.398 N
ATOM      8  H51 UNL     1      14.565  23.005  20.670  1.00  0.00     0.156 HD
ATOM      9  H52 UNL     1      16.309  22.995  20.833  1.00  0.00     0.156 HD
HETATM   10  C15 UNL     1      14.181  20.682  21.508  1.00  0.00    -0.008 A
HETATM   11  C21 UNL     1      14.158  19.403  21.989  1.00  0.00     0.015 A
HETATM   12  C22 UNL     1      12.828  18.744  22.114  1.00  0.00     0.069 C
HETATM   13  N6  UNL     1      15.301  18.798  22.319  1.00  0.00    -0.344 N
ATOM     14  H6  UNL     1      15.264  17.843  22.674  1.00  0.00     0.167 HD
HETATM   15  C23 UNL     1      16.507  19.402  22.202  1.00  0.00     0.137 A
HETATM   16  N7  UNL     1      17.640  18.724  22.560  1.00  0.00    -0.176 N
ATOM     17  H7  UNL     1      17.550  17.770  22.910  1.00  0.00     0.186 HD
ENDROOT
BRANCH   1  18
HETATM   18  N2  UNL     1      19.949  18.665  22.792  1.00  0.00    -0.224 N
ATOM     19  H2  UNL     1      20.810  19.052  22.406  1.00  0.00     0.177 HD
BRANCH  18  20
HETATM   20  C10 UNL     1      20.089  17.520  23.630  1.00  0.00     0.168 C
BRANCH  20  21
HETATM   21  C9  UNL     1      21.557  17.304  23.914  1.00  0.00     0.296 C
BRANCH  21  22
HETATM   22  N1  UNL     1      22.086  18.083  24.979  1.00  0.00     0.121 N
HETATM   23  C5  UNL     1      22.655  19.348  24.611  1.00  0.00     0.359 C
HETATM   24  O1  UNL     1      22.899  19.914  25.866  1.00  0.00    -0.350 OA
HETATM   25  C6  UNL     1      21.787  19.613  26.648  1.00  0.00     0.148 C
HETATM   26  C7  UNL     1      20.785  20.732  26.546  1.00  0.00     0.041 C
HETATM   27  C8  UNL     1      21.225  18.296  26.097  1.00  0.00     0.307 C
BRANCH  23  28
HETATM   28  C4  UNL     1      23.924  19.126  23.839  1.00  0.00     0.064 C
BRANCH  28  29
HETATM   29  C3  UNL     1      24.854  18.155  24.531  1.00  0.00     0.004 C
BRANCH  29  30
HETATM   30  C2  UNL     1      25.684  17.361  23.573  1.00  0.00    -0.004 C
HETATM   31  C1  UNL     1      24.950  16.228  22.919  1.00  0.00     0.005 C
ENDBRANCH  29  30
ENDBRANCH  28  29
ENDBRANCH  23  28
ENDBRANCH  21  22
ENDBRANCH  20  21
ENDBRANCH  18  20
ENDBRANCH   1  18
BRANCH   4  32
HETATM   32  N4  UNL     1      17.973  22.421  21.197  1.00  0.00    -0.384 N
ATOM     33  H42 UNL     1      18.842  22.931  21.357  1.00  0.00     0.157 HD
ATOM     34  H41 UNL     1      17.212  22.866  20.685  1.00  0.00     0.157 HD
ENDBRANCH   4  32
BRANCH  10  35
HETATM   35  C16 UNL     1      12.944  21.419  21.118  1.00  0.00     0.053 C
BRANCH  35  36
HETATM   36  C17 UNL     1      12.264  21.938  22.342  1.00  0.00     0.116 C
BRANCH  36  37
HETATM   37  C18 UNL     1      12.315  23.440  22.394  1.00  0.00     0.259 C
HETATM   38  O2  UNL     1      13.171  24.095  21.764  1.00  0.00    -0.265 OA
BRANCH  37  39
HETATM   39  O3  UNL     1      11.400  24.150  23.155  1.00  0.00    -0.322 OA
BRANCH  39  40
HETATM   40  C19 UNL     1      11.566  24.306  24.556  1.00  0.00     0.174 C
HETATM   41  C20 UNL     1      12.016  25.737  24.787  1.00  0.00     0.034 C
ENDBRANCH  39  40
ENDBRANCH  37  39
ENDBRANCH  36  37
ENDBRANCH  35  36
ENDBRANCH  10  35
TORSDOF 13
ENDMDL