MODEL 3
REMARK VINA RESULT: -7.987462427      0.984      1.004
REMARK  12 active torsions:
REMARK  status: ('A' for Active; 'I' for Inactive)
REMARK    1  A    between atoms: C5_5  and  N1_6
REMARK    2  A    between atoms: N1_6  and  C6_8
REMARK    3  A    between atoms: C6_8  and  C7_9
REMARK    4  A    between atoms: C7_9  and  C8_10
REMARK    5  A    between atoms: C8_10  and  N2_11
REMARK    6  A    between atoms: C13_20  and  O2_21
REMARK    7  A    between atoms: O2_21  and  C14_22
REMARK    8  A    between atoms: C14_22  and  C15_23
REMARK    9  A    between atoms: C15_23  and  N4_24
REMARK   10  A    between atoms: N4_24  and  C16_27
REMARK   11  A    between atoms: C16_27  and  C17_28
REMARK   12  A    between atoms: C20_32  and  O3_33
ROOT
HETATM    1  N2  UNL     1      15.602  18.513  21.425  1.00  0.00    -0.226 N
ATOM      2  H2  UNL     1      15.476  18.468  20.414  1.00  0.00     0.177 HD
HETATM    3  C9  UNL     1      16.782  18.734  21.896  1.00  0.00     0.681 A
HETATM    4  N3  UNL     1      17.824  18.900  21.020  1.00  0.00    -0.155 N
ATOM      5  H3  UNL     1      17.626  18.836  20.021  1.00  0.00     0.187 HD
HETATM    6  C10 UNL     1      19.079  19.139  21.392  1.00  0.00     0.272 A
HETATM    7  O1  UNL     1      20.017  19.287  20.558  1.00  0.00    -0.267 OA
HETATM    8  C11 UNL     1      19.388  19.232  22.727  1.00  0.00     0.065 A
HETATM    9  C12 UNL     1      20.655  19.486  23.211  1.00  0.00     0.057 A
HETATM   10  C13 UNL     1      20.945  19.587  24.554  1.00  0.00     0.078 A
HETATM   11  C18 UNL     1      19.863  19.413  25.430  1.00  0.00     0.007 A
HETATM   12  C19 UNL     1      20.144  19.517  26.876  1.00  0.00     0.054 C
HETATM   13  C20 UNL     1      18.593  19.159  24.992  1.00  0.00     0.102 A
HETATM   14  C21 UNL     1      18.350  19.066  23.615  1.00  0.00     0.098 A
HETATM   15  N5  UNL     1      17.092  18.826  23.195  1.00  0.00    -0.188 N
ATOM     16  H5  UNL     1      16.353  18.710  23.889  1.00  0.00     0.184 HD
ENDROOT
BRANCH   1  17
HETATM   17  C8  UNL     1      14.468  18.329  22.265  1.00  0.00     0.139 C
BRANCH  17  18
HETATM   18  C7  UNL     1      13.154  18.667  21.575  1.00  0.00     0.040 C
BRANCH  18  19
HETATM   19  C6  UNL     1      13.123  20.148  21.298  1.00  0.00     0.123 C
BRANCH  19  20
HETATM   20  N1  UNL     1      12.003  20.736  21.945  1.00  0.00    -0.376 N
ATOM     21  H1  UNL     1      11.127  20.215  21.899  1.00  0.00     0.161 HD
BRANCH  20  22
HETATM   22  C5  UNL     1      11.970  21.854  22.583  1.00  0.00     0.100 A
HETATM   23  C4  UNL     1      12.766  22.914  22.183  1.00  0.00     0.049 A
HETATM   24  C3  UNL     1      12.779  24.138  22.846  1.00  0.00     0.012 A
HETATM   25  C2  UNL     1      11.974  24.325  23.950  1.00  0.00    -0.046 A
HETATM   26  C1  UNL     1      11.925  25.598  24.730  1.00  0.00     0.049 C
HETATM   27  C22 UNL     1      11.189  23.256  24.333  1.00  0.00     0.096 A
HETATM   28  N6  UNL     1      11.200  22.066  23.660  1.00  0.00    -0.352 N
ATOM     29  H6  UNL     1      10.598  21.311  23.989  1.00  0.00     0.166 HD
ENDBRANCH  20  22
ENDBRANCH  19  20
ENDBRANCH  18  19
ENDBRANCH  17  18
ENDBRANCH   1  17
BRANCH  13  30
HETATM   30  O3  UNL     1      17.520  18.986  25.892  1.00  0.00    -0.358 OA
ATOM     31  H3  UNL     1      17.278  19.662  26.515  1.00  0.00     0.217 HD
ENDBRANCH  13  30
BRANCH  10  32
HETATM   32  O2  UNL     1      22.196  19.841  25.067  1.00  0.00    -0.349 OA
BRANCH  32  33
HETATM   33  C14 UNL     1      23.310  19.923  24.187  1.00  0.00     0.203 C
BRANCH  33  34
HETATM   34  C15 UNL     1      24.304  18.818  24.562  1.00  0.00     0.259 C
BRANCH  34  35
HETATM   35  N4  UNL     1      24.127  17.792  23.559  1.00  0.00    -0.072 N
ATOM     36  H42 UNL     1      23.409  18.066  22.889  1.00  0.00     0.277 HD
ATOM     37  H41 UNL     1      24.936  17.752  22.939  1.00  0.00     0.277 HD
BRANCH  35  38
HETATM   38  C16 UNL     1      23.839  16.481  24.110  1.00  0.00     0.243 C
BRANCH  38  39
HETATM   39  C17 UNL     1      22.344  16.229  24.019  1.00  0.00     0.113 C
HETATM   40  S1  UNL     1      21.634  15.967  25.660  1.00  0.00    -0.096 SA
ENDBRANCH  38  39
ENDBRANCH  35  38
ENDBRANCH  34  35
ENDBRANCH  33  34
ENDBRANCH  32  33
ENDBRANCH  10  32
TORSDOF 12
ENDMDL