MODEL 2
REMARK VINA RESULT: -8.147505938      2.716      8.837
REMARK  15 active torsions:
REMARK  status: ('A' for Active; 'I' for Inactive)
REMARK    1  A    between atoms: C2_2  and  O1_3
REMARK    2  A    between atoms: C2_2  and  C3_5
REMARK    3  A    between atoms: C3_5  and  C4_6
REMARK    4  A    between atoms: C4_6  and  C5_7
REMARK    5  A    between atoms: C4_6  and  C25_37
REMARK    6  A    between atoms: C6_8  and  C7_9
REMARK    7  A    between atoms: C7_9  and  O2_10
REMARK    8  A    between atoms: C7_9  and  C8_12
REMARK    9  A    between atoms: C10_15  and  C11_16
REMARK   10  A    between atoms: C11_16  and  C12_17
REMARK   11  A    between atoms: C13_18  and  C14_19
REMARK   12  A    between atoms: C14_19  and  C15_20
REMARK   13  A    between atoms: C16_23  and  O4_24
REMARK   14  A    between atoms: C23_33  and  O6_35
REMARK   15  A    between atoms: C25_37  and  O7_38
ROOT
HETATM    1  C8  UNL     1      15.268  20.727  20.724  1.00  0.00     0.188 C
HETATM    2  O3  UNL     1      16.265  19.784  21.005  1.00  0.00    -0.373 OA
HETATM    3  C9  UNL     1      17.468  20.338  21.323  1.00  0.00     0.137 C
HETATM    4  C10 UNL     1      18.571  19.299  21.292  1.00  0.00     0.041 C
HETATM    5  C18 UNL     1      19.772  20.127  21.011  1.00  0.00    -0.023 C
HETATM    6  C19 UNL     1      19.429  21.330  20.567  1.00  0.00    -0.023 C
HETATM    7  C20 UNL     1      17.944  21.459  20.496  1.00  0.00     0.037 C
HETATM    8  C21 UNL     1      17.481  21.548  19.106  1.00  0.00     0.014 C
HETATM    9  C22 UNL     1      16.516  20.510  18.647  1.00  0.00     0.041 C
HETATM   10  C23 UNL     1      15.114  20.706  19.232  1.00  0.00     0.083 C
HETATM   11  C24 UNL     1      14.345  19.450  18.857  1.00  0.00     0.049 C
ENDROOT
BRANCH   1  12
HETATM   12  C7  UNL     1      14.031  20.270  21.454  1.00  0.00     0.172 C
BRANCH  12  13
HETATM   13  C6  UNL     1      13.063  21.370  21.677  1.00  0.00     0.004 C
HETATM   14  C5  UNL     1      13.443  22.650  21.706  1.00  0.00    -0.021 C
BRANCH  14  15
HETATM   15  C4  UNL     1      12.546  23.773  21.919  1.00  0.00     0.034 C
BRANCH  15  16
HETATM   16  C3  UNL     1      12.773  24.497  23.208  1.00  0.00     0.042 C
BRANCH  16  17
HETATM   17  C2  UNL     1      11.615  24.592  24.139  1.00  0.00     0.114 C
HETATM   18  C1  UNL     1      11.765  25.824  25.057  1.00  0.00     0.039 C
BRANCH  17  19
HETATM   19  O1  UNL     1      11.547  23.526  25.064  1.00  0.00    -0.396 OA
ATOM     20  H1  UNL     1      11.544  22.762  24.499  1.00  0.00     0.210 HD
ENDBRANCH  17  19
ENDBRANCH  16  17
ENDBRANCH  15  16
BRANCH  15  21
HETATM   21  C25 UNL     1      12.509  24.738  20.746  1.00  0.00     0.172 C
BRANCH  21  22
HETATM   22  O7  UNL     1      12.906  24.069  19.590  1.00  0.00    -0.400 OA
ATOM     23  H7  UNL     1      13.009  24.698  18.885  1.00  0.00     0.209 HD
ENDBRANCH  21  22
ENDBRANCH  15  21
ENDBRANCH  14  15
ENDBRANCH  12  13
BRANCH  12  24
HETATM   24  O2  UNL     1      14.413  19.745  22.686  1.00  0.00    -0.389 OA
ATOM     25  H2  UNL     1      15.355  19.823  22.777  1.00  0.00     0.210 HD
ENDBRANCH  12  24
ENDBRANCH   1  12
BRANCH  10  26
HETATM   26  O6  UNL     1      14.482  21.798  18.707  1.00  0.00    -0.388 OA
ATOM     27  H6  UNL     1      13.979  21.626  17.920  1.00  0.00     0.210 HD
ENDBRANCH  10  26
BRANCH   4  28
HETATM   28  C11 UNL     1      18.697  18.621  22.662  1.00  0.00     0.038 C
BRANCH  28  29
HETATM   29  C12 UNL     1      19.647  19.381  23.497  1.00  0.00    -0.029 C
HETATM   30  C13 UNL     1      19.387  19.560  24.785  1.00  0.00    -0.023 C
BRANCH  30  31
HETATM   31  C14 UNL     1      20.332  20.324  25.646  1.00  0.00     0.110 C
BRANCH  31  32
HETATM   32  C15 UNL     1      21.709  19.725  25.448  1.00  0.00     0.119 C
HETATM   33  N1  UNL     1      22.668  20.268  24.818  1.00  0.00    -0.346 N
HETATM   34  C16 UNL     1      23.832  19.433  24.817  1.00  0.00     0.243 C
ATOM     35  H1  UNL     1      22.616  21.183  24.370  1.00  0.00     0.164 HD
HETATM   36  C17 UNL     1      23.270  18.092  25.224  1.00  0.00     0.230 C
HETATM   37  O5  UNL     1      22.103  18.495  25.932  1.00  0.00    -0.335 OA
BRANCH  34  38
HETATM   38  O4  UNL     1      24.396  19.306  23.545  1.00  0.00    -0.375 OA
ATOM     39  H4  UNL     1      25.178  18.767  23.547  1.00  0.00     0.212 HD
ENDBRANCH  34  38
ENDBRANCH  31  32
ENDBRANCH  30  31
ENDBRANCH  28  29
ENDBRANCH   4  28
TORSDOF 15
ENDMDL