MODEL 1
REMARK VINA RESULT: -8.183902072      0.000      0.000
REMARK  11 active torsions:
REMARK  status: ('A' for Active; 'I' for Inactive)
REMARK    1  A    between atoms: C2_2  and  C3_3
REMARK    2  A    between atoms: C3_3  and  C4_4
REMARK    3  A    between atoms: C4_4  and  C5_5
REMARK    4  A    between atoms: C7_11  and  C8_12
REMARK    5  A    between atoms: C8_12  and  N3_13
REMARK    6  A    between atoms: N3_13  and  C9_15
REMARK    7  A    between atoms: C11_20  and  N5_21
REMARK    8  A    between atoms: C16_28  and  S1_29
REMARK    9  A    between atoms: S1_29  and  N7_30
REMARK   10  A    between atoms: C18_36  and  C19_37
REMARK   11  A    between atoms: C19_37  and  C20_38
ROOT
HETATM    1  C5  UNL     1      18.432  18.169  24.174  1.00  0.00     0.018 A
HETATM    2  N1  UNL     1      17.236  17.631  23.876  1.00  0.00    -0.345 N
ATOM      3  H1  UNL     1      16.743  16.949  24.453  1.00  0.00     0.167 HD
HETATM    4  C6  UNL     1      16.788  18.114  22.720  1.00  0.00     0.118 A
HETATM    5  N2  UNL     1      15.660  17.875  22.025  1.00  0.00    -0.344 N
ATOM      6  H2  UNL     1      14.983  17.210  22.398  1.00  0.00     0.167 HD
HETATM    7  C7  UNL     1      15.398  18.479  20.865  1.00  0.00     0.030 A
HETATM    8  C15 UNL     1      16.327  19.372  20.394  1.00  0.00     0.053 A
HETATM    9  C16 UNL     1      17.541  19.687  21.057  1.00  0.00     0.095 A
HETATM   10  C17 UNL     1      17.750  19.017  22.244  1.00  0.00     0.040 A
HETATM   11  C18 UNL     1      18.805  19.051  23.158  1.00  0.00    -0.020 A
ENDROOT
BRANCH   7  12
HETATM   12  C8  UNL     1      14.167  18.246  20.051  1.00  0.00     0.195 C
BRANCH  12  13
HETATM   13  N3  UNL     1      13.587  19.461  19.574  1.00  0.00    -0.220 N
ATOM     14  H3  UNL     1      13.459  19.618  18.575  1.00  0.00     0.178 HD
BRANCH  13  15
HETATM   15  C9  UNL     1      13.193  20.444  20.514  1.00  0.00     0.681 A
HETATM   16  N4  UNL     1      13.570  21.725  20.375  1.00  0.00    -0.154 N
HETATM   17  C10 UNL     1      13.209  22.683  21.248  1.00  0.00     0.287 A
ATOM     18  H4  UNL     1      14.151  21.982  19.577  1.00  0.00     0.187 HD
HETATM   19  O1  UNL     1      13.604  23.852  21.045  1.00  0.00    -0.265 OA
HETATM   20  C11 UNL     1      12.425  22.391  22.343  1.00  0.00     0.115 A
HETATM   21  C14 UNL     1      12.040  21.060  22.476  1.00  0.00     0.141 A
HETATM   22  N6  UNL     1      12.429  20.143  21.575  1.00  0.00    -0.200 N
ATOM     23  H6  UNL     1      12.130  19.176  21.703  1.00  0.00     0.183 HD
BRANCH  20  24
HETATM   24  N5  UNL     1      12.022  23.352  23.280  1.00  0.00    -0.384 N
HETATM   25  C12 UNL     1      10.948  23.023  24.215  1.00  0.00     0.149 C
HETATM   26  C13 UNL     1      12.620  24.648  23.357  1.00  0.00     0.149 C
ENDBRANCH  20  24
ENDBRANCH  13  15
ENDBRANCH  12  13
ENDBRANCH   7  12
BRANCH   9  27
HETATM   27  S1  UNL     1      18.548  20.946  20.514  1.00  0.00     0.257 S
HETATM   28  O2  UNL     1      19.859  20.700  19.936  1.00  0.00    -0.201 OA
HETATM   29  O3  UNL     1      17.842  21.398  19.176  1.00  0.00    -0.201 OA
BRANCH  27  30
HETATM   30  N7  UNL     1      18.323  22.480  21.316  1.00  0.00    -0.324 N
ATOM     31  H72 UNL     1      18.806  22.701  22.186  1.00  0.00     0.169 HD
ATOM     32  H71 UNL     1      17.683  23.125  20.853  1.00  0.00     0.169 HD
ENDBRANCH  27  30
ENDBRANCH   9  27
BRANCH   1  33
HETATM   33  C4  UNL     1      19.180  17.964  25.439  1.00  0.00     0.057 C
BRANCH  33  34
HETATM   34  C3  UNL     1      19.080  19.259  26.273  1.00  0.00     0.006 C
BRANCH  34  35
HETATM   35  C2  UNL     1      20.425  19.544  26.859  1.00  0.00    -0.004 C
HETATM   36  C1  UNL     1      20.765  21.020  26.586  1.00  0.00     0.005 C
ENDBRANCH  34  35
ENDBRANCH  33  34
ENDBRANCH   1  33
BRANCH  11  37
HETATM   37  C19 UNL     1      20.089  19.708  22.972  1.00  0.00     0.041 C
BRANCH  37  38
HETATM   38  C20 UNL     1      21.316  18.864  23.287  1.00  0.00     0.000 C
HETATM   39  C21 UNL     1      22.524  19.552  23.806  1.00  0.00     0.005 C
ENDBRANCH  37  38
ENDBRANCH  11  37
TORSDOF 11
ENDMDL