MODEL 5
REMARK VINA RESULT: -6.894776566      2.736      6.444
REMARK  15 active torsions:
REMARK  status: ('A' for Active; 'I' for Inactive)
REMARK    1  A    between atoms: C3_3  and  C4_4
REMARK    2  A    between atoms: C5_5  and  C6_6
REMARK    3  A    between atoms: C6_6  and  O1_7
REMARK    4  A    between atoms: C6_6  and  C7_9
REMARK    5  A    between atoms: C9_11  and  O2_12
REMARK    6  A    between atoms: C10_14  and  C11_15
REMARK    7  A    between atoms: C11_15  and  C12_16
REMARK    8  A    between atoms: C13_17  and  O3_18
REMARK    9  A    between atoms: N2_25  and  C17_27
REMARK   10  A    between atoms: C17_27  and  C18_28
REMARK   11  A    between atoms: C18_28  and  C19_29
REMARK   12  A    between atoms: C19_29  and  C20_30
REMARK   13  A    between atoms: C20_30  and  O4_31
REMARK   14  A    between atoms: C21_33  and  O5_34
REMARK   15  A    between atoms: C23_36  and  C24_37
ROOT
HETATM    1  C1  UNL     1      14.958  22.272  21.312  1.00  0.00     0.025 C
HETATM    2  C2  UNL     1      14.533  21.163  20.691  1.00  0.00    -0.016 A
HETATM    3  C3  UNL     1      13.450  20.421  21.117  1.00  0.00     0.008 A
HETATM    4  C9  UNL     1      13.084  19.259  20.383  1.00  0.00     0.089 A
HETATM    5  C10 UNL     1      13.767  18.835  19.254  1.00  0.00     0.033 A
HETATM    6  C21 UNL     1      14.861  19.636  18.874  1.00  0.00     0.096 A
HETATM    7  C23 UNL     1      15.227  20.748  19.559  1.00  0.00     0.054 A
ENDROOT
BRANCH   5   8
HETATM    8  C11 UNL     1      13.478  17.781  18.543  1.00  0.00     0.035 C
BRANCH   8   9
HETATM    9  C12 UNL     1      13.089  16.445  18.885  1.00  0.00     0.042 A
HETATM   10  C13 UNL     1      11.827  15.944  18.582  1.00  0.00     0.081 A
HETATM   11  C14 UNL     1      11.531  14.669  18.987  1.00  0.00     0.054 A
HETATM   12  C15 UNL     1      12.427  13.882  19.673  1.00  0.00     0.092 A
HETATM   13  N1  UNL     1      13.657  14.404  19.955  1.00  0.00    -0.351 N
HETATM   14  C16 UNL     1      14.016  15.636  19.593  1.00  0.00     0.117 A
ATOM     15  H1  UNL     1      14.328  13.829  20.463  1.00  0.00     0.166 HD
HETATM   16  N2  UNL     1      15.111  16.148  19.825  1.00  0.00    -0.355 N
ATOM     17  H2  UNL     1      15.088  17.087  19.429  1.00  0.00     0.166 HD
BRANCH  10  18
HETATM   18  O3  UNL     1      10.903  16.702  17.897  1.00  0.00    -0.360 OA
ATOM     19  H3  UNL     1      10.321  17.298  18.353  1.00  0.00     0.217 HD
ENDBRANCH  10  18
BRANCH  16  20
HETATM   20  C17 UNL     1      16.352  15.986  20.393  1.00  0.00     0.062 C
BRANCH  20  21
HETATM   21  C18 UNL     1      17.109  17.184  20.865  1.00  0.00     0.046 C
BRANCH  21  22
HETATM   22  C19 UNL     1      16.361  17.978  21.898  1.00  0.00     0.031 C
BRANCH  22  23
HETATM   23  C20 UNL     1      17.192  19.087  22.452  1.00  0.00     0.164 C
BRANCH  23  24
HETATM   24  O4  UNL     1      16.368  19.850  23.294  1.00  0.00    -0.401 OA
ATOM     25  H4  UNL     1      16.919  20.492  23.726  1.00  0.00     0.209 HD
ENDBRANCH  23  24
ENDBRANCH  22  23
ENDBRANCH  21  22
ENDBRANCH  20  21
ENDBRANCH  16  20
ENDBRANCH   8   9
ENDBRANCH   5   8
BRANCH   4  26
HETATM   26  O2  UNL     1      12.037  18.587  20.839  1.00  0.00    -0.359 OA
ATOM     27  H2  UNL     1      11.801  17.804  20.357  1.00  0.00     0.217 HD
ENDBRANCH   4  26
BRANCH   6  28
HETATM   28  O5  UNL     1      15.592  19.251  17.731  1.00  0.00    -0.354 OA
HETATM   29  C22 UNL     1      15.350  19.904  16.488  1.00  0.00     0.210 C
ENDBRANCH   6  28
BRANCH   3  30
HETATM   30  C4  UNL     1      12.725  20.850  22.293  1.00  0.00     0.013 C
HETATM   31  C5  UNL     1      11.819  21.746  22.442  1.00  0.00     0.005 C
BRANCH  31  32
HETATM   32  C6  UNL     1      11.238  21.964  23.834  1.00  0.00     0.140 C
BRANCH  32  33
HETATM   33  O1  UNL     1      10.007  21.329  23.960  1.00  0.00    -0.392 OA
ATOM     34  H1  UNL     1       9.808  20.823  23.181  1.00  0.00     0.210 HD
ENDBRANCH  32  33
BRANCH  32  35
HETATM   35  C7  UNL     1      11.110  23.437  24.118  1.00  0.00     0.031 C
HETATM   36  C8  UNL     1      12.226  24.241  23.518  1.00  0.00     0.008 C
ENDBRANCH  32  35
ENDBRANCH  31  32
ENDBRANCH   3  30
BRANCH   7  37
HETATM   37  C24 UNL     1      16.387  21.549  19.109  1.00  0.00     0.159 C
HETATM   38  C25 UNL     1      17.752  21.241  19.554  1.00  0.00     0.097 C
HETATM   39  O6  UNL     1      16.172  22.510  18.328  1.00  0.00    -0.293 OA
ENDBRANCH   7  37
TORSDOF 15
ENDMDL