MODEL 1
REMARK VINA RESULT: -8.886647539      0.000      0.000
REMARK  12 active torsions:
REMARK  status: ('A' for Active; 'I' for Inactive)
REMARK    1  A    between atoms: O1_1  and  C1_3
REMARK    2  A    between atoms: C1_3  and  C2_4
REMARK    3  A    between atoms: C1_3  and  C6_18
REMARK    4  A    between atoms: C2_4  and  O2_5
REMARK    5  A    between atoms: O2_5  and  C3_6
REMARK    6  A    between atoms: C3_6  and  C4_7
REMARK    7  A    between atoms: C4_7  and  N1_8
REMARK    8  A    between atoms: N1_8  and  C5_10
REMARK    9  A    between atoms: C6_18  and  O3_19
REMARK   10  A    between atoms: O3_19  and  C7_20
REMARK   11  A    between atoms: C11_26  and  C12_27
REMARK   12  A    between atoms: C12_27  and  C13_28
ROOT
HETATM    1  C7  UNL     1      17.364  19.950  21.885  1.00  0.00     0.099 A
HETATM    2  C8  UNL     1      18.005  21.021  21.305  1.00  0.00     0.056 A
HETATM    3  C9  UNL     1      17.309  22.113  20.801  1.00  0.00     0.091 A
HETATM    4  N6  UNL     1      15.979  22.130  20.877  1.00  0.00    -0.363 N
ATOM      5  H6  UNL     1      15.456  22.925  20.510  1.00  0.00     0.165 HD
HETATM    6  C10 UNL     1      15.329  21.097  21.439  1.00  0.00     0.070 A
HETATM    7  C11 UNL     1      13.979  20.907  21.620  1.00  0.00    -0.009 A
HETATM    8  C21 UNL     1      13.845  19.689  22.241  1.00  0.00     0.098 A
HETATM    9  N8  UNL     1      15.052  19.135  22.442  1.00  0.00    -0.361 N
ATOM     10  H8  UNL     1      15.233  18.234  22.883  1.00  0.00     0.165 HD
HETATM   11  C22 UNL     1      15.987  19.986  21.955  1.00  0.00     0.093 A
ENDROOT
BRANCH   1  12
HETATM   12  O3  UNL     1      18.029  18.850  22.397  1.00  0.00    -0.346 OA
BRANCH  12  13
HETATM   13  C6  UNL     1      19.363  18.518  22.039  1.00  0.00     0.209 C
BRANCH  13  14
HETATM   14  C1  UNL     1      20.299  18.761  23.228  1.00  0.00     0.166 C
BRANCH  14  15
HETATM   15  O1  UNL     1      21.399  17.968  23.053  1.00  0.00    -0.391 OA
ATOM     16  H1  UNL     1      21.251  17.048  22.871  1.00  0.00     0.210 HD
ENDBRANCH  14  15
BRANCH  14  17
HETATM   17  C2  UNL     1      19.523  18.586  24.475  1.00  0.00     0.201 C
BRANCH  17  18
HETATM   18  O2  UNL     1      19.440  19.619  25.342  1.00  0.00    -0.387 OA
BRANCH  18  19
HETATM   19  C3  UNL     1      19.957  19.487  26.590  1.00  0.00     0.188 C
BRANCH  19  20
HETATM   20  C4  UNL     1      21.167  20.427  26.753  1.00  0.00     0.164 C
BRANCH  20  21
HETATM   21  N1  UNL     1      22.342  19.583  26.724  1.00  0.00    -0.222 N
ATOM     22  H1  UNL     1      22.661  19.109  27.569  1.00  0.00     0.177 HD
BRANCH  21  23
HETATM   23  C5  UNL     1      22.981  19.440  25.607  1.00  0.00     0.706 A
HETATM   24  N2  UNL     1      23.063  20.353  24.619  1.00  0.00    -0.118 N
HETATM   25  N3  UNL     1      23.792  19.842  23.660  1.00  0.00    -0.212 N
ATOM     26  H2  UNL     1      22.632  21.278  24.619  1.00  0.00     0.207 HD
HETATM   27  N4  UNL     1      24.188  18.623  23.993  1.00  0.00     0.009 NA
ATOM     28  H3  UNL     1      24.022  20.314  22.785  1.00  0.00     0.206 HD
HETATM   29  N5  UNL     1      23.686  18.370  25.202  1.00  0.00    -0.114 N
ATOM     30  H5  UNL     1      23.814  17.507  25.731  1.00  0.00     0.203 HD
ENDBRANCH  21  23
ENDBRANCH  20  21
ENDBRANCH  19  20
ENDBRANCH  18  19
ENDBRANCH  17  18
ENDBRANCH  14  17
ENDBRANCH  13  14
ENDBRANCH  12  13
ENDBRANCH   1  12
BRANCH   7  31
HETATM   31  C12 UNL     1      12.890  21.815  21.236  1.00  0.00     0.083 C
BRANCH  31  32
HETATM   32  C13 UNL     1      12.088  22.188  22.415  1.00  0.00    -0.026 A
HETATM   33  C14 UNL     1      11.133  21.413  23.019  1.00  0.00     0.096 A
HETATM   34  N7  UNL     1      10.586  22.059  24.062  1.00  0.00    -0.365 N
HETATM   35  C15 UNL     1      11.182  23.271  24.151  1.00  0.00     0.042 A
ATOM     36  H7  UNL     1       9.853  21.701  24.675  1.00  0.00     0.165 HD
HETATM   37  C16 UNL     1      11.025  24.337  25.017  1.00  0.00     0.030 A
HETATM   38  C20 UNL     1      12.122  23.364  23.129  1.00  0.00    -0.002 A
HETATM   39  C17 UNL     1      11.760  25.499  24.918  1.00  0.00     0.002 A
HETATM   40  C18 UNL     1      12.688  25.551  23.884  1.00  0.00     0.001 A
HETATM   41  C19 UNL     1      12.875  24.525  23.009  1.00  0.00     0.014 A
ENDBRANCH  31  32
ENDBRANCH   7  31
TORSDOF 12
ENDMDL