MODEL 5
REMARK VINA RESULT: -5.997374062      3.111      6.379
REMARK  10 active torsions:
REMARK  status: ('A' for Active; 'I' for Inactive)
REMARK    1  A    between atoms: C2_2  and  O2_4
REMARK    2  A    between atoms: O2_4  and  C3_5
REMARK    3  A    between atoms: C3_5  and  O3_6
REMARK    4  A    between atoms: C3_5  and  C4_8
REMARK    5  A    between atoms: C4_8  and  O4_9
REMARK    6  A    between atoms: C4_8  and  C5_11
REMARK    7  A    between atoms: C6_14  and  N2_15
REMARK    8  A    between atoms: C7_19  and  N4_20
REMARK       I    between atoms: N4_20  and  C8_22
REMARK    9  A    between atoms: C9_25  and  O5_26
REMARK   10  A    between atoms: C11_30  and  S1_31
ROOT
HETATM    1  C5  UNL     1      37.260  -0.444  11.549  1.00  0.00     0.174 A
HETATM    2  N1  UNL     1      38.413  -1.094  11.599  1.00  0.00    -0.171 N
ATOM      3  H1  UNL     1      38.489  -1.988  11.114  1.00  0.00     0.186 HD
HETATM    4  C6  UNL     1      39.495  -0.625  12.264  1.00  0.00     0.688 A
HETATM    5  N3  UNL     1      39.440   0.543  12.915  1.00  0.00    -0.106 N
HETATM    6  C7  UNL     1      40.484   1.076  13.599  1.00  0.00     0.171 A
HETATM    7  C9  UNL     1      40.283   2.306  14.216  1.00  0.00     0.164 A
HETATM    8  C10 UNL     1      39.049   2.949  14.128  1.00  0.00     0.237 A
HETATM    9  O6  UNL     1      38.837   4.077  14.685  1.00  0.00    -0.283 OA
HETATM   10  C11 UNL     1      38.011   2.391  13.436  1.00  0.00     0.185 A
HETATM   11  C12 UNL     1      38.231   1.177  12.833  1.00  0.00     0.202 A
HETATM   12  O10 UNL     1      37.203   0.693  12.178  1.00  0.00    -0.275 OA
ENDROOT
BRANCH   1  13
HETATM   13  C4  UNL     1      36.060  -0.948  10.822  1.00  0.00     0.249 C
BRANCH  13  14
HETATM   14  C3  UNL     1      35.261  -1.926  11.684  1.00  0.00     0.303 C
BRANCH  14  15
HETATM   15  O2  UNL     1      36.099  -2.365  12.713  1.00  0.00    -0.287 OA
BRANCH  15  16
HETATM   16  C2  UNL     1      36.054  -3.673  13.226  1.00  0.00     0.257 C
HETATM   17  C1  UNL     1      37.270  -4.454  13.498  1.00  0.00     0.126 C
HETATM   18  O1  UNL     1      34.885  -4.125  13.433  1.00  0.00    -0.266 OA
ENDBRANCH  15  16
ENDBRANCH  14  15
BRANCH  14  19
HETATM   19  O3  UNL     1      34.689  -2.923  10.937  1.00  0.00    -0.368 OA
ATOM     20  H3  UNL     1      34.855  -2.872  10.003  1.00  0.00     0.212 HD
ENDBRANCH  14  19
ENDBRANCH  13  14
BRANCH  13  21
HETATM   21  O4  UNL     1      35.281   0.131  10.413  1.00  0.00    -0.382 OA
ATOM     22  H4  UNL     1      35.125   0.116   9.475  1.00  0.00     0.210 HD
ENDBRANCH  13  21
ENDBRANCH   1  13
BRANCH   4  23
HETATM   23  N2  UNL     1      40.588  -1.317  12.211  1.00  0.00    -0.234 N
ATOM     24  H22 UNL     1      40.790  -1.932  11.423  1.00  0.00     0.174 HD
ATOM     25  H21 UNL     1      41.231  -1.258  13.000  1.00  0.00     0.174 HD
ENDBRANCH   4  23
BRANCH  10  26
HETATM   26  S1  UNL     1      36.444   3.201  13.324  1.00  0.00     0.146 S
HETATM   27  O7  UNL     1      36.321   3.767  11.947  1.00  0.00    -0.591 OA
HETATM   28  O8  UNL     1      35.375   2.175  13.533  1.00  0.00    -0.591 OA
HETATM   29  O9  UNL     1      36.422   4.407  14.467  1.00  0.00    -0.591 OA
ENDBRANCH  10  26
BRANCH   6  30
HETATM   30  N4  UNL     1      41.688   0.380  13.775  1.00  0.00    -0.316 N
HETATM   31  C8  UNL     1      42.988   0.680  13.221  1.00  0.00     0.202 C
HETATM   32  N5  UNL     1      42.971   0.720  11.780  1.00  0.00    -0.066 NA
HETATM   33  N6  UNL     1      43.729   1.697  13.878  1.00  0.00    -0.066 NA
ATOM     34  H4  UNL     1      41.639  -0.445  14.372  1.00  0.00     0.169 HD
ENDBRANCH   6  30
BRANCH   7  35
HETATM   35  O5  UNL     1      41.230   2.987  14.945  1.00  0.00    -0.354 OA
ATOM     36  H5  UNL     1      41.428   2.831  15.861  1.00  0.00     0.218 HD
ENDBRANCH   7  35
TORSDOF 10
ENDMDL