MODEL 2
REMARK VINA RESULT: -6.857502093      5.537      8.959
REMARK  9 active torsions:
REMARK  status: ('A' for Active; 'I' for Inactive)
REMARK       I    between atoms: C2_2  and  N1_4
REMARK    1  A    between atoms: N1_4  and  C3_6
REMARK    2  A    between atoms: C3_6  and  C4_7
REMARK    3  A    between atoms: C4_7  and  O2_8
REMARK    4  A    between atoms: C4_7  and  C5_10
REMARK    5  A    between atoms: N2_12  and  S1_13
REMARK    6  A    between atoms: C7_19  and  N4_20
REMARK    7  A    between atoms: C10_30  and  N8_31
REMARK    8  A    between atoms: N10_35  and  O6_36
REMARK    9  A    between atoms: N11_38  and  N12_39
ROOT
HETATM    1  N4  UNL     1      36.892   7.545  15.742  1.00  0.00    -0.045 N
HETATM    2  C8  UNL     1      36.530   7.707  17.099  1.00  0.00     0.758 A
HETATM    3  N5  UNL     1      36.294   6.827  18.111  1.00  0.00    -0.018 N
ATOM      4  H5  UNL     1      36.375   5.829  17.913  1.00  0.00     0.203 HD
HETATM    5  C9  UNL     1      35.961   7.203  19.353  1.00  0.00     0.705 A
HETATM    6  N6  UNL     1      35.741   6.421  20.342  1.00  0.00    -0.234 N
ATOM      7  H61 UNL     1      35.487   6.708  21.288  1.00  0.00     0.174 HD
ATOM      8  H62 UNL     1      35.815   5.418  20.172  1.00  0.00     0.174 HD
HETATM    9  N7  UNL     1      35.861   8.548  19.582  1.00  0.00    -0.020 N
ATOM     10  H7  UNL     1      35.610   8.886  20.511  1.00  0.00     0.203 HD
HETATM   11  C10 UNL     1      36.092   9.428  18.591  1.00  0.00     0.730 A
HETATM   12  N9  UNL     1      36.428   9.016  17.343  1.00  0.00     0.133 N
HETATM   13  N10 UNL     1      36.716   9.685  16.162  1.00  0.00    -0.040 N
HETATM   14  N11 UNL     1      36.795   8.779  15.116  1.00  0.00     0.021 NA
ENDROOT
BRANCH   1  15
HETATM   15  C7  UNL     1      37.258   6.280  15.172  1.00  0.00     0.170 A
HETATM   16  C5  UNL     1      38.467   5.662  15.294  1.00  0.00     0.038 A
HETATM   17  C6  UNL     1      38.362   4.446  14.606  1.00  0.00     0.145 A
HETATM   18  N2  UNL     1      37.112   4.378  14.102  1.00  0.00    -0.171 N
HETATM   19  N3  UNL     1      36.479   5.473  14.450  1.00  0.00    -0.265 N
ATOM     20  H3  UNL     1      35.513   5.681  14.199  1.00  0.00     0.190 HD
BRANCH  16  21
HETATM   21  C4  UNL     1      39.726   6.132  15.968  1.00  0.00     0.174 C
BRANCH  21  22
HETATM   22  C3  UNL     1      39.630   6.004  17.456  1.00  0.00     0.159 C
BRANCH  22  23
HETATM   23  N1  UNL     1      39.816   4.653  17.888  1.00  0.00    -0.359 N
HETATM   24  C2  UNL     1      38.822   3.843  18.458  1.00  0.00     0.213 C
HETATM   25  C1  UNL     1      39.086   2.432  18.906  1.00  0.00     0.117 C
HETATM   26  O1  UNL     1      37.648   4.243  18.631  1.00  0.00    -0.274 OA
ATOM     27  H1  UNL     1      40.744   4.246  17.773  1.00  0.00     0.162 HD
ENDBRANCH  22  23
ENDBRANCH  21  22
BRANCH  21  28
HETATM   28  O2  UNL     1      40.736   5.265  15.526  1.00  0.00    -0.389 OA
ATOM     29  H2  UNL     1      40.528   5.004  14.636  1.00  0.00     0.210 HD
ENDBRANCH  21  28
ENDBRANCH  16  21
BRANCH  18  30
HETATM   30  S1  UNL     1      36.533   3.043  13.175  1.00  0.00     0.230 S
HETATM   31  O3  UNL     1      35.270   2.496  13.737  1.00  0.00    -0.576 OA
HETATM   32  O4  UNL     1      36.356   3.543  11.768  1.00  0.00    -0.576 OA
HETATM   33  O5  UNL     1      37.749   1.863  13.239  1.00  0.00    -0.576 OA
ENDBRANCH  18  30
ENDBRANCH   1  15
BRANCH  14  34
HETATM   34  N12 UNL     1      35.542   8.756  14.437  1.00  0.00    -0.323 NA
ATOM     35 2H12 UNL     1      35.717   8.736  13.432  1.00  0.00     0.174 HD
ATOM     36 1H12 UNL     1      35.132   9.676  14.602  1.00  0.00     0.174 HD
ENDBRANCH  14  34
BRANCH  13  37
HETATM   37  O6  UNL     1      36.881  11.037  16.107  1.00  0.00    -0.253 OA
ATOM     38  H6  UNL     1      37.529  11.495  16.630  1.00  0.00     0.248 HD
ENDBRANCH  13  37
BRANCH  11  39
HETATM   39  N8  UNL     1      36.012  10.717  18.783  1.00  0.00    -0.232 N
ATOM     40  H82 UNL     1      36.844  11.265  18.563  1.00  0.00     0.174 HD
ATOM     41  H81 UNL     1      35.163  11.157  19.140  1.00  0.00     0.174 HD
ENDBRANCH  11  39
TORSDOF 9
ENDMDL