MODEL 5
REMARK VINA RESULT: -5.582495712      2.727      5.529
REMARK  14 active torsions:
REMARK  status: ('A' for Active; 'I' for Inactive)
REMARK    1  A    between atoms: O1_2  and  C2_3
REMARK       I    between atoms: C2_3  and  N1_5
REMARK    2  A    between atoms: N1_5  and  C3_7
REMARK    3  A    between atoms: C3_7  and  C4_8
REMARK    4  A    between atoms: C3_7  and  C6_12
REMARK    5  A    between atoms: C3_7  and  C8_16
REMARK    6  A    between atoms: C4_8  and  O4_10
REMARK    7  A    between atoms: C6_12  and  O6_14
REMARK    8  A    between atoms: C9_17  and  O7_18
REMARK    9  A    between atoms: C10_20  and  C11_21
REMARK   10  A    between atoms: C11_21  and  O8_22
REMARK   11  A    between atoms: C11_21  and  N2_24
REMARK   12  A    between atoms: N2_24  and  N3_25
REMARK   13  A    between atoms: C12_31  and  N5_32
REMARK       I    between atoms: N5_32  and  C13_34
REMARK   14  A    between atoms: N7_36  and  O10_38
ROOT
HETATM    1  C8  UNL     1      38.305   1.890  12.998  1.00  0.00     0.079 A
HETATM    2  C9  UNL     1      37.694   0.677  12.666  1.00  0.00     0.108 A
HETATM    3  C10 UNL     1      36.364   0.475  12.747  1.00  0.00     0.112 A
HETATM    4  N4  UNL     1      35.560   1.483  13.177  1.00  0.00    -0.257 N
ATOM      5  H4  UNL     1      34.550   1.354  13.250  1.00  0.00     0.195 HD
HETATM    6  O9  UNL     1      36.101   2.591  13.486  1.00  0.00    -0.219 OA
HETATM    7  C12 UNL     1      37.391   2.860  13.426  1.00  0.00     0.185 A
ENDROOT
BRANCH   1   8
HETATM    8  C3  UNL     1      39.704   2.234  12.780  1.00  0.00     0.246 C
BRANCH   8   9
HETATM    9  N1  UNL     1      40.524   1.462  11.945  1.00  0.00    -0.306 N
HETATM   10  C2  UNL     1      41.599   1.598  11.093  1.00  0.00     0.361 C
HETATM   11  O2  UNL     1      42.241   2.603  10.769  1.00  0.00    -0.238 OA
ATOM     12  H1  UNL     1      40.229   0.486  11.977  1.00  0.00     0.167 HD
BRANCH  10  13
HETATM   13  O1  UNL     1      42.131   0.427  10.423  1.00  0.00    -0.309 OA
HETATM   14  C1  UNL     1      41.251  -0.640  10.145  1.00  0.00     0.215 C
ENDBRANCH  10  13
ENDBRANCH   8   9
BRANCH   8  15
HETATM   15  C4  UNL     1      40.342   2.237  14.207  1.00  0.00     0.302 C
HETATM   16  O3  UNL     1      41.565   2.174  14.260  1.00  0.00    -0.261 OA
BRANCH  15  17
HETATM   17  O4  UNL     1      39.550   2.305  15.297  1.00  0.00    -0.324 OA
HETATM   18  C5  UNL     1      39.840   2.961  16.500  1.00  0.00     0.213 C
ENDBRANCH  15  17
ENDBRANCH   8  15
BRANCH   8  19
HETATM   19  C6  UNL     1      39.862   3.696  12.448  1.00  0.00     0.302 C
HETATM   20  O5  UNL     1      40.456   4.428  13.273  1.00  0.00    -0.261 OA
BRANCH  19  21
HETATM   21  O6  UNL     1      39.355   4.252  11.276  1.00  0.00    -0.324 OA
HETATM   22  C7  UNL     1      39.941   5.369  10.672  1.00  0.00     0.213 C
ENDBRANCH  19  21
ENDBRANCH   8  19
ENDBRANCH   1   8
BRANCH   2  23
HETATM   23  O7  UNL     1      38.510  -0.320  12.259  1.00  0.00    -0.358 OA
ATOM     24  H7  UNL     1      38.177  -0.889  11.575  1.00  0.00     0.217 HD
ENDBRANCH   2  23
BRANCH   7  25
HETATM   25  N5  UNL     1      37.711   4.047  13.775  1.00  0.00    -0.307 N
HETATM   26  C13 UNL     1      36.917   5.182  13.558  1.00  0.00     0.214 C
HETATM   27  N6  UNL     1      37.461   6.440  13.117  1.00  0.00    -0.061 NA
HETATM   28  N7  UNL     1      35.645   5.131  13.758  1.00  0.00    -0.241 N
ATOM     29  H7  UNL     1      35.224   4.257  14.074  1.00  0.00     0.197 HD
ATOM     30  H5  UNL     1      38.608   4.178  14.244  1.00  0.00     0.170 HD
BRANCH  28  31
HETATM   31  O10 UNL     1      34.848   6.222  13.555  1.00  0.00    -0.287 OA
ATOM     32  H10 UNL     1      33.904   6.171  13.653  1.00  0.00     0.244 HD
ENDBRANCH  28  31
ENDBRANCH   7  25
BRANCH   3  33
HETATM   33  C11 UNL     1      35.741  -0.803  12.312  1.00  0.00     0.285 C
BRANCH  33  34
HETATM   34  O8  UNL     1      36.084  -1.852  13.138  1.00  0.00    -0.372 OA
ATOM     35  H8  UNL     1      35.530  -1.893  13.909  1.00  0.00     0.212 HD
ENDBRANCH  33  34
BRANCH  33  36
HETATM   36  N2  UNL     1      36.082  -1.131  10.939  1.00  0.00    -0.110 NA
BRANCH  36  37
HETATM   37  N3  UNL     1      36.398  -2.516  10.932  1.00  0.00    -0.346 N
ATOM     38  H32 UNL     1      36.333  -3.153  11.726  1.00  0.00     0.172 HD
ATOM     39  H31 UNL     1      36.696  -2.732   9.981  1.00  0.00     0.172 HD
ENDBRANCH  36  37
ENDBRANCH  33  36
ENDBRANCH   3  33
TORSDOF 14
ENDMDL