MODEL 1
REMARK VINA RESULT: -6.926413520      0.000      0.000
REMARK  7 active torsions:
REMARK  status: ('A' for Active; 'I' for Inactive)
REMARK    1  A    between atoms: C2_2  and  C3_4
REMARK       I    between atoms: C3_4  and  N1_6
REMARK    2  A    between atoms: N1_6  and  C5_8
REMARK    3  A    between atoms: C5_8  and  C6_9
REMARK    4  A    between atoms: N5_14  and  C7_15
REMARK    5  A    between atoms: C7_15  and  C8_16
REMARK    6  A    between atoms: C7_15  and  C14_32
REMARK    7  A    between atoms: C13_29  and  O3_30
ROOT
HETATM    1  C7  UNL     1      38.414   3.783  14.001  1.00  0.00     0.091 C
ENDROOT
BRANCH   1   2
HETATM    2  N5  UNL     1      37.337   3.000  13.607  1.00  0.00    -0.227 N
HETATM    3  C6  UNL     1      37.397   1.573  13.296  1.00  0.00     0.132 C
HETATM    4  N2  UNL     1      36.198   1.129  13.192  1.00  0.00    -0.272 N
HETATM    5  N3  UNL     1      35.269   2.139  13.431  1.00  0.00    -0.007 NA
ATOM      6  H2  UNL     1      35.956   0.164  12.964  1.00  0.00     0.185 HD
HETATM    7  N4  UNL     1      36.000   3.317  13.380  1.00  0.00     0.000 NA
BRANCH   3   8
HETATM    8  C5  UNL     1      38.645   0.757  13.100  1.00  0.00     0.204 C
BRANCH   8   9
HETATM    9  N1  UNL     1      38.879  -0.064  14.303  1.00  0.00    -0.343 N
HETATM   10  C3  UNL     1      38.349  -1.349  14.486  1.00  0.00     0.289 C
HETATM   11  O2  UNL     1      37.539  -1.817  13.616  1.00  0.00    -0.264 OA
HETATM   12  C4  UNL     1      39.767   0.492  15.338  1.00  0.00     0.153 C
BRANCH  10  13
HETATM   13  C2  UNL     1      38.673  -2.169  15.613  1.00  0.00     0.212 C
HETATM   14  C1  UNL     1      37.779  -2.213  16.825  1.00  0.00     0.102 C
HETATM   15  O1  UNL     1      39.680  -2.885  15.680  1.00  0.00    -0.288 OA
ENDBRANCH  10  13
ENDBRANCH   8   9
ENDBRANCH   3   8
ENDBRANCH   1   2
BRANCH   1  16
HETATM   16  C8  UNL     1      38.411   4.435  15.333  1.00  0.00     0.068 A
HETATM   17  S1  UNL     1      39.458   4.089  16.640  1.00  0.00    -0.067 SA
HETATM   18  C9  UNL     1      38.740   5.058  17.861  1.00  0.00     0.092 A
HETATM   19  N6  UNL     1      39.039   5.319  19.171  1.00  0.00    -0.346 N
HETATM   20  C12 UNL     1      37.684   5.633  17.194  1.00  0.00     0.076 A
HETATM   21  C10 UNL     1      38.302   6.173  19.867  1.00  0.00     0.182 A
ATOM     22  H6  UNL     1      39.832   4.854  19.614  1.00  0.00     0.167 HD
HETATM   23  N7  UNL     1      37.281   6.756  19.260  1.00  0.00    -0.338 N
HETATM   24  C11 UNL     1      36.917   6.549  17.965  1.00  0.00     0.115 A
ATOM     25  H7  UNL     1      36.722   7.412  19.806  1.00  0.00     0.168 HD
HETATM   26  N8  UNL     1      35.997   7.198  17.537  1.00  0.00    -0.385 N
ATOM     27  H82 UNL     1      35.447   7.855  18.091  1.00  0.00     0.157 HD
ATOM     28  H81 UNL     1      35.725   7.043  16.566  1.00  0.00     0.157 HD
HETATM   29  C13 UNL     1      37.517   5.312  15.904  1.00  0.00     0.101 A
BRANCH  29  30
HETATM   30  O3  UNL     1      36.498   5.791  15.060  1.00  0.00    -0.358 OA
ATOM     31  H3  UNL     1      35.919   5.134  14.692  1.00  0.00     0.217 HD
ENDBRANCH  29  30
ENDBRANCH   1  16
BRANCH   1  32
HETATM   32  C14 UNL     1      38.998   4.647  12.929  1.00  0.00     0.260 C
HETATM   33  N9  UNL     1      38.151   5.669  12.383  1.00  0.00    -0.099 NA
HETATM   34  N10 UNL     1      39.069   6.110  11.335  1.00  0.00    -0.019 NA
HETATM   35  N11 UNL     1      39.432   4.881  10.757  1.00  0.00    -0.019 NA
HETATM   36  N12 UNL     1      39.227   3.881  11.707  1.00  0.00    -0.099 NA
ENDBRANCH   1  32
TORSDOF 7
ENDMDL