MODEL 2
REMARK VINA RESULT: -7.080727610      3.930      8.231
REMARK  7 active torsions:
REMARK  status: ('A' for Active; 'I' for Inactive)
REMARK    1  A    between atoms: N2_3  and  N3_4
REMARK    2  A    between atoms: N2_3  and  C3_15
REMARK       I    between atoms: N3_4  and  C2_6
REMARK       I    between atoms: C2_6  and  N4_7
REMARK       I    between atoms: C2_6  and  N5_11
REMARK    3  A    between atoms: C4_18  and  N7_19
REMARK       I    between atoms: N7_19  and  C5_21
REMARK    4  A    between atoms: N9_24  and  C6_25
REMARK    5  A    between atoms: N11_29  and  C8_30
REMARK    6  A    between atoms: C8_30  and  C9_31
REMARK    7  A    between atoms: C14_43  and  O4_44
ROOT
HETATM    1  N1  UNL     1      41.518   7.554  10.584  1.00  0.00    -0.170 NA
HETATM    2  C1  UNL     1      41.016   6.561  10.250  1.00  0.00     0.206 C
HETATM    3  N2  UNL     1      40.411   5.342   9.828  1.00  0.00    -0.171 N
ENDROOT
BRANCH   3   4
HETATM    4  N3  UNL     1      40.047   5.290   8.507  1.00  0.00    -0.266 N
HETATM    5  C2  UNL     1      41.059   5.518   7.538  1.00  0.00     0.495 C
HETATM    6  N4  UNL     1      40.403   5.427   6.222  1.00  0.00    -0.032 N
HETATM    7  N5  UNL     1      42.128   4.543   7.525  1.00  0.00    -0.032 N
ATOM      8  H43 UNL     1      39.898   4.552   6.082  1.00  0.00     0.279 HD
ATOM      9  H42 UNL     1      39.602   6.052   6.125  1.00  0.00     0.279 HD
ATOM     10  H41 UNL     1      41.130   5.590   5.526  1.00  0.00     0.279 HD
ATOM     11  H53 UNL     1      42.543   4.464   8.454  1.00  0.00     0.279 HD
ATOM     12  H52 UNL     1      41.745   3.604   7.420  1.00  0.00     0.279 HD
ATOM     13  H51 UNL     1      42.855   4.706   6.829  1.00  0.00     0.279 HD
ATOM     14  H3  UNL     1      39.085   5.095   8.231  1.00  0.00     0.185 HD
ENDBRANCH   3   4
BRANCH   3  15
HETATM   15  C3  UNL     1      40.253   4.315  10.797  1.00  0.00     0.192 A
HETATM   16  N6  UNL     1      39.207   4.360  11.640  1.00  0.00    -0.170 N
HETATM   17  C4  UNL     1      39.022   3.393  12.582  1.00  0.00     0.698 A
ATOM     18  H6  UNL     1      38.541   5.130  11.574  1.00  0.00     0.186 HD
HETATM   19  N9  UNL     1      39.895   2.386  12.666  1.00  0.00    -0.105 N
HETATM   20  C13 UNL     1      40.964   2.310  11.828  1.00  0.00     0.304 A
HETATM   21  O3  UNL     1      41.767   1.334  11.946  1.00  0.00    -0.264 OA
HETATM   22  C14 UNL     1      41.164   3.283  10.869  1.00  0.00     0.183 A
BRANCH  17  23
HETATM   23  N7  UNL     1      37.931   3.425  13.479  1.00  0.00    -0.143 N
HETATM   24  C5  UNL     1      36.614   3.414  12.939  1.00  0.00     0.347 C
HETATM   25  N8  UNL     1      35.478   3.449  13.820  1.00  0.00    -0.039 NA
HETATM   26  O1  UNL     1      36.405   3.375  11.695  1.00  0.00    -0.250 OA
ATOM     27  H7  UNL     1      38.082   3.455  14.487  1.00  0.00     0.188 HD
ENDBRANCH  17  23
BRANCH  19  28
HETATM   28  C6  UNL     1      39.715   1.373  13.637  1.00  0.00     0.094 A
HETATM   29  C7  UNL     1      40.142   1.387  14.950  1.00  0.00     0.139 A
HETATM   30  N10 UNL     1      39.772   0.243  15.550  1.00  0.00    -0.308 N
HETATM   31  N11 UNL     1      39.122  -0.517  14.688  1.00  0.00    -0.299 N
ATOM     32  H10 UNL     1      39.964  -0.001  16.522  1.00  0.00     0.186 HD
HETATM   33  C12 UNL     1      39.070   0.151  13.497  1.00  0.00     0.142 A
BRANCH  31  34
HETATM   34  C8  UNL     1      38.565  -1.813  14.960  1.00  0.00     0.175 C
BRANCH  34  35
HETATM   35  C9  UNL     1      38.645  -2.797  13.831  1.00  0.00     0.129 C
HETATM   36  C10 UNL     1      38.617  -4.206  14.335  1.00  0.00     0.205 C
HETATM   37  O2  UNL     1      37.220  -4.450  14.555  1.00  0.00    -0.320 OA
HETATM   38  C11 UNL     1      36.464  -3.541  13.818  1.00  0.00     0.213 C
HETATM   39  N12 UNL     1      35.155  -3.477  13.794  1.00  0.00    -0.365 N
HETATM   40  N13 UNL     1      37.384  -2.724  13.120  1.00  0.00    -0.348 N
ATOM     41 2H12 UNL     1      34.492  -4.066  14.297  1.00  0.00     0.159 HD
ATOM     42 1H12 UNL     1      34.602  -2.811  13.254  1.00  0.00     0.159 HD
ATOM     43  H13 UNL     1      37.196  -2.185  12.274  1.00  0.00     0.163 HD
ENDBRANCH  34  35
ENDBRANCH  31  34
ENDBRANCH  19  28
BRANCH  22  44
HETATM   44  O4  UNL     1      42.263   3.199  10.013  1.00  0.00    -0.353 OA
ATOM     45  H4  UNL     1      42.607   3.957   9.555  1.00  0.00     0.218 HD
ENDBRANCH  22  44
ENDBRANCH   3  15
TORSDOF 7
ENDMDL