MODEL 2
REMARK VINA RESULT: -6.797868221      2.470      8.400
REMARK  11 active torsions:
REMARK  status: ('A' for Active; 'I' for Inactive)
REMARK    1  A    between atoms: N1_1  and  C1_4
REMARK    2  A    between atoms: C3_8  and  C4_9
REMARK    3  A    between atoms: C4_9  and  C5_10
REMARK       I    between atoms: C5_10  and  N3_12
REMARK    4  A    between atoms: N3_12  and  C6_14
REMARK    5  A    between atoms: C7_16  and  C8_17
REMARK    6  A    between atoms: C9_22  and  C10_23
REMARK    7  A    between atoms: C10_23  and  C11_24
REMARK    8  A    between atoms: C11_24  and  N6_25
REMARK    9  A    between atoms: C11_24  and  C12_29
REMARK   10  A    between atoms: C13_39  and  N12_40
REMARK   11  A    between atoms: N12_40  and  N13_42
ROOT
HETATM    1  C6  UNL     1      38.015   3.706  13.725  1.00  0.00     0.296 C
HETATM    2  O2  UNL     1      36.685   3.909  14.075  1.00  0.00    -0.327 OA
HETATM    3  C7  UNL     1      36.594   5.288  14.289  1.00  0.00     0.303 C
HETATM    4  N11 UNL     1      37.552   5.861  13.346  1.00  0.00    -0.342 N
ATOM      5  H11 UNL     1      37.555   6.825  13.014  1.00  0.00     0.164 HD
HETATM    6  C13 UNL     1      38.389   4.948  13.007  1.00  0.00     0.143 C
ENDROOT
BRANCH   3   7
HETATM    7  C8  UNL     1      37.016   5.678  15.653  1.00  0.00     0.189 A
HETATM    8  N4  UNL     1      36.965   6.934  16.122  1.00  0.00    -0.278 N
HETATM    9  N5  UNL     1      37.430   6.858  17.378  1.00  0.00    -0.281 N
ATOM     10  H4  UNL     1      36.641   7.766  15.629  1.00  0.00     0.189 HD
HETATM   11  C9  UNL     1      37.755   5.587  17.664  1.00  0.00     0.142 A
ATOM     12  H5  UNL     1      37.523   7.646  18.019  1.00  0.00     0.189 HD
HETATM   13  O3  UNL     1      37.482   4.896  16.569  1.00  0.00    -0.278 OA
BRANCH  11  14
HETATM   14  C10 UNL     1      38.303   5.118  18.962  1.00  0.00     0.127 C
BRANCH  14  15
HETATM   15  C11 UNL     1      37.441   3.993  19.476  1.00  0.00     0.260 C
BRANCH  15  16
HETATM   16  N6  UNL     1      38.300   2.976  20.050  1.00  0.00    -0.068 N
ATOM     17  H63 UNL     1      39.285   3.133  19.838  1.00  0.00     0.275 HD
ATOM     18  H62 UNL     1      38.362   3.045  21.065  1.00  0.00     0.275 HD
ATOM     19  H61 UNL     1      37.974   2.061  19.738  1.00  0.00     0.275 HD
ENDBRANCH  15  16
BRANCH  15  20
HETATM   20  C12 UNL     1      36.505   4.475  20.507  1.00  0.00     0.138 A
HETATM   21  N7  UNL     1      36.304   3.915  21.713  1.00  0.00    -0.272 N
HETATM   22  N8  UNL     1      35.381   4.638  22.368  1.00  0.00    -0.007 NA
ATOM     23  H7  UNL     1      36.774   3.083  22.071  1.00  0.00     0.185 HD
HETATM   24  N9  UNL     1      35.003   5.637  21.591  1.00  0.00    -0.007 NA
HETATM   25  N10 UNL     1      35.679   5.548  20.458  1.00  0.00    -0.272 N
ATOM     26  H10 UNL     1      35.592   6.189  19.670  1.00  0.00     0.185 HD
ENDBRANCH  15  20
ENDBRANCH  14  15
ENDBRANCH  11  14
ENDBRANCH   3   7
BRANCH   1  27
HETATM   27  N3  UNL     1      38.173   2.601  12.809  1.00  0.00    -0.328 N
HETATM   28  C5  UNL     1      38.642   1.354  13.270  1.00  0.00     0.224 C
HETATM   29  O1  UNL     1      38.922   1.212  14.488  1.00  0.00    -0.273 OA
ATOM     30  H3  UNL     1      37.945   2.724  11.821  1.00  0.00     0.165 HD
BRANCH  28  31
HETATM   31  C4  UNL     1      38.803   0.222  12.323  1.00  0.00     0.150 C
BRANCH  31  32
HETATM   32  C3  UNL     1      37.683  -0.736  12.585  1.00  0.00     0.010 A
HETATM   33  C2  UNL     1      36.370  -0.635  12.204  1.00  0.00     0.105 A
HETATM   34  N2  UNL     1      35.562  -1.595  12.542  1.00  0.00    -0.346 N
HETATM   35  C1  UNL     1      36.044  -2.623  13.238  1.00  0.00     0.142 A
ATOM     36  H2  UNL     1      34.578  -1.561  12.280  1.00  0.00     0.167 HD
HETATM   37  S1  UNL     1      37.692  -2.225  13.421  1.00  0.00    -0.057 SA
BRANCH  35  38
HETATM   38  N1  UNL     1      35.391  -3.681  13.669  1.00  0.00    -0.380 N
ATOM     39  H12 UNL     1      34.593  -3.733  14.303  1.00  0.00     0.158 HD
ATOM     40  H11 UNL     1      35.569  -4.660  13.445  1.00  0.00     0.158 HD
ENDBRANCH  35  38
ENDBRANCH  31  32
ENDBRANCH  28  31
ENDBRANCH   1  27
BRANCH   6  41
HETATM   41  N12 UNL     1      39.502   5.097  12.090  1.00  0.00    -0.292 N
ATOM     42  H12 UNL     1      40.456   5.075  12.449  1.00  0.00     0.187 HD
BRANCH  41  43
HETATM   43  N13 UNL     1      39.286   5.271  10.718  1.00  0.00    -0.344 N
ATOM     44 2H13 UNL     1      38.916   6.164  10.393  1.00  0.00     0.176 HD
ATOM     45 1H13 UNL     1      39.494   4.525  10.054  1.00  0.00     0.176 HD
ENDBRANCH  41  43
ENDBRANCH   6  41
TORSDOF 11
ENDMDL