MODEL 2
REMARK VINA RESULT: -7.053763094      3.105      4.684
REMARK  10 active torsions:
REMARK  status: ('A' for Active; 'I' for Inactive)
REMARK    1  A    between atoms: C2_2  and  O2_4
REMARK    2  A    between atoms: O2_4  and  C3_5
REMARK    3  A    between atoms: C3_5  and  C4_6
REMARK    4  A    between atoms: C4_6  and  O3_7
REMARK    5  A    between atoms: O3_7  and  C5_8
REMARK    6  A    between atoms: C5_8  and  N1_9
REMARK    7  A    between atoms: N2_12  and  N3_13
REMARK    8  A    between atoms: C8_14  and  O4_15
REMARK    9  A    between atoms: C9_17  and  O5_18
REMARK   10  A    between atoms: N4_22  and  N5_24
ROOT
HETATM    1  N3  UNL     1      37.051   6.366  15.494  1.00  0.00    -0.199 N
HETATM    2  C8  UNL     1      36.748   7.667  15.411  1.00  0.00     0.199 A
HETATM    3  C9  UNL     1      36.731   8.238  16.682  1.00  0.00     0.136 A
HETATM    4  C10 UNL     1      37.035   7.251  17.571  1.00  0.00     0.093 A
HETATM    5  C11 UNL     1      37.172   7.202  18.941  1.00  0.00     0.138 A
HETATM    6  N4  UNL     1      37.016   8.151  19.730  1.00  0.00    -0.291 N
ATOM      7  H4  UNL     1      37.185   7.819  20.679  1.00  0.00     0.188 HD
HETATM    8  N6  UNL     1      37.504   5.971  19.467  1.00  0.00    -0.318 N
ATOM      9  H6  UNL     1      37.614   5.900  20.480  1.00  0.00     0.169 HD
HETATM   10  C12 UNL     1      37.691   4.873  18.748  1.00  0.00     0.191 A
HETATM   11  C13 UNL     1      38.046   3.604  19.382  1.00  0.00     0.137 C
HETATM   12  N7  UNL     1      38.343   2.607  19.874  1.00  0.00    -0.188 NA
HETATM   13  N8  UNL     1      37.552   4.943  17.416  1.00  0.00    -0.317 N
ATOM     14  H8  UNL     1      37.693   4.108  16.848  1.00  0.00     0.169 HD
HETATM   15  C14 UNL     1      37.227   6.112  16.822  1.00  0.00     0.150 A
ENDROOT
BRANCH   6  16
HETATM   16  N5  UNL     1      36.709   9.441  19.779  1.00  0.00    -0.344 N
ATOM     17  H52 UNL     1      37.481   9.915  20.248  1.00  0.00     0.176 HD
ATOM     18  H51 UNL     1      35.987  10.112  19.517  1.00  0.00     0.176 HD
ENDBRANCH   6  16
BRANCH   1  19
HETATM   19  N2  UNL     1      37.174   5.453  14.450  1.00  0.00    -0.208 N
HETATM   20  C7  UNL     1      38.365   5.562  13.639  1.00  0.00     0.183 C
HETATM   21  C6  UNL     1      38.462   4.468  12.598  1.00  0.00     0.136 C
HETATM   22  N1  UNL     1      37.559   3.429  12.991  1.00  0.00    -0.192 NA
HETATM   23  N11 UNL     1      36.316   3.518  12.352  1.00  0.00    -0.034 NA
HETATM   24  N10 UNL     1      35.597   4.508  13.031  1.00  0.00     0.002 NA
HETATM   25  N9  UNL     1      36.113   4.563  14.339  1.00  0.00     0.007 NA
BRANCH  22  26
HETATM   26  C5  UNL     1      38.113   2.091  12.946  1.00  0.00     0.279 C
BRANCH  26  27
HETATM   27  O3  UNL     1      37.284   1.141  13.442  1.00  0.00    -0.374 OA
BRANCH  27  28
HETATM   28  C4  UNL     1      37.318  -0.115  12.953  1.00  0.00     0.196 C
BRANCH  28  29
HETATM   29  C3  UNL     1      36.629  -0.410  11.672  1.00  0.00     0.205 C
BRANCH  29  30
HETATM   30  O2  UNL     1      36.648  -1.777  11.330  1.00  0.00    -0.320 OA
BRANCH  30  31
HETATM   31  C2  UNL     1      35.566  -2.553  11.038  1.00  0.00     0.254 C
HETATM   32  C1  UNL     1      35.654  -4.042  10.929  1.00  0.00     0.126 C
HETATM   33  O1  UNL     1      34.438  -1.981  10.852  1.00  0.00    -0.266 OA
ENDBRANCH  30  31
ENDBRANCH  29  30
ENDBRANCH  28  29
ENDBRANCH  27  28
ENDBRANCH  26  27
ENDBRANCH  22  26
ENDBRANCH   1  19
BRANCH   3  34
HETATM   34  O5  UNL     1      36.461   9.553  16.995  1.00  0.00    -0.356 OA
ATOM     35  H5  UNL     1      36.213   9.898  17.845  1.00  0.00     0.218 HD
ENDBRANCH   3  34
BRANCH   2  36
HETATM   36  O4  UNL     1      36.483   8.368  14.232  1.00  0.00    -0.343 OA
ATOM     37  H4  UNL     1      36.827   9.225  14.007  1.00  0.00     0.219 HD
ENDBRANCH   2  36
TORSDOF 10
ENDMDL