MODEL 3
REMARK VINA RESULT: -6.192654842      1.932      2.587
REMARK  10 active torsions:
REMARK  status: ('A' for Active; 'I' for Inactive)
REMARK    1  A    between atoms: O1_2  and  C2_3
REMARK    2  A    between atoms: C2_3  and  C3_5
REMARK    3  A    between atoms: N1_7  and  C4_8
REMARK    4  A    between atoms: N4_13  and  C5_14
REMARK    5  A    between atoms: C5_14  and  C7_25
REMARK    6  A    between atoms: N5_15  and  N6_17
REMARK    7  A    between atoms: N6_17  and  C6_19
REMARK    8  A    between atoms: N7_20  and  N8_22
REMARK    9  A    between atoms: C8_26  and  O3_27
REMARK   10  A    between atoms: C11_37  and  O6_38
ROOT
HETATM    1  C5  UNL     1      38.488   1.890  13.256  1.00  0.00     0.166 C
HETATM    2  N5  UNL     1      38.894   1.744  14.473  1.00  0.00    -0.282 N
ATOM      3  H5  UNL     1      38.592   0.906  14.969  1.00  0.00     0.188 HD
ENDROOT
BRANCH   1   4
HETATM    4  N4  UNL     1      38.871   3.020  12.524  1.00  0.00    -0.197 N
HETATM    5  N3  UNL     1      38.141   4.084  12.223  1.00  0.00    -0.231 N
HETATM    6  N2  UNL     1      38.810   4.958  11.501  1.00  0.00    -0.266 N
ATOM      7  H3  UNL     1      37.173   4.211  12.516  1.00  0.00     0.209 HD
HETATM    8  C4  UNL     1      40.045   4.481  11.299  1.00  0.00     0.189 A
ATOM      9  H2  UNL     1      38.450   5.846  11.155  1.00  0.00     0.190 HD
HETATM   10  C11 UNL     1      40.085   3.265  11.940  1.00  0.00     0.212 A
BRANCH   8  11
HETATM   11  N1  UNL     1      41.149   5.067  10.570  1.00  0.00    -0.246 N
HETATM   12  S1  UNL     1      41.854   6.575  10.491  1.00  0.00     0.005 SA
HETATM   13  C3  UNL     1      42.815   5.746   9.401  1.00  0.00     0.139 A
HETATM   14  C12 UNL     1      42.048   4.648   9.671  1.00  0.00     0.155 A
HETATM   15  N11 UNL     1      42.175   3.330   9.115  1.00  0.00    -0.080 NA
BRANCH  13  16
HETATM   16  C2  UNL     1      43.977   6.065   8.533  1.00  0.00     0.304 C
HETATM   17  O2  UNL     1      45.064   5.452   8.665  1.00  0.00    -0.259 OA
BRANCH  16  18
HETATM   18  O1  UNL     1      43.893   7.043   7.563  1.00  0.00    -0.322 OA
HETATM   19  C1  UNL     1      42.741   7.272   6.776  1.00  0.00     0.213 C
ENDBRANCH  16  18
ENDBRANCH  13  16
ENDBRANCH   8  11
BRANCH  10  20
HETATM   20  O6  UNL     1      41.126   2.362  12.038  1.00  0.00    -0.342 OA
ATOM     21  H6  UNL     1      41.611   2.085  12.806  1.00  0.00     0.219 HD
ENDBRANCH  10  20
ENDBRANCH   1   4
BRANCH   1  22
HETATM   22  C7  UNL     1      37.642   0.866  12.688  1.00  0.00     0.130 A
HETATM   23  C8  UNL     1      36.271   0.850  12.816  1.00  0.00     0.164 A
HETATM   24  N9  UNL     1      35.489  -0.129  12.271  1.00  0.00    -0.288 N
HETATM   25  C9  UNL     1      36.113  -1.099  11.589  1.00  0.00     0.329 A
ATOM     26  H9  UNL     1      34.475  -0.122  12.379  1.00  0.00     0.172 HD
HETATM   27  O4  UNL     1      35.413  -2.009  11.078  1.00  0.00    -0.247 OA
HETATM   28  N10 UNL     1      37.436  -1.150  11.422  1.00  0.00    -0.275 N
HETATM   29  C10 UNL     1      38.198  -0.194  11.956  1.00  0.00     0.267 A
ATOM     30  H10 UNL     1      37.859  -1.912  10.892  1.00  0.00     0.173 HD
HETATM   31  O5  UNL     1      39.451  -0.186  11.833  1.00  0.00    -0.267 OA
BRANCH  23  32
HETATM   32  O3  UNL     1      35.608   1.855  13.526  1.00  0.00    -0.345 OA
ATOM     33  H3  UNL     1      35.452   2.706  13.132  1.00  0.00     0.219 HD
ENDBRANCH  23  32
ENDBRANCH   1  22
BRANCH   2  34
HETATM   34  N6  UNL     1      39.700   2.625  15.157  1.00  0.00    -0.293 N
ATOM     35  H6  UNL     1      40.699   2.603  14.952  1.00  0.00     0.187 HD
BRANCH  34  36
HETATM   36  C6  UNL     1      39.252   3.561  16.127  1.00  0.00     0.213 C
HETATM   37  N7  UNL     1      38.481   4.530  15.767  1.00  0.00    -0.301 N
ATOM     38  H7  UNL     1      38.198   4.618  14.792  1.00  0.00     0.187 HD
BRANCH  37  39
HETATM   39  N8  UNL     1      38.039   5.446  16.697  1.00  0.00    -0.344 N
ATOM     40  H82 UNL     1      38.198   5.259  17.687  1.00  0.00     0.176 HD
ATOM     41  H81 UNL     1      37.561   6.295  16.394  1.00  0.00     0.176 HD
ENDBRANCH  37  39
ENDBRANCH  34  36
ENDBRANCH   2  34
TORSDOF 10
ENDMDL