MODEL 5
REMARK VINA RESULT: -6.848256376      4.209      7.595
REMARK  12 active torsions:
REMARK  status: ('A' for Active; 'I' for Inactive)
REMARK    1  A    between atoms: O1_2  and  C2_3
REMARK       I    between atoms: C2_3  and  N1_5
REMARK    2  A    between atoms: N1_5  and  O3_7
REMARK    3  A    between atoms: O3_7  and  N2_8
REMARK    4  A    between atoms: N2_8  and  O4_9
REMARK    5  A    between atoms: N2_8  and  N3_11
REMARK    6  A    between atoms: N3_11  and  C3_12
REMARK    7  A    between atoms: C3_12  and  C4_13
REMARK    8  A    between atoms: C7_20  and  N6_21
REMARK    9  A    between atoms: N6_21  and  O6_22
REMARK   10  A    between atoms: N6_21  and  O7_24
REMARK   11  A    between atoms: N7_27  and  O8_29
REMARK   12  A    between atoms: C12_36  and  O11_37
ROOT
HETATM    1  C4  UNL     1      38.546   1.959  13.866  1.00  0.00     0.145 A
HETATM    2  O5  UNL     1      38.755   2.939  14.777  1.00  0.00    -0.287 OA
HETATM    3  C5  UNL     1      38.026   4.022  14.750  1.00  0.00     0.168 A
HETATM    4  N4  UNL     1      38.375   4.910  15.730  1.00  0.00    -0.323 N
ATOM      5  H4  UNL     1      38.685   4.516  16.619  1.00  0.00     0.169 HD
HETATM    6  C6  UNL     1      38.350   6.261  15.638  1.00  0.00     0.146 C
HETATM    7  N5  UNL     1      39.229   6.992  16.457  1.00  0.00    -0.080 NA
HETATM    8  C7  UNL     1      37.560   7.058  14.808  1.00  0.00     0.139 C
HETATM    9  C8  UNL     1      36.434   6.646  14.090  1.00  0.00     0.134 C
HETATM   10  N7  UNL     1      35.562   7.524  13.829  1.00  0.00    -0.263 N
ATOM     11  H7  UNL     1      35.678   8.489  14.138  1.00  0.00     0.194 HD
HETATM   12  C9  UNL     1      36.207   5.336  13.652  1.00  0.00     0.221 C
HETATM   13  O9  UNL     1      35.157   5.135  13.031  1.00  0.00    -0.285 OA
HETATM   14  C10 UNL     1      37.022   4.246  13.840  1.00  0.00     0.121 A
HETATM   15  C11 UNL     1      36.752   3.272  12.887  1.00  0.00     0.226 A
HETATM   16  O10 UNL     1      35.874   3.382  12.041  1.00  0.00    -0.284 OA
HETATM   17  C12 UNL     1      37.556   2.126  12.947  1.00  0.00     0.154 A
ENDROOT
BRANCH   1  18
HETATM   18  C3  UNL     1      39.391   0.755  13.855  1.00  0.00     0.254 C
BRANCH  18  19
HETATM   19  N3  UNL     1      38.850  -0.470  13.713  1.00  0.00    -0.284 NA
BRANCH  19  20
HETATM   20  N2  UNL     1      38.201  -1.445  13.536  1.00  0.00     0.041 N
BRANCH  20  21
HETATM   21  O3  UNL     1      36.782  -1.542  13.421  1.00  0.00    -0.096 OA
BRANCH  21  22
HETATM   22  N1  UNL     1      36.348  -2.509  12.511  1.00  0.00    -0.180 N
HETATM   23  C2  UNL     1      35.642  -2.163  11.346  1.00  0.00     0.386 C
HETATM   24  O2  UNL     1      35.349  -0.966  11.039  1.00  0.00    -0.236 OA
ATOM     25  H1  UNL     1      36.550  -3.491  12.697  1.00  0.00     0.202 HD
BRANCH  23  26
HETATM   26  O1  UNL     1      35.213  -3.128  10.433  1.00  0.00    -0.307 OA
HETATM   27  C1  UNL     1      35.622  -4.457  10.326  1.00  0.00     0.215 C
ENDBRANCH  23  26
ENDBRANCH  21  22
ENDBRANCH  20  21
BRANCH  20  28
HETATM   28  O4  UNL     1      38.821  -2.696  13.397  1.00  0.00    -0.236 OA
ATOM     29  H4  UNL     1      38.276  -3.397  13.735  1.00  0.00     0.250 HD
ENDBRANCH  20  28
ENDBRANCH  19  20
ENDBRANCH  18  19
ENDBRANCH   1  18
BRANCH  17  30
HETATM   30  O11 UNL     1      37.311   1.110  11.986  1.00  0.00    -0.355 OA
ATOM     31  H11 UNL     1      37.858   1.051  11.213  1.00  0.00     0.218 HD
ENDBRANCH  17  30
BRANCH   8  32
HETATM   32  N6  UNL     1      37.894   8.414  14.629  1.00  0.00    -0.030 NA
BRANCH  32  33
HETATM   33  O6  UNL     1      37.593   9.152  15.761  1.00  0.00    -0.284 OA
ATOM     34  H6  UNL     1      38.327   9.163  16.365  1.00  0.00     0.240 HD
ENDBRANCH  32  33
BRANCH  32  35
HETATM   35  O7  UNL     1      39.160   8.628  14.239  1.00  0.00    -0.284 OA
ATOM     36  H7  UNL     1      39.432   9.538  14.266  1.00  0.00     0.240 HD
ENDBRANCH  32  35
ENDBRANCH   8  32
BRANCH  10  37
HETATM   37  O8  UNL     1      34.444   7.134  13.112  1.00  0.00    -0.289 OA
ATOM     38  H8  UNL     1      34.464   7.233  12.168  1.00  0.00     0.244 HD
ENDBRANCH  10  37
TORSDOF 12
ENDMDL