MODEL 3
REMARK VINA RESULT: -7.186758098      0.657      1.637
REMARK  10 active torsions:
REMARK  status: ('A' for Active; 'I' for Inactive)
REMARK    1  A    between atoms: C2_2  and  O1_3
REMARK    2  A    between atoms: N1_6  and  C4_7
REMARK    3  A    between atoms: C5_10  and  N3_11
REMARK    4  A    between atoms: C6_16  and  N5_17
REMARK    5  A    between atoms: C7_24  and  O2_25
REMARK    6  A    between atoms: O2_25  and  C8_26
REMARK    7  A    between atoms: C8_26  and  C9_27
REMARK    8  A    between atoms: C8_26  and  C11_31
REMARK    9  A    between atoms: C9_27  and  C10_28
REMARK   10  A    between atoms: C12_35  and  C13_36
ROOT
HETATM    1  C1  UNL     1      41.811   3.836  13.220  1.00  0.00     0.057 C
HETATM    2  C2  UNL     1      40.787   3.483  12.187  1.00  0.00     0.138 A
HETATM    3  C3  UNL     1      41.410   3.701  10.827  1.00  0.00     0.214 A
HETATM    4  N1  UNL     1      40.596   4.708  10.180  1.00  0.00    -0.117 N
HETATM    5  N7  UNL     1      39.644   5.148  11.084  1.00  0.00    -0.264 N
ATOM      6  H7  UNL     1      38.970   5.890  10.893  1.00  0.00     0.189 HD
HETATM    7  C7  UNL     1      39.714   4.502  12.197  1.00  0.00     0.170 A
ENDROOT
BRANCH   7   8
HETATM    8  O2  UNL     1      38.886   4.719  13.305  1.00  0.00    -0.322 OA
BRANCH   8   9
HETATM    9  C8  UNL     1      37.507   4.966  13.104  1.00  0.00     0.208 C
BRANCH   9  10
HETATM   10  C9  UNL     1      37.024   5.768  14.293  1.00  0.00     0.140 C
BRANCH  10  11
HETATM   11  C10 UNL     1      36.783   7.189  13.928  1.00  0.00     0.234 C
HETATM   12  N8  UNL     1      37.793   8.151  14.176  1.00  0.00    -0.062 NA
HETATM   13  O3  UNL     1      35.677   7.480  13.407  1.00  0.00    -0.277 OA
ENDBRANCH  10  11
ENDBRANCH   9  10
BRANCH   9  14
HETATM   14  C11 UNL     1      36.803   3.647  13.120  1.00  0.00     0.134 A
HETATM   15  N9  UNL     1      35.663   3.319  13.721  1.00  0.00    -0.244 N
HETATM   16  O4  UNL     1      35.426   2.080  13.472  1.00  0.00    -0.214 OA
ATOM     17  H9  UNL     1      35.080   3.941  14.281  1.00  0.00     0.196 HD
HETATM   18  C12 UNL     1      36.368   1.564  12.724  1.00  0.00     0.219 A
HETATM   19  N14 UNL     1      37.247   2.547  12.493  1.00  0.00    -0.318 N
ATOM     20  H14 UNL     1      38.100   2.472  11.940  1.00  0.00     0.169 HD
BRANCH  18  21
HETATM   21  C13 UNL     1      36.430   0.178  12.243  1.00  0.00     0.191 A
HETATM   22  N10 UNL     1      37.432  -0.384  11.550  1.00  0.00    -0.265 N
HETATM   23  N11 UNL     1      37.109  -1.653  11.303  1.00  0.00    -0.226 N
ATOM     24  H10 UNL     1      38.293   0.080  11.262  1.00  0.00     0.190 HD
HETATM   25  N12 UNL     1      35.935  -1.906  11.819  1.00  0.00    -0.226 N
ATOM     26  H11 UNL     1      37.686  -2.321  10.793  1.00  0.00     0.210 HD
HETATM   27  N13 UNL     1      35.504  -0.781  12.403  1.00  0.00    -0.265 N
ATOM     28  H12 UNL     1      35.439  -2.797  11.783  1.00  0.00     0.210 HD
ATOM     29  H13 UNL     1      34.617  -0.670  12.892  1.00  0.00     0.190 HD
ENDBRANCH  18  21
ENDBRANCH   9  14
ENDBRANCH   8   9
ENDBRANCH   7   8
BRANCH   2  30
HETATM   30  O1  UNL     1      40.284   2.192  12.326  1.00  0.00    -0.380 OA
ATOM     31  H1  UNL     1      39.676   1.948  11.638  1.00  0.00     0.211 HD
ENDBRANCH   2  30
BRANCH   4  32
HETATM   32  C4  UNL     1      40.781   5.140   8.839  1.00  0.00     0.728 A
HETATM   33  N2  UNL     1      41.704   4.596   8.025  1.00  0.00    -0.020 N
HETATM   34  C5  UNL     1      41.874   5.008   6.756  1.00  0.00     0.705 A
ATOM     35  H2  UNL     1      42.295   3.845   8.383  1.00  0.00     0.203 HD
HETATM   36  N4  UNL     1      41.094   6.007   6.267  1.00  0.00    -0.022 N
HETATM   37  C6  UNL     1      40.167   6.567   7.050  1.00  0.00     0.705 A
ATOM     38  H4  UNL     1      41.214   6.327   5.306  1.00  0.00     0.203 HD
HETATM   39  N6  UNL     1      40.027   6.133   8.303  1.00  0.00    -0.020 N
ATOM     40  H6  UNL     1      39.316   6.570   8.890  1.00  0.00     0.203 HD
BRANCH  34  41
HETATM   41  N3  UNL     1      42.779   4.464   5.987  1.00  0.00    -0.234 N
ATOM     42  H32 UNL     1      43.748   4.426   6.302  1.00  0.00     0.174 HD
ATOM     43  H31 UNL     1      42.530   4.078   5.077  1.00  0.00     0.174 HD
ENDBRANCH  34  41
BRANCH  37  44
HETATM   44  N5  UNL     1      39.432   7.511   6.581  1.00  0.00    -0.234 N
ATOM     45  H52 UNL     1      38.772   7.344   5.822  1.00  0.00     0.174 HD
ATOM     46  H51 UNL     1      39.507   8.449   6.977  1.00  0.00     0.174 HD
ENDBRANCH  37  44
ENDBRANCH   4  32
TORSDOF 10
ENDMDL