MODEL 4
REMARK VINA RESULT: -6.027534386      1.866      2.269
REMARK  12 active torsions:
REMARK  status: ('A' for Active; 'I' for Inactive)
REMARK    1  A    between atoms: N1_2  and  O1_3
REMARK    2  A    between atoms: N1_2  and  N2_5
REMARK    3  A    between atoms: N3_7  and  N4_9
REMARK    4  A    between atoms: N4_9  and  O2_10
REMARK       I    between atoms: N4_9  and  C2_12
REMARK    5  A    between atoms: N6_14  and  N7_16
REMARK       I    between atoms: N7_16  and  C3_18
REMARK    6  A    between atoms: C3_18  and  C4_20
REMARK    7  A    between atoms: N8_22  and  C6_23
REMARK    8  A    between atoms: C7_26  and  C8_27
REMARK    9  A    between atoms: C8_27  and  N10_28
REMARK   10  A    between atoms: C8_27  and  N11_32
REMARK   11  A    between atoms: C9_36  and  O4_37
REMARK   12  A    between atoms: C10_39  and  N12_40
ROOT
HETATM    1  C4  UNL     1      37.518   6.070  15.048  1.00  0.00     0.133 A
HETATM    2  C5  UNL     1      38.609   6.190  14.211  1.00  0.00     0.152 A
HETATM    3  N8  UNL     1      38.170   6.444  12.971  1.00  0.00    -0.230 N
HETATM    4  N13 UNL     1      36.849   6.489  12.996  1.00  0.00    -0.013 NA
HETATM    5  N14 UNL     1      36.450   6.261  14.253  1.00  0.00    -0.277 N
ATOM      6  H14 UNL     1      35.478   6.237  14.563  1.00  0.00     0.184 HD
ENDROOT
BRANCH   3   7
HETATM    7  C6  UNL     1      38.909   6.652  11.756  1.00  0.00     0.162 A
HETATM    8  N9  UNL     1      39.011   7.763  11.027  1.00  0.00    -0.337 N
HETATM    9  C7  UNL     1      39.790   7.604   9.946  1.00  0.00     0.104 A
ATOM     10  H9  UNL     1      38.548   8.640  11.265  1.00  0.00     0.167 HD
HETATM   11  C9  UNL     1      40.217   6.293   9.987  1.00  0.00     0.129 A
HETATM   12  C10 UNL     1      39.675   5.694  11.106  1.00  0.00     0.183 A
BRANCH   9  13
HETATM   13  C8  UNL     1      40.139   8.622   8.899  1.00  0.00     0.430 C
BRANCH  13  14
HETATM   14  N10 UNL     1      39.714   8.109   7.595  1.00  0.00    -0.045 N
ATOM     15 3H10 UNL     1      39.609   7.095   7.589  1.00  0.00     0.277 HD
ATOM     16 2H10 UNL     1      38.748   8.351   7.375  1.00  0.00     0.277 HD
ATOM     17 1H10 UNL     1      40.372   8.439   6.888  1.00  0.00     0.277 HD
ENDBRANCH  13  14
BRANCH  13  18
HETATM   18  N11 UNL     1      41.570   8.780   8.865  1.00  0.00    -0.045 N
ATOM     19 3H11 UNL     1      41.855   9.758   8.911  1.00  0.00     0.277 HD
ATOM     20 2H11 UNL     1      42.018   8.461   9.724  1.00  0.00     0.277 HD
ATOM     21 1H11 UNL     1      41.933   8.307   8.037  1.00  0.00     0.277 HD
ENDBRANCH  13  18
ENDBRANCH   9  13
BRANCH  11  22
HETATM   22  O4  UNL     1      41.050   5.717   9.039  1.00  0.00    -0.356 OA
ATOM     23  H4  UNL     1      41.991   5.633   9.138  1.00  0.00     0.218 HD
ENDBRANCH  11  22
BRANCH  12  24
HETATM   24  N12 UNL     1      39.835   4.373  11.550  1.00  0.00    -0.109 N
HETATM   25  O5  UNL     1      40.980   3.887  11.587  1.00  0.00    -0.532 OA
HETATM   26  O6  UNL     1      38.789   3.605  11.941  1.00  0.00    -0.532 OA
ENDBRANCH  12  24
ENDBRANCH   3   7
BRANCH   1  27
HETATM   27  C3  UNL     1      37.537   5.795  16.474  1.00  0.00     0.289 C
HETATM   28  N7  UNL     1      36.948   6.689  17.407  1.00  0.00    -0.262 N
ATOM     29  H7  UNL     1      36.502   7.544  17.074  1.00  0.00     0.190 HD
HETATM   30  O3  UNL     1      38.094   4.726  16.893  1.00  0.00    -0.264 OA
BRANCH  28  31
HETATM   31  N6  UNL     1      36.973   6.416  18.754  1.00  0.00    -0.267 N
HETATM   32  C2  UNL     1      36.939   7.311  19.655  1.00  0.00     0.253 C
HETATM   33  N4  UNL     1      36.971   6.894  21.012  1.00  0.00    -0.114 N
HETATM   34  N5  UNL     1      36.870   8.686  19.319  1.00  0.00    -0.058 NA
ATOM     35  H6  UNL     1      37.022   5.440  19.046  1.00  0.00     0.190 HD
BRANCH  33  36
HETATM   36  N3  UNL     1      37.183   5.554  21.365  1.00  0.00    -0.197 N
HETATM   37  N2  UNL     1      36.186   4.787  21.536  1.00  0.00    -0.205 N
ATOM     38  H2  UNL     1      35.248   5.166  21.411  1.00  0.00     0.212 HD
ATOM     39  H3  UNL     1      38.131   5.197  21.484  1.00  0.00     0.212 HD
BRANCH  37  40
HETATM   40  N1  UNL     1      36.326   3.443  21.887  1.00  0.00    -0.191 N
HETATM   41  C1  UNL     1      36.898   2.535  20.932  1.00  0.00     0.209 C
BRANCH  40  42
HETATM   42  O1  UNL     1      35.918   3.060  23.103  1.00  0.00    -0.271 OA
ATOM     43  H1  UNL     1      35.755   3.672  23.810  1.00  0.00     0.246 HD
ENDBRANCH  40  42
ENDBRANCH  37  40
ENDBRANCH  33  36
BRANCH  33  44
HETATM   44  O2  UNL     1      36.786   7.836  21.970  1.00  0.00    -0.264 OA
ATOM     45  H2  UNL     1      36.114   8.499  21.869  1.00  0.00     0.247 HD
ENDBRANCH  33  44
ENDBRANCH  28  31
ENDBRANCH   1  27
TORSDOF 12
ENDMDL