MODEL 3
REMARK VINA RESULT: -6.867630300      3.663      8.253
REMARK  10 active torsions:
REMARK  status: ('A' for Active; 'I' for Inactive)
REMARK    1  A    between atoms: C3_5  and  N2_6
REMARK       I    between atoms: N2_6  and  C4_8
REMARK       I    between atoms: C4_8  and  N3_9
REMARK       I    between atoms: C4_8  and  N4_13
REMARK    2  A    between atoms: C5_17  and  O1_19
REMARK    3  A    between atoms: C8_24  and  C9_25
REMARK       I    between atoms: C9_25  and  N6_27
REMARK    4  A    between atoms: N6_27  and  C10_29
REMARK    5  A    between atoms: C10_29  and  C11_30
REMARK    6  A    between atoms: C11_30  and  N7_31
REMARK    7  A    between atoms: C11_30  and  N8_35
REMARK    8  A    between atoms: N7_31  and  O3_33
REMARK    9  A    between atoms: N8_35  and  N9_37
REMARK   10  A    between atoms: C12_38  and  O4_39
ROOT
HETATM    1  C1  UNL     1      36.270   9.881  17.474  1.00  0.00     0.057 C
HETATM    2  C2  UNL     1      36.067   8.503  18.111  1.00  0.00     0.204 C
HETATM    3  N1  UNL     1      36.723   8.523  19.378  1.00  0.00    -0.354 N
ATOM      4  H1  UNL     1      36.631   9.373  19.935  1.00  0.00     0.163 HD
HETATM    5  C3  UNL     1      37.418   7.573  19.877  1.00  0.00     0.120 C
HETATM    6  C5  UNL     1      37.591   6.328  19.126  1.00  0.00     0.171 C
HETATM    7  C6  UNL     1      39.042   5.892  19.286  1.00  0.00     0.063 C
HETATM    8  C7  UNL     1      37.227   6.433  17.704  1.00  0.00     0.144 A
HETATM    9  N5  UNL     1      37.503   5.615  16.682  1.00  0.00    -0.322 N
ATOM     10  H5  UNL     1      38.037   4.747  16.741  1.00  0.00     0.169 HD
HETATM   11  C8  UNL     1      36.957   6.130  15.563  1.00  0.00     0.191 A
HETATM   12  N11 UNL     1      36.356   7.266  15.954  1.00  0.00    -0.275 N
ATOM     13  H11 UNL     1      35.846   7.896  15.335  1.00  0.00     0.189 HD
HETATM   14  N12 UNL     1      36.516   7.454  17.248  1.00  0.00    -0.252 N
ENDROOT
BRANCH  11  15
HETATM   15  C9  UNL     1      37.026   5.547  14.229  1.00  0.00     0.287 C
HETATM   16  O2  UNL     1      36.721   6.288  13.258  1.00  0.00    -0.264 OA
HETATM   17  N6  UNL     1      37.416   4.207  13.999  1.00  0.00    -0.351 N
ATOM     18  H6  UNL     1      37.662   3.609  14.787  1.00  0.00     0.162 HD
BRANCH  17  19
HETATM   19  C10 UNL     1      37.466   3.680  12.646  1.00  0.00     0.172 C
BRANCH  19  20
HETATM   20  C11 UNL     1      37.426   2.184  12.695  1.00  0.00     0.237 C
BRANCH  20  21
HETATM   21  N7  UNL     1      36.137   1.693  13.082  1.00  0.00    -0.279 N
ATOM     22  H7  UNL     1      35.930   0.699  12.987  1.00  0.00     0.190 HD
BRANCH  21  23
HETATM   23  O3  UNL     1      35.302   2.430  13.514  1.00  0.00    -0.292 OA
ATOM     24  H3  UNL     1      34.973   2.332  14.400  1.00  0.00     0.244 HD
ENDBRANCH  21  23
ENDBRANCH  20  21
BRANCH  20  25
HETATM   25  N8  UNL     1      38.445   1.578  13.506  1.00  0.00    -0.297 N
ATOM     26  H8  UNL     1      38.852   2.146  14.249  1.00  0.00     0.183 HD
BRANCH  25  27
HETATM   27  N9  UNL     1      38.924   0.273  13.360  1.00  0.00    -0.184 N
HETATM   28  C12 UNL     1      38.382  -0.895  13.714  1.00  0.00     0.181 A
HETATM   29  C13 UNL     1      39.257  -1.898  13.318  1.00  0.00     0.150 A
HETATM   30  N10 UNL     1      40.315  -1.326  12.731  1.00  0.00    -0.313 N
HETATM   31  C14 UNL     1      40.117  -0.005  12.754  1.00  0.00     0.347 A
ATOM     32  H10 UNL     1      41.122  -1.809  12.338  1.00  0.00     0.170 HD
HETATM   33  O5  UNL     1      40.941   0.815  12.273  1.00  0.00    -0.245 OA
BRANCH  28  34
HETATM   34  O4  UNL     1      37.169  -1.079  14.362  1.00  0.00    -0.344 OA
ATOM     35  H4  UNL     1      37.027  -1.091  15.302  1.00  0.00     0.219 HD
ENDBRANCH  28  34
ENDBRANCH  25  27
ENDBRANCH  20  25
ENDBRANCH  19  20
ENDBRANCH  17  19
ENDBRANCH  11  15
BRANCH   6  36
HETATM   36  O1  UNL     1      36.806   5.336  19.752  1.00  0.00    -0.374 OA
ATOM     37  H1  UNL     1      37.196   4.492  19.556  1.00  0.00     0.211 HD
ENDBRANCH   6  36
BRANCH   5  38
HETATM   38  N2  UNL     1      38.017   7.727  21.148  1.00  0.00    -0.328 N
HETATM   39  C4  UNL     1      37.207   7.828  22.314  1.00  0.00     0.481 C
HETATM   40  N3  UNL     1      36.374   6.653  22.510  1.00  0.00    -0.033 N
HETATM   41  N4  UNL     1      37.969   8.026  23.529  1.00  0.00    -0.033 N
ATOM     42  H33 UNL     1      35.807   6.460  21.683  1.00  0.00     0.278 HD
ATOM     43  H32 UNL     1      36.935   5.801  22.524  1.00  0.00     0.278 HD
ATOM     44  H31 UNL     1      35.793   6.726  23.345  1.00  0.00     0.278 HD
ATOM     45  H43 UNL     1      38.671   7.293  23.639  1.00  0.00     0.278 HD
ATOM     46  H42 UNL     1      38.583   8.836  23.443  1.00  0.00     0.278 HD
ATOM     47  H41 UNL     1      37.389   8.099  24.364  1.00  0.00     0.278 HD
ATOM     48  H2  UNL     1      39.033   7.764  21.231  1.00  0.00     0.164 HD
ENDBRANCH   5  38
TORSDOF 10
ENDMDL