MODEL 5
REMARK VINA RESULT: -6.355950193      1.452      1.608
REMARK  9 active torsions:
REMARK  status: ('A' for Active; 'I' for Inactive)
REMARK    1  A    between atoms: N2_4  and  N3_6
REMARK    2  A    between atoms: N3_6  and  C3_8
REMARK    3  A    between atoms: C3_8  and  O1_9
REMARK    4  A    between atoms: C3_8  and  C4_11
REMARK    5  A    between atoms: N4_15  and  C8_17
REMARK    6  A    between atoms: C9_22  and  N7_23
REMARK    7  A    between atoms: C13_33  and  C14_34
REMARK    8  A    between atoms: C14_34  and  N12_35
REMARK    9  A    between atoms: C14_34  and  O2_39
ROOT
HETATM    1  N1  UNL     1      36.551   6.819  22.167  1.00  0.00    -0.191 NA
HETATM    2  C1  UNL     1      36.392   6.630  21.026  1.00  0.00     0.106 C
HETATM    3  C2  UNL     1      36.176   6.396  19.649  1.00  0.00     0.200 C
HETATM    4  N2  UNL     1      36.237   7.343  18.786  1.00  0.00    -0.304 N
ATOM      5  H2  UNL     1      36.448   8.287  19.113  1.00  0.00     0.186 HD
ENDROOT
BRANCH   4   6
HETATM    6  N3  UNL     1      36.028   7.141  17.427  1.00  0.00    -0.303 N
ATOM      7  H3  UNL     1      35.371   6.430  17.109  1.00  0.00     0.183 HD
BRANCH   6   8
HETATM    8  C3  UNL     1      36.746   7.942  16.471  1.00  0.00     0.270 C
BRANCH   8   9
HETATM    9  O1  UNL     1      35.901   8.777  15.748  1.00  0.00    -0.371 OA
ATOM     10  H1  UNL     1      35.993   9.687  16.003  1.00  0.00     0.212 HD
ENDBRANCH   8   9
BRANCH   8  11
HETATM   11  C4  UNL     1      37.390   7.022  15.508  1.00  0.00     0.032 A
HETATM   12  C5  UNL     1      36.927   5.726  15.437  1.00  0.00     0.019 A
HETATM   13  C6  UNL     1      37.496   4.827  14.554  1.00  0.00     0.050 A
HETATM   14  C7  UNL     1      38.524   5.279  13.767  1.00  0.00     0.122 A
HETATM   15  N4  UNL     1      39.103   4.504  12.922  1.00  0.00    -0.175 N
HETATM   16  N14 UNL     1      38.966   6.567  13.856  1.00  0.00    -0.330 N
ATOM     17  H4  UNL     1      39.868   4.846  12.339  1.00  0.00     0.186 HD
HETATM   18  C15 UNL     1      38.424   7.458  14.710  1.00  0.00     0.128 A
ATOM     19  H14 UNL     1      39.734   6.867  13.254  1.00  0.00     0.168 HD
HETATM   20  N15 UNL     1      38.878   8.798  14.806  1.00  0.00    -0.082 NA
BRANCH  15  21
HETATM   21  C8  UNL     1      38.648   3.143  12.820  1.00  0.00     0.699 A
HETATM   22  N5  UNL     1      37.352   2.822  12.919  1.00  0.00    -0.130 N
HETATM   23  N6  UNL     1      36.992   1.576  12.821  1.00  0.00    -0.268 N
ATOM     24  H5  UNL     1      36.653   3.549  13.072  1.00  0.00     0.205 HD
HETATM   25  C9  UNL     1      37.864   0.540  12.617  1.00  0.00     0.166 A
ATOM     26  H6  UNL     1      35.999   1.358  12.901  1.00  0.00     0.189 HD
HETATM   27  C13 UNL     1      39.171   0.851  12.510  1.00  0.00     0.129 A
HETATM   28  N13 UNL     1      39.545   2.181  12.618  1.00  0.00    -0.186 N
ATOM     29  H13 UNL     1      40.532   2.429  12.542  1.00  0.00     0.184 HD
BRANCH  25  30
HETATM   30  N7  UNL     1      37.387  -0.804  12.623  1.00  0.00    -0.265 N
HETATM   31  C10 UNL     1      36.467  -1.128  11.567  1.00  0.00     0.224 A
HETATM   32  C11 UNL     1      35.946  -2.473  11.634  1.00  0.00     0.115 A
HETATM   33  N8  UNL     1      35.016  -2.865  10.607  1.00  0.00    -0.086 NA
HETATM   34  N9  UNL     1      36.281  -3.306  12.559  1.00  0.00    -0.320 N
HETATM   35  C12 UNL     1      37.210  -2.909  13.582  1.00  0.00     0.208 A
ATOM     36  H9  UNL     1      35.887  -4.246  12.565  1.00  0.00     0.169 HD
HETATM   37  N10 UNL     1      37.555  -3.857  14.584  1.00  0.00    -0.062 NA
HETATM   38  N11 UNL     1      37.695  -1.739  13.568  1.00  0.00    -0.269 N
ATOM     39  H11 UNL     1      38.354  -1.482  14.303  1.00  0.00     0.190 HD
ENDBRANCH  25  30
BRANCH  27  40
HETATM   40  C14 UNL     1      40.220  -0.110  12.190  1.00  0.00     0.371 C
BRANCH  40  41
HETATM   41  N12 UNL     1      40.246  -0.422  10.771  1.00  0.00    -0.047 N
ATOM     42 3H12 UNL     1      39.937   0.372  10.210  1.00  0.00     0.277 HD
ATOM     43 2H12 UNL     1      41.202  -0.499  10.423  1.00  0.00     0.277 HD
ATOM     44 1H12 UNL     1      39.705  -1.260  10.561  1.00  0.00     0.277 HD
ENDBRANCH  40  41
BRANCH  40  45
HETATM   45  O2  UNL     1      41.469   0.452  12.455  1.00  0.00    -0.365 OA
ATOM     46  H2  UNL     1      42.150  -0.185  12.279  1.00  0.00     0.212 HD
ENDBRANCH  40  45
ENDBRANCH  27  40
ENDBRANCH  15  21
ENDBRANCH   8  11
ENDBRANCH   6   8
ENDBRANCH   4   6
TORSDOF 9
ENDMDL