MODEL 5
REMARK VINA RESULT: -8.057900671      5.766     10.410
REMARK  12 active torsions:
REMARK  status: ('A' for Active; 'I' for Inactive)
REMARK    1  A    between atoms: N1_1  and  C1_4
REMARK    2  A    between atoms: N5_11  and  C2_12
REMARK    3  A    between atoms: C3_14  and  C4_15
REMARK    4  A    between atoms: C4_15  and  C5_17
REMARK    5  A    between atoms: C5_17  and  O3_18
REMARK    6  A    between atoms: C5_17  and  O4_20
REMARK    7  A    between atoms: C5_17  and  C6_22
REMARK    8  A    between atoms: C6_22  and  O5_23
REMARK    9  A    between atoms: C6_22  and  C7_25
REMARK   10  A    between atoms: C8_28  and  C9_29
REMARK   11  A    between atoms: C12_43  and  O7_44
REMARK   12  A    between atoms: C13_46  and  O8_47
ROOT
HETATM    1  C5  UNL     1      39.808   5.346  10.943  1.00  0.00     0.285 C
ENDROOT
BRANCH   1   2
HETATM    2  C4  UNL     1      39.680   4.620  12.248  1.00  0.00     0.254 C
HETATM    3  O2  UNL     1      40.536   4.785  13.153  1.00  0.00    -0.284 OA
BRANCH   2   4
HETATM    4  C3  UNL     1      38.577   3.709  12.518  1.00  0.00     0.166 A
HETATM    5  O1  UNL     1      38.642   2.379  12.491  1.00  0.00    -0.282 OA
HETATM    6  C2  UNL     1      37.511   1.823  12.771  1.00  0.00     0.225 A
HETATM    7  C13 UNL     1      36.609   2.869  13.007  1.00  0.00     0.156 A
HETATM    8  C12 UNL     1      37.287   4.052  12.846  1.00  0.00     0.141 A
BRANCH   6   9
HETATM    9  N5  UNL     1      37.218   0.430  12.835  1.00  0.00    -0.043 N
HETATM   10  C1  UNL     1      36.733  -0.360  11.852  1.00  0.00     0.716 A
HETATM   11  N2  UNL     1      36.592  -1.625  12.306  1.00  0.00    -0.115 N
HETATM   12  N3  UNL     1      36.992  -1.609  13.568  1.00  0.00    -0.213 N
ATOM     13  H2  UNL     1      36.247  -2.430  11.783  1.00  0.00     0.207 HD
HETATM   14  N4  UNL     1      37.366  -0.386  13.888  1.00  0.00    -0.204 N
ATOM     15  H3  UNL     1      37.008  -2.415  14.193  1.00  0.00     0.210 HD
ATOM     16  H4  UNL     1      37.716  -0.103  14.803  1.00  0.00     0.211 HD
BRANCH  10  17
HETATM   17  N1  UNL     1      36.456   0.079  10.655  1.00  0.00    -0.231 N
ATOM     18  H12 UNL     1      35.813   0.852  10.480  1.00  0.00     0.174 HD
ATOM     19  H11 UNL     1      36.826  -0.272   9.771  1.00  0.00     0.174 HD
ENDBRANCH  10  17
ENDBRANCH   6   9
BRANCH   7  20
HETATM   20  O8  UNL     1      35.292   2.682  13.338  1.00  0.00    -0.354 OA
ATOM     21  H8  UNL     1      34.846   3.161  14.026  1.00  0.00     0.218 HD
ENDBRANCH   7  20
BRANCH   8  22
HETATM   22  O7  UNL     1      36.723   5.306  12.998  1.00  0.00    -0.355 OA
ATOM     23  H7  UNL     1      37.094   6.161  12.812  1.00  0.00     0.218 HD
ENDBRANCH   8  22
ENDBRANCH   2   4
ENDBRANCH   1   2
BRANCH   1  24
HETATM   24  O3  UNL     1      40.064   6.653  11.239  1.00  0.00    -0.354 OA
ATOM     25  H3  UNL     1      40.980   6.807  11.040  1.00  0.00     0.214 HD
ENDBRANCH   1  24
BRANCH   1  26
HETATM   26  O4  UNL     1      38.546   5.355  10.298  1.00  0.00    -0.354 OA
ATOM     27  H4  UNL     1      38.680   5.432   9.360  1.00  0.00     0.214 HD
ENDBRANCH   1  26
BRANCH   1  28
HETATM   28  C6  UNL     1      40.740   4.735  10.042  1.00  0.00     0.158 C
BRANCH  28  29
HETATM   29  O5  UNL     1      41.331   3.646  10.485  1.00  0.00    -0.356 OA
ATOM     30  H5  UNL     1      41.528   3.633  11.413  1.00  0.00     0.217 HD
ENDBRANCH  28  29
BRANCH  28  31
HETATM   31  C7  UNL     1      41.120   5.151   8.718  1.00  0.00     0.144 A
HETATM   32  N6  UNL     1      40.623   6.350   8.235  1.00  0.00    -0.337 N
HETATM   33  C8  UNL     1      40.896   6.846   7.034  1.00  0.00     0.086 A
ATOM     34  H6  UNL     1      40.005   6.887   8.843  1.00  0.00     0.167 HD
HETATM   35  C10 UNL     1      41.727   6.135   6.199  1.00  0.00     0.108 A
HETATM   36  C11 UNL     1      42.246   4.943   6.628  1.00  0.00     0.249 A
HETATM   37  O6  UNL     1      43.011   4.244   5.916  1.00  0.00    -0.268 OA
HETATM   38  N11 UNL     1      41.920   4.490   7.886  1.00  0.00    -0.307 N
ATOM     39  H11 UNL     1      42.312   3.600   8.196  1.00  0.00     0.170 HD
BRANCH  33  40
HETATM   40  C9  UNL     1      40.325   8.135   6.590  1.00  0.00     0.164 A
HETATM   41  N7  UNL     1      40.969   9.305   6.609  1.00  0.00    -0.267 N
HETATM   42  N8  UNL     1      40.117  10.203   6.135  1.00  0.00    -0.227 N
ATOM     43  H7  UNL     1      41.925   9.474   6.924  1.00  0.00     0.190 HD
HETATM   44  N9  UNL     1      38.974   9.655   5.821  1.00  0.00    -0.227 N
ATOM     45  H8  UNL     1      40.328  11.195   6.029  1.00  0.00     0.210 HD
HETATM   46  N10 UNL     1      39.099   8.354   6.105  1.00  0.00    -0.267 N
ATOM     47  H9  UNL     1      38.154  10.123   5.437  1.00  0.00     0.210 HD
ATOM     48  H10 UNL     1      38.377   7.646   5.972  1.00  0.00     0.190 HD
ENDBRANCH  33  40
ENDBRANCH  28  31
ENDBRANCH   1  28
TORSDOF 12
ENDMDL