MODEL 4
REMARK VINA RESULT: -6.600111865      3.177      6.548
REMARK  12 active torsions:
REMARK  status: ('A' for Active; 'I' for Inactive)
REMARK    1  A    between atoms: C2_6  and  C3_7
REMARK    2  A    between atoms: C3_7  and  O3_9
REMARK    3  A    between atoms: O3_9  and  C4_10
REMARK    4  A    between atoms: C5_13  and  N4_14
REMARK    5  A    between atoms: C6_17  and  C7_18
REMARK       I    between atoms: C7_18  and  N5_20
REMARK    6  A    between atoms: N6_22  and  C8_24
REMARK    7  A    between atoms: C8_24  and  O5_25
REMARK    8  A    between atoms: C8_24  and  O6_27
REMARK    9  A    between atoms: C10_30  and  N7_31
REMARK   10  A    between atoms: C12_35  and  C13_36
REMARK   11  A    between atoms: C13_36  and  O7_37
REMARK   12  A    between atoms: C13_36  and  O8_39
ROOT
HETATM    1  C4  UNL     1      36.666   5.852  20.822  1.00  0.00     0.255 A
HETATM    2  N3  UNL     1      36.698   6.428  22.027  1.00  0.00    -0.306 N
ATOM      3  H3  UNL     1      36.290   5.913  22.807  1.00  0.00     0.171 HD
HETATM    4  C5  UNL     1      37.217   7.607  22.283  1.00  0.00     0.120 A
HETATM    5  C6  UNL     1      37.780   8.326  21.218  1.00  0.00     0.108 A
HETATM    6  C9  UNL     1      37.766   7.760  19.944  1.00  0.00     0.106 A
HETATM    7  C10 UNL     1      38.327   8.488  18.892  1.00  0.00     0.058 A
HETATM    8  C11 UNL     1      38.268   7.851  17.625  1.00  0.00     0.063 A
HETATM    9  C12 UNL     1      37.699   6.627  17.505  1.00  0.00     0.083 A
HETATM   10  N8  UNL     1      37.187   6.004  18.578  1.00  0.00    -0.290 N
ATOM     11  H8  UNL     1      36.764   5.083  18.464  1.00  0.00     0.187 HD
HETATM   12  N9  UNL     1      37.218   6.556  19.778  1.00  0.00    -0.215 N
ENDROOT
BRANCH   5  13
HETATM   13  C7  UNL     1      38.325   9.618  21.517  1.00  0.00     0.276 C
HETATM   14  O4  UNL     1      39.511   9.723  21.906  1.00  0.00    -0.266 OA
HETATM   15  N5  UNL     1      37.525  10.783  21.381  1.00  0.00    -0.266 N
HETATM   16  N6  UNL     1      37.152  11.504  22.362  1.00  0.00    -0.282 N
ATOM     17  H5  UNL     1      37.233  11.059  20.444  1.00  0.00     0.190 HD
ATOM     18  H6  UNL     1      37.413  11.278  23.322  1.00  0.00     0.185 HD
BRANCH  16  19
HETATM   19  C8  UNL     1      36.338  12.661  22.047  1.00  0.00     0.380 C
BRANCH  19  20
HETATM   20  O5  UNL     1      35.772  12.495  20.804  1.00  0.00    -0.354 OA
ATOM     21  H5  UNL     1      35.496  13.340  20.468  1.00  0.00     0.214 HD
ENDBRANCH  19  20
BRANCH  19  22
HETATM   22  O6  UNL     1      35.417  12.948  23.031  1.00  0.00    -0.354 OA
ATOM     23  H6  UNL     1      35.327  12.247  23.664  1.00  0.00     0.214 HD
ENDBRANCH  19  22
ENDBRANCH  16  19
ENDBRANCH   5  13
BRANCH   4  24
HETATM   24  N4  UNL     1      37.248   8.166  23.452  1.00  0.00    -0.384 N
ATOM     25  H42 UNL     1      37.523   7.577  24.239  1.00  0.00     0.157 HD
ATOM     26  H41 UNL     1      37.019   9.142  23.639  1.00  0.00     0.157 HD
ENDBRANCH   4  24
BRANCH   7  27
HETATM   27  N7  UNL     1      38.852   9.569  19.005  1.00  0.00    -0.397 N
ATOM     28  H72 UNL     1      39.536   9.734  19.744  1.00  0.00     0.156 HD
ATOM     29  H71 UNL     1      38.654  10.376  18.414  1.00  0.00     0.156 HD
ENDBRANCH   7  27
BRANCH   1  30
HETATM   30  O3  UNL     1      36.119   4.612  20.543  1.00  0.00    -0.238 OA
BRANCH  30  31
HETATM   31  C3  UNL     1      36.327   3.510  21.354  1.00  0.00     0.339 C
HETATM   32  O2  UNL     1      35.827   3.566  22.527  1.00  0.00    -0.255 OA
BRANCH  31  33
HETATM   33  C2  UNL     1      37.072   2.339  20.909  1.00  0.00     0.228 A
HETATM   34  N1  UNL     1      38.094   2.049  20.129  1.00  0.00    -0.214 N
HETATM   35  C1  UNL     1      39.018   2.825  19.326  1.00  0.00     0.190 C
HETATM   36  O1  UNL     1      37.931   0.767  20.399  1.00  0.00    -0.151 OA
HETATM   37  N2  UNL     1      36.938   1.025  21.159  1.00  0.00    -0.218 N
ATOM     38  H2  UNL     1      36.301   0.463  21.725  1.00  0.00     0.198 HD
ENDBRANCH  31  33
ENDBRANCH  30  31
ENDBRANCH   1  30
BRANCH   9  39
HETATM   39  C13 UNL     1      37.651   5.989  16.148  1.00  0.00     0.306 C
BRANCH  39  40
HETATM   40  O7  UNL     1      37.846   4.632  16.174  1.00  0.00    -0.366 OA
ATOM     41  H7  UNL     1      37.346   4.165  15.515  1.00  0.00     0.213 HD
ENDBRANCH  39  40
BRANCH  39  42
HETATM   42  O8  UNL     1      36.396   6.276  15.596  1.00  0.00    -0.366 OA
ATOM     43  H8  UNL     1      36.163   7.157  15.864  1.00  0.00     0.213 HD
ENDBRANCH  39  42
ENDBRANCH   9  39
TORSDOF 12
ENDMDL