MODEL 1
REMARK VINA RESULT: -6.224612343      0.000      0.000
REMARK  12 active torsions:
REMARK  status: ('A' for Active; 'I' for Inactive)
REMARK    1  A    between atoms: C2_2  and  O1_3
REMARK    2  A    between atoms: O1_3  and  C3_4
REMARK    3  A    between atoms: C6_9  and  N2_10
REMARK    4  A    between atoms: C9_16  and  O3_17
REMARK    5  A    between atoms: N4_19  and  C10_20
REMARK    6  A    between atoms: C10_20  and  O4_21
REMARK    7  A    between atoms: C10_20  and  C11_23
REMARK    8  A    between atoms: C11_23  and  C12_25
REMARK    9  A    between atoms: C12_25  and  N5_26
REMARK   10  A    between atoms: C12_25  and  O6_30
REMARK   11  A    between atoms: C14_35  and  O8_36
REMARK   12  A    between atoms: C15_38  and  O9_39
ROOT
HETATM    1  N2  UNL     1      37.029   4.269  13.820  1.00  0.00    -0.173 N
HETATM    2  C7  UNL     1      36.071   4.966  13.184  1.00  0.00     0.349 A
HETATM    3  O2  UNL     1      35.510   4.703  12.087  1.00  0.00    -0.244 OA
HETATM    4  N3  UNL     1      35.754   6.064  13.913  1.00  0.00    -0.288 N
ATOM      5  H3  UNL     1      35.063   6.778  13.685  1.00  0.00     0.172 HD
HETATM    6  C8  UNL     1      36.544   6.013  15.006  1.00  0.00     0.188 A
HETATM    7  C9  UNL     1      36.904   6.639  16.205  1.00  0.00     0.196 A
HETATM    8  N4  UNL     1      37.849   5.937  16.816  1.00  0.00    -0.240 N
HETATM    9  C13 UNL     1      38.105   4.872  16.034  1.00  0.00     0.354 A
HETATM   10  O7  UNL     1      38.936   3.960  16.252  1.00  0.00    -0.244 OA
HETATM   11  N6  UNL     1      37.321   4.920  14.948  1.00  0.00    -0.171 N
ENDROOT
BRANCH   1  12
HETATM   12  C6  UNL     1      37.613   3.056  13.353  1.00  0.00     0.169 A
HETATM   13  N1  UNL     1      38.923   2.967  13.067  1.00  0.00    -0.340 N
HETATM   14  C4  UNL     1      39.511   1.845  12.626  1.00  0.00     0.043 A
ATOM     15  H1  UNL     1      39.501   3.797  13.191  1.00  0.00     0.167 HD
HETATM   16  C3  UNL     1      38.702   0.722  12.463  1.00  0.00     0.127 A
HETATM   17  C5  UNL     1      40.981   1.783  12.318  1.00  0.00     0.071 C
HETATM   18  C15 UNL     1      37.358   0.747  12.737  1.00  0.00     0.138 A
HETATM   19  C14 UNL     1      36.811   1.946  13.192  1.00  0.00     0.148 A
BRANCH  16  20
HETATM   20  O1  UNL     1      39.313  -0.414  12.015  1.00  0.00    -0.347 OA
BRANCH  20  21
HETATM   21  C2  UNL     1      39.675  -1.474  12.851  1.00  0.00     0.171 C
HETATM   22  C1  UNL     1      41.085  -1.961  12.628  1.00  0.00     0.034 C
ENDBRANCH  20  21
ENDBRANCH  16  20
BRANCH  18  23
HETATM   23  O9  UNL     1      36.528  -0.348  12.588  1.00  0.00    -0.356 OA
ATOM     24  H9  UNL     1      35.683  -0.426  13.013  1.00  0.00     0.218 HD
ENDBRANCH  18  23
BRANCH  19  25
HETATM   25  O8  UNL     1      35.452   2.000  13.477  1.00  0.00    -0.355 OA
ATOM     26  H8  UNL     1      34.942   1.205  13.574  1.00  0.00     0.218 HD
ENDBRANCH  19  25
ENDBRANCH   1  12
BRANCH   7  27
HETATM   27  O3  UNL     1      36.341   7.809  16.656  1.00  0.00    -0.343 OA
ATOM     28  H3  UNL     1      36.783   8.420  17.235  1.00  0.00     0.219 HD
ENDBRANCH   7  27
BRANCH   8  29
HETATM   29  C10 UNL     1      38.521   6.201  18.078  1.00  0.00     0.306 C
BRANCH  29  30
HETATM   30  O4  UNL     1      39.835   5.814  18.073  1.00  0.00    -0.369 OA
ATOM     31  H4  UNL     1      40.329   6.175  18.800  1.00  0.00     0.212 HD
ENDBRANCH  29  30
BRANCH  29  32
HETATM   32  C11 UNL     1      37.805   5.589  19.221  1.00  0.00     0.231 C
HETATM   33  O5  UNL     1      36.684   5.910  19.572  1.00  0.00    -0.288 OA
BRANCH  32  34
HETATM   34  C12 UNL     1      38.483   4.518  19.996  1.00  0.00     0.391 C
BRANCH  34  35
HETATM   35  N5  UNL     1      38.444   3.236  19.324  1.00  0.00    -0.046 N
ATOM     36  H53 UNL     1      37.486   2.969  19.100  1.00  0.00     0.277 HD
ATOM     37  H52 UNL     1      38.821   3.305  18.379  1.00  0.00     0.277 HD
ATOM     38  H51 UNL     1      38.914   2.501  19.853  1.00  0.00     0.277 HD
ENDBRANCH  34  35
BRANCH  34  39
HETATM   39  O6  UNL     1      37.932   4.356  21.257  1.00  0.00    -0.364 OA
ATOM     40  H6  UNL     1      38.491   4.704  21.941  1.00  0.00     0.212 HD
ENDBRANCH  34  39
ENDBRANCH  32  34
ENDBRANCH  29  32
ENDBRANCH   8  29
TORSDOF 12
ENDMDL