MODEL 3
REMARK VINA RESULT: -6.405978046      5.360      8.421
REMARK  10 active torsions:
REMARK  status: ('A' for Active; 'I' for Inactive)
REMARK    1  A    between atoms: C2_2  and  N1_3
REMARK    2  A    between atoms: C2_2  and  O1_7
REMARK    3  A    between atoms: O1_7  and  C3_8
REMARK    4  A    between atoms: C3_8  and  C4_10
REMARK    5  A    between atoms: C5_15  and  N4_16
REMARK    6  A    between atoms: N5_21  and  N6_22
REMARK       I    between atoms: N6_22  and  C6_24
REMARK    7  A    between atoms: C6_24  and  C7_26
REMARK    8  A    between atoms: C7_26  and  S2_27
REMARK    9  A    between atoms: S2_27  and  C8_28
REMARK   10  A    between atoms: N8_33  and  N9_34
ROOT
HETATM    1  C4  UNL     1      37.294   4.503  13.828  1.00  0.00     0.328 C
HETATM    2  N2  UNL     1      37.232   5.811  13.252  1.00  0.00    -0.304 N
ATOM      3  H2  UNL     1      36.328   6.240  13.055  1.00  0.00     0.183 HD
HETATM    4  N3  UNL     1      38.360   6.472  12.971  1.00  0.00    -0.298 N
ATOM      5  H3  UNL     1      38.560   7.355  13.441  1.00  0.00     0.183 HD
HETATM    6  C5  UNL     1      39.281   5.955  12.026  1.00  0.00     0.381 C
HETATM    7  S1  UNL     1      39.517   4.177  12.422  1.00  0.00     0.023 SA
HETATM    8  N5  UNL     1      38.563   3.923  13.897  1.00  0.00    -0.224 N
ENDROOT
BRANCH   8   9
HETATM    9  N6  UNL     1      39.320   3.965  15.014  1.00  0.00    -0.259 N
HETATM   10  C6  UNL     1      39.637   5.042  15.888  1.00  0.00     0.246 C
HETATM   11  O3  UNL     1      39.164   6.166  15.634  1.00  0.00    -0.271 OA
ATOM     12  H6  UNL     1      39.736   3.071  15.276  1.00  0.00     0.191 HD
BRANCH  10  13
HETATM   13  C7  UNL     1      40.506   4.745  17.032  1.00  0.00     0.186 C
BRANCH  13  14
HETATM   14  S2  UNL     1      40.087   3.289  17.936  1.00  0.00    -0.083 SA
BRANCH  14  15
HETATM   15  C8  UNL     1      38.702   3.507  19.020  1.00  0.00     0.167 A
HETATM   16  N7  UNL     1      38.034   4.711  19.112  1.00  0.00    -0.320 N
HETATM   17  C9  UNL     1      37.082   4.595  20.037  1.00  0.00     0.131 A
ATOM     18  H7  UNL     1      38.236   5.549  18.565  1.00  0.00     0.169 HD
HETATM   19  C10 UNL     1      37.162   3.317  20.517  1.00  0.00     0.097 A
HETATM   20  N11 UNL     1      36.077   5.438  20.589  1.00  0.00    -0.359 N
HETATM   21  N8  UNL     1      38.158   2.653  19.892  1.00  0.00    -0.239 N
HETATM   22  C11 UNL     1      36.224   2.895  21.561  1.00  0.00     0.179 C
HETATM   23  N10 UNL     1      35.812   3.934  22.450  1.00  0.00    -0.401 N
HETATM   24  C12 UNL     1      35.429   5.165  21.840  1.00  0.00     0.240 C
ATOM     25  H10 UNL     1      35.793   3.803  23.461  1.00  0.00     0.155 HD
ATOM     26  H11 UNL     1      35.804   6.274  20.072  1.00  0.00     0.162 HD
BRANCH  21  27
HETATM   27  N9  UNL     1      38.554   1.319  20.172  1.00  0.00    -0.336 N
ATOM     28  H92 UNL     1      39.352   0.842  19.753  1.00  0.00     0.177 HD
ATOM     29  H91 UNL     1      38.096   0.644  20.785  1.00  0.00     0.177 HD
ENDBRANCH  21  27
ENDBRANCH  14  15
ENDBRANCH  13  14
ENDBRANCH  10  13
ENDBRANCH   8   9
BRANCH   1  30
HETATM   30  C3  UNL     1      36.462   3.628  12.904  1.00  0.00     0.307 C
HETATM   31  O2  UNL     1      35.990   4.010  11.835  1.00  0.00    -0.261 OA
BRANCH  30  32
HETATM   32  O1  UNL     1      36.246   2.323  13.341  1.00  0.00    -0.285 OA
BRANCH  32  33
HETATM   33  C2  UNL     1      36.776   1.203  12.654  1.00  0.00     0.323 C
HETATM   34  C1  UNL     1      37.856   0.532  13.458  1.00  0.00     0.071 C
BRANCH  33  35
HETATM   35  N1  UNL     1      35.679   0.241  12.403  1.00  0.00    -0.053 N
ATOM     36  H13 UNL     1      35.940  -0.471  11.720  1.00  0.00     0.277 HD
ATOM     37  H12 UNL     1      35.517  -0.375  13.199  1.00  0.00     0.277 HD
ATOM     38  H11 UNL     1      34.838   0.749  12.129  1.00  0.00     0.277 HD
ENDBRANCH  33  35
ENDBRANCH  32  33
ENDBRANCH  30  32
ENDBRANCH   1  30
BRANCH   6  39
HETATM   39  N4  UNL     1      38.972   6.145  10.647  1.00  0.00    -0.046 N
ATOM     40  H43 UNL     1      38.509   5.312  10.285  1.00  0.00     0.277 HD
ATOM     41  H42 UNL     1      38.223   6.830  10.558  1.00  0.00     0.277 HD
ATOM     42  H41 UNL     1      39.742   6.401  10.029  1.00  0.00     0.277 HD
ENDBRANCH   6  39
TORSDOF 10
ENDMDL