MODEL 5
REMARK VINA RESULT: -6.608831534      2.538      6.675
REMARK  12 active torsions:
REMARK  status: ('A' for Active; 'I' for Inactive)
REMARK    1  A    between atoms: C3_3  and  C4_4
REMARK    2  A    between atoms: C4_4  and  N1_5
REMARK    3  A    between atoms: C4_4  and  N2_8
REMARK    4  A    between atoms: N2_8  and  C5_10
REMARK    5  A    between atoms: C6_13  and  C7_14
REMARK    6  A    between atoms: N6_19  and  N7_20
REMARK    7  A    between atoms: C8_23  and  N8_24
REMARK    8  A    between atoms: N8_24  and  O2_26
REMARK    9  A    between atoms: O2_26  and  C9_27
REMARK       I    between atoms: C9_27  and  N9_29
REMARK   10  A    between atoms: N9_29  and  O4_31
REMARK   11  A    between atoms: N12_37  and  C10_38
REMARK   12  A    between atoms: C11_44  and  N15_45
ROOT
HETATM    1  N2  UNL     1      40.034   2.261  13.832  1.00  0.00    -0.324 N
ATOM      2  H2  UNL     1      40.062   2.661  14.769  1.00  0.00     0.169 HD
ENDROOT
BRANCH   1   3
HETATM    3  C4  UNL     1      39.894   0.854  13.708  1.00  0.00     0.131 C
BRANCH   3   4
HETATM    4  C3  UNL     1      38.614   0.265  13.430  1.00  0.00     0.117 A
HETATM    5  C2  UNL     1      38.168  -1.031  13.336  1.00  0.00     0.066 A
HETATM    6  C1  UNL     1      39.019  -2.227  13.523  1.00  0.00     0.073 C
HETATM    7  N12 UNL     1      36.837  -1.047  13.045  1.00  0.00    -0.223 N
HETATM    8  N11 UNL     1      36.464   0.216  12.963  1.00  0.00    -0.234 N
HETATM    9  N10 UNL     1      37.493   1.009  13.185  1.00  0.00    -0.280 N
ATOM     10  H11 UNL     1      35.517   0.533  12.756  1.00  0.00     0.209 HD
ATOM     11  H10 UNL     1      37.458   2.028  13.176  1.00  0.00     0.188 HD
BRANCH   7  12
HETATM   12  C10 UNL     1      36.043  -2.214  12.875  1.00  0.00     0.196 A
HETATM   13  N13 UNL     1      35.504  -3.038  13.788  1.00  0.00    -0.220 N
HETATM   14  O5  UNL     1      34.850  -3.984  13.185  1.00  0.00    -0.153 OA
ATOM     15  H13 UNL     1      35.594  -2.936  14.799  1.00  0.00     0.198 HD
HETATM   16  N14 UNL     1      34.912  -3.852  11.894  1.00  0.00    -0.222 N
HETATM   17  C11 UNL     1      35.651  -2.753  11.650  1.00  0.00     0.169 A
ATOM     18  H14 UNL     1      34.484  -4.462  11.199  1.00  0.00     0.198 HD
BRANCH  17  19
HETATM   19  N15 UNL     1      35.928  -2.308  10.476  1.00  0.00    -0.381 N
ATOM     20 2H15 UNL     1      36.247  -1.360  10.278  1.00  0.00     0.157 HD
ATOM     21 1H15 UNL     1      35.873  -2.815   9.592  1.00  0.00     0.157 HD
ENDBRANCH  17  19
ENDBRANCH   7  12
ENDBRANCH   3   4
BRANCH   3  22
HETATM   22  N1  UNL     1      40.932   0.125  13.848  1.00  0.00    -0.383 N
ATOM     23  H12 UNL     1      41.840   0.522  13.607  1.00  0.00     0.157 HD
ATOM     24  H11 UNL     1      40.856  -0.832  14.192  1.00  0.00     0.157 HD
ENDBRANCH   3  22
ENDBRANCH   1   3
BRANCH   1  25
HETATM   25  C5  UNL     1      40.134   3.128  12.740  1.00  0.00     0.159 A
HETATM   26  N3  UNL     1      41.104   2.871  11.804  1.00  0.00    -0.320 N
HETATM   27  C6  UNL     1      41.276   3.649  10.725  1.00  0.00     0.189 A
ATOM     28  H3  UNL     1      41.714   2.064  11.933  1.00  0.00     0.169 HD
HETATM   29  N5  UNL     1      40.453   4.701  10.591  1.00  0.00    -0.258 N
HETATM   30  N6  UNL     1      39.507   4.991  11.460  1.00  0.00    -0.179 N
ATOM     31  H5  UNL     1      40.565   5.305   9.777  1.00  0.00     0.191 HD
HETATM   32  C8  UNL     1      39.321   4.199  12.575  1.00  0.00     0.209 A
BRANCH  27  33
HETATM   33  C7  UNL     1      42.322   3.358   9.729  1.00  0.00     0.300 C
HETATM   34  N4  UNL     1      42.395   4.195   8.589  1.00  0.00    -0.054 NA
HETATM   35  O1  UNL     1      43.123   2.414   9.869  1.00  0.00    -0.268 OA
ENDBRANCH  27  33
BRANCH  30  36
HETATM   36  N7  UNL     1      38.682   6.106  11.260  1.00  0.00    -0.322 N
ATOM     37  H72 UNL     1      38.916   6.991  11.708  1.00  0.00     0.179 HD
ATOM     38  H71 UNL     1      37.854   6.032  10.669  1.00  0.00     0.179 HD
ENDBRANCH  30  36
BRANCH  32  39
HETATM   39  N8  UNL     1      38.418   4.536  13.337  1.00  0.00    -0.234 N
ATOM     40  H8  UNL     1      38.547   5.517  13.586  1.00  0.00     0.197 HD
BRANCH  39  41
HETATM   41  O2  UNL     1      37.351   4.085  13.942  1.00  0.00    -0.178 OA
BRANCH  41  42
HETATM   42  C9  UNL     1      36.035   4.218  13.584  1.00  0.00     0.406 C
HETATM   43  O3  UNL     1      35.358   3.139  13.492  1.00  0.00    -0.234 OA
HETATM   44  N9  UNL     1      35.416   5.459  13.320  1.00  0.00    -0.211 N
ATOM     45  H9  UNL     1      35.960   6.318  13.395  1.00  0.00     0.199 HD
BRANCH  44  46
HETATM   46  O4  UNL     1      34.123   5.524  12.973  1.00  0.00    -0.285 OA
ATOM     47  H4  UNL     1      33.454   5.105  13.503  1.00  0.00     0.244 HD
ENDBRANCH  44  46
ENDBRANCH  41  42
ENDBRANCH  39  41
ENDBRANCH  32  39
ENDBRANCH   1  25
TORSDOF 12
ENDMDL