MODEL 1
REMARK VINA RESULT: -7.600876392      0.000      0.000
REMARK  13 active torsions:
REMARK  status: ('A' for Active; 'I' for Inactive)
REMARK    1  A    between atoms: N1_2  and  N2_3
REMARK    2  A    between atoms: N1_2  and  C2_6
REMARK    3  A    between atoms: C3_9  and  N4_10
REMARK    4  A    between atoms: N4_10  and  C4_12
REMARK    5  A    between atoms: C5_17  and  C6_18
REMARK    6  A    between atoms: C6_18  and  C7_19
REMARK    7  A    between atoms: C8_22  and  C9_23
REMARK    8  A    between atoms: C10_26  and  C11_27
REMARK    9  A    between atoms: C11_27  and  O2_28
REMARK   10  A    between atoms: C11_27  and  O3_30
REMARK   11  A    between atoms: C12_34  and  O4_35
REMARK   12  A    between atoms: C13_40  and  N11_41
REMARK   13  A    between atoms: N12_44  and  N13_45
ROOT
HETATM    1  C4  UNL     1      36.407   4.804  14.296  1.00  0.00     0.259 A
HETATM    2  N5  UNL     1      35.872   6.059  14.335  1.00  0.00    -0.263 N
ATOM      3  H5  UNL     1      35.151   6.413  13.706  1.00  0.00     0.190 HD
HETATM    4  N6  UNL     1      36.436   6.745  15.316  1.00  0.00    -0.280 N
ATOM      5  H6  UNL     1      36.232   7.709  15.579  1.00  0.00     0.189 HD
HETATM    6  C5  UNL     1      37.328   5.927  15.900  1.00  0.00     0.147 A
HETATM    7  O5  UNL     1      37.278   4.774  15.257  1.00  0.00    -0.263 OA
ENDROOT
BRANCH   1   8
HETATM    8  N4  UNL     1      35.991   3.842  13.340  1.00  0.00    -0.152 N
ATOM      9  H4  UNL     1      35.086   3.962  12.884  1.00  0.00     0.188 HD
BRANCH   8  10
HETATM   10  C3  UNL     1      36.725   2.802  13.021  1.00  0.00     0.714 A
HETATM   11  N3  UNL     1      36.182   1.610  12.812  1.00  0.00    -0.018 N
HETATM   12  C2  UNL     1      36.983   0.544  12.479  1.00  0.00     0.748 A
ATOM     13  H3  UNL     1      35.173   1.485  12.899  1.00  0.00     0.203 HD
HETATM   14  N12 UNL     1      38.307   0.716  12.368  1.00  0.00     0.085 N
HETATM   15  C13 UNL     1      38.857   1.946  12.584  1.00  0.00     0.726 A
HETATM   16  N10 UNL     1      38.056   2.967  12.907  1.00  0.00    -0.020 N
ATOM     17  H10 UNL     1      38.463   3.889  13.070  1.00  0.00     0.203 HD
BRANCH  12  18
HETATM   18  N1  UNL     1      36.379  -0.719  12.260  1.00  0.00    -0.132 N
HETATM   19  C1  UNL     1      35.750  -1.197  11.069  1.00  0.00     0.197 C
BRANCH  18  20
HETATM   20  N2  UNL     1      36.398  -1.625  13.363  1.00  0.00    -0.329 N
ATOM     21  H22 UNL     1      35.663  -2.332  13.376  1.00  0.00     0.177 HD
ATOM     22  H21 UNL     1      37.147  -1.486  14.040  1.00  0.00     0.177 HD
ENDBRANCH  18  20
ENDBRANCH  12  18
BRANCH  14  23
HETATM   23  N13 UNL     1      39.179  -0.322  12.030  1.00  0.00    -0.309 N
ATOM     24 2H13 UNL     1      38.931  -0.894  11.223  1.00  0.00     0.178 HD
ATOM     25 1H13 UNL     1      40.031  -0.521  12.555  1.00  0.00     0.178 HD
ENDBRANCH  14  23
BRANCH  15  26
HETATM   26  N11 UNL     1      40.132   2.066  12.467  1.00  0.00    -0.232 N
ATOM     27 2H11 UNL     1      40.713   1.270  12.729  1.00  0.00     0.174 HD
ATOM     28 1H11 UNL     1      40.581   2.917  12.129  1.00  0.00     0.174 HD
ENDBRANCH  15  26
ENDBRANCH   8  10
ENDBRANCH   1   8
BRANCH   6  29
HETATM   29  C6  UNL     1      38.226   6.203  17.049  1.00  0.00     0.147 C
BRANCH  29  30
HETATM   30  C7  UNL     1      37.785   5.438  18.261  1.00  0.00     0.069 A
HETATM   31  N7  UNL     1      38.355   4.300  18.632  1.00  0.00    -0.350 N
HETATM   32  C8  UNL     1      37.941   3.594  19.754  1.00  0.00     0.126 A
ATOM     33  H7  UNL     1      39.124   3.929  18.072  1.00  0.00     0.166 HD
HETATM   34  C10 UNL     1      36.918   4.072  20.513  1.00  0.00     0.098 A
HETATM   35  N9  UNL     1      36.323   5.259  20.126  1.00  0.00    -0.333 N
HETATM   36  C12 UNL     1      36.751   5.907  19.039  1.00  0.00     0.164 A
ATOM     37  H9  UNL     1      35.553   5.643  20.675  1.00  0.00     0.168 HD
BRANCH  32  38
HETATM   38  C9  UNL     1      38.621   2.354  20.052  1.00  0.00     0.283 C
HETATM   39  N8  UNL     1      38.136   1.049  20.050  1.00  0.00    -0.056 NA
HETATM   40  O1  UNL     1      39.870   2.448  20.364  1.00  0.00    -0.269 OA
ENDBRANCH  32  38
BRANCH  34  41
HETATM   41  C11 UNL     1      36.414   3.467  21.760  1.00  0.00     0.307 C
BRANCH  41  42
HETATM   42  O2  UNL     1      35.472   4.385  22.355  1.00  0.00    -0.366 OA
ATOM     43  H2  UNL     1      34.613   4.203  21.992  1.00  0.00     0.213 HD
ENDBRANCH  41  42
BRANCH  41  44
HETATM   44  O3  UNL     1      35.672   2.321  21.488  1.00  0.00    -0.366 OA
ATOM     45  H3  UNL     1      34.975   2.211  22.125  1.00  0.00     0.213 HD
ENDBRANCH  41  44
ENDBRANCH  34  41
BRANCH  36  46
HETATM   46  O4  UNL     1      36.162   7.118  18.622  1.00  0.00    -0.345 OA
ATOM     47  H4  UNL     1      35.445   7.043  18.004  1.00  0.00     0.219 HD
ENDBRANCH  36  46
ENDBRANCH  29  30
ENDBRANCH   6  29
TORSDOF 13
ENDMDL