MODEL 5
REMARK VINA RESULT: -6.338758338      3.851      6.190
REMARK  11 active torsions:
REMARK  status: ('A' for Active; 'I' for Inactive)
REMARK    1  A    between atoms: C2_2  and  O1_3
REMARK    2  A    between atoms: C2_2  and  C3_5
REMARK    3  A    between atoms: C2_2  and  C11_27
REMARK    4  A    between atoms: C5_7  and  O2_8
REMARK    5  A    between atoms: O2_8  and  C6_9
REMARK    6  A    between atoms: C6_9  and  O3_10
REMARK    7  A    between atoms: O3_10  and  C7_11
REMARK    8  A    between atoms: C7_11  and  O5_13
REMARK    9  A    between atoms: O5_13  and  N1_14
REMARK       I    between atoms: N1_14  and  C8_16
REMARK   10  A    between atoms: C10_24  and  O8_25
REMARK   11  A    between atoms: C11_27  and  O9_28
ROOT
HETATM    1  C3  UNL     1      37.240   4.827  19.991  1.00  0.00     0.043 A
HETATM    2  C4  UNL     1      38.154   4.471  19.031  1.00  0.00     0.058 A
HETATM    3  C5  UNL     1      38.724   3.223  18.993  1.00  0.00     0.147 A
HETATM    4  C9  UNL     1      38.363   2.311  19.950  1.00  0.00     0.323 A
HETATM    5  O6  UNL     1      38.848   1.131  19.984  1.00  0.00    -0.257 OA
HETATM    6  O7  UNL     1      37.495   2.647  20.862  1.00  0.00    -0.249 OA
HETATM    7  C10 UNL     1      36.932   3.829  20.928  1.00  0.00     0.196 A
ENDROOT
BRANCH   1   8
HETATM    8  C2  UNL     1      36.561   6.092  20.156  1.00  0.00     0.150 C
HETATM    9  C1  UNL     1      36.379   6.708  18.769  1.00  0.00     0.058 C
BRANCH   8  10
HETATM   10  O1  UNL     1      35.252   5.834  20.624  1.00  0.00    -0.379 OA
ATOM     11  H1  UNL     1      35.064   6.534  21.238  1.00  0.00     0.211 HD
ENDBRANCH   8  10
BRANCH   8  12
HETATM   12  C11 UNL     1      37.154   7.110  21.031  1.00  0.00     0.275 C
HETATM   13  O10 UNL     1      38.537   7.132  21.121  1.00  0.00    -0.284 OA
HETATM   14  C12 UNL     1      38.859   7.851  22.283  1.00  0.00     0.194 C
HETATM   15  N4  UNL     1      39.985   8.405  22.568  1.00  0.00    -0.377 N
HETATM   16  C13 UNL     1      37.664   7.873  23.158  1.00  0.00     0.273 C
ATOM     17  H42 UNL     1      40.808   8.389  21.965  1.00  0.00     0.158 HD
ATOM     18  H41 UNL     1      40.219   8.927  23.412  1.00  0.00     0.158 HD
HETATM   19  O11 UNL     1      37.559   8.421  24.291  1.00  0.00    -0.280 OA
HETATM   20  C14 UNL     1      36.668   7.128  22.414  1.00  0.00     0.269 C
HETATM   21  O12 UNL     1      35.632   6.621  22.861  1.00  0.00    -0.282 OA
BRANCH  12  22
HETATM   22  O9  UNL     1      36.780   8.370  20.491  1.00  0.00    -0.356 OA
ATOM     23  H9  UNL     1      37.508   8.658  19.952  1.00  0.00     0.213 HD
ENDBRANCH  12  22
ENDBRANCH   8  12
ENDBRANCH   1   8
BRANCH   7  24
HETATM   24  O8  UNL     1      36.023   4.051  21.955  1.00  0.00    -0.340 OA
ATOM     25  H8  UNL     1      35.301   3.456  22.117  1.00  0.00     0.220 HD
ENDBRANCH   7  24
BRANCH   3  26
HETATM   26  O2  UNL     1      39.631   2.890  18.031  1.00  0.00    -0.319 OA
BRANCH  26  27
HETATM   27  C6  UNL     1      40.125   3.799  17.058  1.00  0.00     0.357 C
BRANCH  27  28
HETATM   28  O3  UNL     1      40.110   3.249  15.767  1.00  0.00    -0.271 OA
BRANCH  28  29
HETATM   29  C7  UNL     1      38.953   3.311  14.968  1.00  0.00     0.430 C
HETATM   30  O4  UNL     1      38.176   4.257  15.204  1.00  0.00    -0.227 OA
BRANCH  29  31
HETATM   31  O5  UNL     1      38.685   2.385  13.980  1.00  0.00    -0.172 OA
BRANCH  31  32
HETATM   32  N1  UNL     1      37.787   2.657  12.996  1.00  0.00    -0.228 N
HETATM   33  C8  UNL     1      36.464   2.138  13.051  1.00  0.00     0.206 C
HETATM   34  N2  UNL     1      36.278   0.920  12.695  1.00  0.00    -0.372 N
HETATM   35  N3  UNL     1      35.368   2.928  13.481  1.00  0.00    -0.062 NA
ATOM     36  H22 UNL     1      37.066   0.352  12.385  1.00  0.00     0.158 HD
ATOM     37  H21 UNL     1      35.329   0.548  12.735  1.00  0.00     0.158 HD
ATOM     38  H1  UNL     1      38.066   3.242  12.208  1.00  0.00     0.198 HD
ENDBRANCH  31  32
ENDBRANCH  29  31
ENDBRANCH  28  29
ENDBRANCH  27  28
ENDBRANCH  26  27
ENDBRANCH   3  26
TORSDOF 11
ENDMDL