MODEL 2
REMARK VINA RESULT: -6.341373990      1.652      2.891
REMARK  10 active torsions:
REMARK  status: ('A' for Active; 'I' for Inactive)
REMARK    1  A    between atoms: O1_2  and  C2_3
REMARK    2  A    between atoms: C3_6  and  N2_7
REMARK    3  A    between atoms: C5_14  and  N5_15
REMARK    4  A    between atoms: N5_15  and  C6_17
REMARK    5  A    between atoms: C6_17  and  O2_18
REMARK    6  A    between atoms: C6_17  and  C7_20
REMARK    7  A    between atoms: C7_20  and  N6_21
REMARK    8  A    between atoms: C7_20  and  C8_28
REMARK    9  A    between atoms: N6_21  and  N7_23
REMARK   10  A    between atoms: N11_34  and  N12_35
ROOT
HETATM    1  C6  UNL     1      36.898  -0.721  23.385  1.00  0.00     0.173 C
ENDROOT
BRANCH   1   2
HETATM    2  N5  UNL     1      37.754  -1.631  22.793  1.00  0.00    -0.329 N
ATOM      3  H5  UNL     1      37.900  -1.590  21.784  1.00  0.00     0.168 HD
BRANCH   2   4
HETATM    4  C5  UNL     1      38.455  -2.649  23.568  1.00  0.00     0.128 A
HETATM    5  C2  UNL     1      37.752  -3.802  23.842  1.00  0.00     0.187 A
HETATM    6  N1  UNL     1      38.368  -4.765  24.557  1.00  0.00    -0.168 N
HETATM    7  C3  UNL     1      39.631  -4.595  24.984  1.00  0.00     0.679 A
ATOM      8  H1  UNL     1      37.872  -5.630  24.775  1.00  0.00     0.186 HD
HETATM    9  N3  UNL     1      40.315  -3.454  24.708  1.00  0.00    -0.177 N
HETATM   10  C4  UNL     1      39.747  -2.463  23.999  1.00  0.00     0.163 A
ATOM     11  H3  UNL     1      41.272  -3.347  25.042  1.00  0.00     0.185 HD
HETATM   12  N4  UNL     1      40.436  -1.260  23.696  1.00  0.00    -0.080 NA
BRANCH   5  13
HETATM   13  O1  UNL     1      36.428  -3.963  23.386  1.00  0.00    -0.339 OA
HETATM   14  C1  UNL     1      36.234  -4.851  22.307  1.00  0.00     0.211 C
ENDBRANCH   5  13
BRANCH   7  15
HETATM   15  N2  UNL     1      40.237  -5.512  25.672  1.00  0.00    -0.234 N
ATOM     16  H22 UNL     1      41.211  -5.713  25.446  1.00  0.00     0.174 HD
ATOM     17  H21 UNL     1      39.756  -6.018  26.416  1.00  0.00     0.174 HD
ENDBRANCH   7  15
ENDBRANCH   2   4
ENDBRANCH   1   2
BRANCH   1  18
HETATM   18  O2  UNL     1      35.623  -1.072  23.193  1.00  0.00    -0.344 OA
ATOM     19  H2  UNL     1      35.089  -0.313  22.993  1.00  0.00     0.219 HD
ENDBRANCH   1  18
BRANCH   1  20
HETATM   20  C7  UNL     1      37.063   0.473  24.140  1.00  0.00     0.147 C
BRANCH  20  21
HETATM   21  N6  UNL     1      38.160   0.475  24.892  1.00  0.00    -0.279 N
ATOM     22  H6  UNL     1      38.251  -0.281  25.569  1.00  0.00     0.189 HD
BRANCH  21  23
HETATM   23  N7  UNL     1      39.176   1.383  24.852  1.00  0.00    -0.249 N
HETATM   24  N8  UNL     1      40.210   1.334  25.611  1.00  0.00    -0.331 N
ATOM     25  H82 UNL     1      40.259   0.565  26.278  1.00  0.00     0.178 HD
ATOM     26  H81 UNL     1      40.970   2.014  25.582  1.00  0.00     0.178 HD
ATOM     27  H7  UNL     1      39.110   2.147  24.179  1.00  0.00     0.207 HD
ENDBRANCH  21  23
ENDBRANCH  20  21
BRANCH  20  28
HETATM   28  C8  UNL     1      36.239   1.642  24.273  1.00  0.00     0.175 A
HETATM   29  N9  UNL     1      35.542   1.954  25.442  1.00  0.00    -0.281 N
HETATM   30  N10 UNL     1      34.944   3.097  25.312  1.00  0.00    -0.293 N
ATOM     31  H9  UNL     1      35.508   1.368  26.276  1.00  0.00     0.188 HD
HETATM   32  C9  UNL     1      35.181   3.613  24.114  1.00  0.00     0.224 A
ATOM     33  H10 UNL     1      34.371   3.538  26.032  1.00  0.00     0.187 HD
HETATM   34  N11 UNL     1      35.985   2.695  23.493  1.00  0.00    -0.237 N
BRANCH  34  35
HETATM   35  N12 UNL     1      36.489   2.954  22.208  1.00  0.00    -0.336 N
ATOM     36 2H12 UNL     1      36.017   2.575  21.386  1.00  0.00     0.177 HD
ATOM     37 1H12 UNL     1      37.285   3.539  21.956  1.00  0.00     0.177 HD
ENDBRANCH  34  35
ENDBRANCH  20  28
ENDBRANCH   1  20
TORSDOF 10
ENDMDL