MODEL 4
REMARK VINA RESULT: -7.335739593      5.286      9.310
REMARK  7 active torsions:
REMARK  status: ('A' for Active; 'I' for Inactive)
REMARK    1  A    between atoms: N1_2  and  C2_4
REMARK    2  A    between atoms: C3_7  and  C4_8
REMARK    3  A    between atoms: C4_8  and  N3_9
REMARK    4  A    between atoms: C6_11  and  C7_12
REMARK    5  A    between atoms: C7_12  and  C8_13
REMARK    6  A    between atoms: C9_18  and  N6_19
REMARK    7  A    between atoms: C11_32  and  N12_33
ROOT
HETATM    1  N3  UNL     1      35.484   3.704  23.965  1.00  0.00    -0.280 N
HETATM    2  C5  UNL     1      34.945   4.924  24.132  1.00  0.00     0.139 A
HETATM    3  C6  UNL     1      35.291   5.677  23.049  1.00  0.00     0.050 A
HETATM    4  N9  UNL     1      36.041   4.892  22.236  1.00  0.00    -0.289 N
ATOM      5  H9  UNL     1      36.455   5.159  21.342  1.00  0.00     0.188 HD
HETATM    6  N10 UNL     1      36.131   3.717  22.825  1.00  0.00    -0.240 N
ATOM      7  H10 UNL     1      36.639   2.919  22.443  1.00  0.00     0.208 HD
ENDROOT
BRANCH   1   8
HETATM    8  C4  UNL     1      35.369   2.600  24.869  1.00  0.00     0.227 C
BRANCH   8   9
HETATM    9  C3  UNL     1      36.241   1.451  24.517  1.00  0.00     0.133 A
HETATM   10  N2  UNL     1      35.746   0.318  23.995  1.00  0.00    -0.178 N
HETATM   11  C2  UNL     1      36.518  -0.736  23.669  1.00  0.00     0.693 A
ATOM     12  H2  UNL     1      34.740   0.252  23.839  1.00  0.00     0.185 HD
HETATM   13  N13 UNL     1      37.858  -0.647  23.880  1.00  0.00    -0.023 N
HETATM   14  C11 UNL     1      38.369   0.477  24.400  1.00  0.00     0.691 A
ATOM     15  H13 UNL     1      38.469  -1.429  23.645  1.00  0.00     0.203 HD
HETATM   16  N11 UNL     1      37.566   1.518  24.716  1.00  0.00    -0.178 N
ATOM     17  H11 UNL     1      37.974   2.366  25.111  1.00  0.00     0.185 HD
BRANCH  11  18
HETATM   18  N1  UNL     1      36.048  -1.830  23.164  1.00  0.00    -0.230 N
HETATM   19  C1  UNL     1      36.717  -3.065  23.532  1.00  0.00     0.165 C
ATOM     20  H1  UNL     1      35.243  -1.825  22.537  1.00  0.00     0.177 HD
ENDBRANCH  11  18
BRANCH  14  21
HETATM   21  N12 UNL     1      39.624   0.587  24.608  1.00  0.00    -0.234 N
ATOM     22 2H12 UNL     1      40.019   0.386  25.527  1.00  0.00     0.174 HD
ATOM     23 1H12 UNL     1      40.222   0.881  23.838  1.00  0.00     0.174 HD
ENDBRANCH  14  21
ENDBRANCH   8   9
ENDBRANCH   1   8
BRANCH   3  24
HETATM   24  C7  UNL     1      34.979   7.081  22.716  1.00  0.00     0.122 C
BRANCH  24  25
HETATM   25  C8  UNL     1      34.743   7.937  23.906  1.00  0.00     0.073 A
HETATM   26  N4  UNL     1      33.468   8.162  24.334  1.00  0.00    -0.287 N
HETATM   27  N5  UNL     1      33.230   8.923  25.382  1.00  0.00    -0.132 N
ATOM     28  H4  UNL     1      32.687   7.736  23.834  1.00  0.00     0.187 HD
HETATM   29  C9  UNL     1      34.193   9.523  26.097  1.00  0.00     0.691 A
ATOM     30  H5  UNL     1      32.260   9.062  25.666  1.00  0.00     0.205 HD
HETATM   31  N7  UNL     1      35.461   9.323  25.706  1.00  0.00    -0.176 N
HETATM   32  C10 UNL     1      35.738   8.547  24.631  1.00  0.00     0.156 A
ATOM     33  H7  UNL     1      36.223   9.761  26.223  1.00  0.00     0.185 HD
HETATM   34  N8  UNL     1      37.089   8.367  24.269  1.00  0.00    -0.080 NA
BRANCH  29  35
HETATM   35  N6  UNL     1      33.878  10.248  27.106  1.00  0.00    -0.233 N
ATOM     36  H62 UNL     1      33.838  11.266  27.069  1.00  0.00     0.174 HD
ATOM     37  H61 UNL     1      33.657   9.805  27.997  1.00  0.00     0.174 HD
ENDBRANCH  29  35
ENDBRANCH  24  25
ENDBRANCH   3  24
TORSDOF 7
ENDMDL