MODEL 5
REMARK VINA RESULT: -6.056489064      3.147      6.164
REMARK  10 active torsions:
REMARK  status: ('A' for Active; 'I' for Inactive)
REMARK    1  A    between atoms: O1_2  and  C2_3
REMARK    2  A    between atoms: C2_3  and  C3_5
REMARK    3  A    between atoms: C3_5  and  N5_19
REMARK    4  A    between atoms: N1_6  and  N2_8
REMARK    5  A    between atoms: C4_10  and  C5_12
REMARK    6  A    between atoms: C5_12  and  N4_13
REMARK    7  A    between atoms: C5_12  and  O3_17
REMARK    8  A    between atoms: N5_19  and  C6_21
REMARK    9  A    between atoms: C7_24  and  S1_25
REMARK   10  A    between atoms: C9_29  and  N8_30
ROOT
HETATM    1  C3  UNL     1      35.291   3.486  24.080  1.00  0.00     0.211 C
HETATM    2  N1  UNL     1      35.048   4.622  24.620  1.00  0.00    -0.279 N
ATOM      3  H1  UNL     1      34.713   4.657  25.582  1.00  0.00     0.189 HD
ENDROOT
BRANCH   1   4
HETATM    4  C2  UNL     1      35.080   2.290  24.857  1.00  0.00     0.329 C
HETATM    5  O2  UNL     1      33.962   2.016  25.343  1.00  0.00    -0.256 OA
BRANCH   4   6
HETATM    6  O1  UNL     1      36.128   1.426  25.075  1.00  0.00    -0.320 OA
HETATM    7  C1  UNL     1      36.197   0.200  24.409  1.00  0.00     0.213 C
ENDBRANCH   4   6
ENDBRANCH   1   4
BRANCH   1   8
HETATM    8  N5  UNL     1      35.756   3.473  22.739  1.00  0.00    -0.168 N
ATOM      9  H5  UNL     1      35.099   3.673  21.986  1.00  0.00     0.186 HD
BRANCH   8  10
HETATM   10  C6  UNL     1      36.983   3.215  22.446  1.00  0.00     0.700 A
HETATM   11  N6  UNL     1      37.978   3.455  23.322  1.00  0.00    -0.169 N
HETATM   12  C7  UNL     1      39.229   3.159  22.938  1.00  0.00     0.174 A
ATOM     13  H6  UNL     1      37.788   3.847  24.244  1.00  0.00     0.186 HD
HETATM   14  N7  UNL     1      39.510   2.640  21.728  1.00  0.00    -0.170 N
HETATM   15  C9  UNL     1      38.504   2.414  20.884  1.00  0.00     0.692 A
ATOM     16  H7  UNL     1      40.471   2.425  21.464  1.00  0.00     0.186 HD
HETATM   17  N9  UNL     1      37.243   2.698  21.236  1.00  0.00    -0.022 N
ATOM     18  H9  UNL     1      36.480   2.521  20.582  1.00  0.00     0.203 HD
BRANCH  12  19
HETATM   19  S1  UNL     1      40.551   3.472  24.088  1.00  0.00    -0.097 SA
HETATM   20  C8  UNL     1      40.667   2.083  25.236  1.00  0.00     0.099 C
ENDBRANCH  12  19
BRANCH  15  21
HETATM   21  N8  UNL     1      38.746   1.921  19.726  1.00  0.00    -0.234 N
ATOM     22  H82 UNL     1      38.255   2.282  18.909  1.00  0.00     0.174 HD
ATOM     23  H81 UNL     1      39.429   1.170  19.629  1.00  0.00     0.174 HD
ENDBRANCH  15  21
ENDBRANCH   8  10
ENDBRANCH   1   8
BRANCH   2  24
HETATM   24  N2  UNL     1      35.232   5.808  23.920  1.00  0.00    -0.286 N
HETATM   25  C4  UNL     1      34.278   6.658  23.885  1.00  0.00     0.164 C
HETATM   26  N3  UNL     1      33.063   6.383  24.549  1.00  0.00    -0.081 NA
ATOM     27  H2  UNL     1      36.114   5.998  23.444  1.00  0.00     0.188 HD
BRANCH  25  28
HETATM   28  C5  UNL     1      34.473   7.936  23.134  1.00  0.00     0.383 C
BRANCH  28  29
HETATM   29  N4  UNL     1      35.327   7.631  21.990  1.00  0.00    -0.046 N
ATOM     30  H43 UNL     1      34.839   7.131  21.247  1.00  0.00     0.277 HD
ATOM     31  H42 UNL     1      35.579   8.456  21.446  1.00  0.00     0.277 HD
ATOM     32  H41 UNL     1      36.137   7.126  22.349  1.00  0.00     0.277 HD
ENDBRANCH  28  29
BRANCH  28  33
HETATM   33  O3  UNL     1      33.223   8.376  22.698  1.00  0.00    -0.365 OA
ATOM     34  H3  UNL     1      33.359   9.108  22.108  1.00  0.00     0.212 HD
ENDBRANCH  28  33
ENDBRANCH  25  28
ENDBRANCH   2  24
TORSDOF 10
ENDMDL