MODEL 5
REMARK VINA RESULT: -6.998397213      6.402      9.250
REMARK  6 active torsions:
REMARK  status: ('A' for Active; 'I' for Inactive)
REMARK    1  A    between atoms: O1_2  and  C2_3
REMARK    2  A    between atoms: C3_6  and  N2_7
REMARK    3  A    between atoms: C4_12  and  N4_13
REMARK    4  A    between atoms: N4_13  and  N5_15
REMARK    5  A    between atoms: C5_17  and  C7_19
REMARK       I    between atoms: N7_22  and  C8_23
REMARK       I    between atoms: C8_23  and  N9_27
REMARK    6  A    between atoms: N9_27  and  N10_29
ROOT
HETATM    1  N5  UNL     1      35.392   2.585  24.816  1.00  0.00    -0.287 N
ATOM      2  H5  UNL     1      34.486   2.722  25.264  1.00  0.00     0.187 HD
HETATM    3  C5  UNL     1      35.590   3.341  23.838  1.00  0.00     0.075 C
HETATM    4  C6  UNL     1      34.563   4.327  23.417  1.00  0.00     0.074 C
ENDROOT
BRANCH   1   5
HETATM    5  N4  UNL     1      36.150   1.616  25.399  1.00  0.00    -0.131 N
ATOM      6  H4  UNL     1      36.326   1.649  26.403  1.00  0.00     0.205 HD
BRANCH   5   7
HETATM    7  C4  UNL     1      36.644   0.659  24.699  1.00  0.00     0.714 A
HETATM    8  N3  UNL     1      37.966   0.564  24.537  1.00  0.00    -0.021 N
HETATM    9  C3  UNL     1      38.447  -0.460  23.784  1.00  0.00     0.693 A
ATOM     10  H3  UNL     1      38.597   1.241  24.966  1.00  0.00     0.203 HD
HETATM   11  N1  UNL     1      37.617  -1.370  23.206  1.00  0.00    -0.154 N
HETATM   12  C2  UNL     1      36.298  -1.263  23.376  1.00  0.00     0.252 A
ATOM     13  H1  UNL     1      38.002  -2.131  22.646  1.00  0.00     0.188 HD
HETATM   14  N11 UNL     1      35.833  -0.240  24.127  1.00  0.00    -0.152 N
ATOM     15  H11 UNL     1      34.826  -0.149  24.264  1.00  0.00     0.188 HD
BRANCH   9  16
HETATM   16  N2  UNL     1      39.726  -0.532  23.642  1.00  0.00    -0.234 N
ATOM     17  H22 UNL     1      40.174   0.212  23.106  1.00  0.00     0.174 HD
ATOM     18  H21 UNL     1      40.265  -1.296  24.049  1.00  0.00     0.174 HD
ENDBRANCH   9  16
BRANCH  12  19
HETATM   19  O1  UNL     1      35.369  -2.138  22.827  1.00  0.00    -0.326 OA
HETATM   20  C1  UNL     1      35.716  -3.524  22.892  1.00  0.00     0.213 C
ENDBRANCH  12  19
ENDBRANCH   5   7
ENDBRANCH   1   5
BRANCH   3  21
HETATM   21  C7  UNL     1      36.819   3.271  23.070  1.00  0.00     0.192 A
HETATM   22  N6  UNL     1      36.877   3.017  21.821  1.00  0.00    -0.252 N
HETATM   23  N7  UNL     1      38.177   3.010  21.330  1.00  0.00    -0.022 N
ATOM     24  H6  UNL     1      36.055   2.839  21.243  1.00  0.00     0.190 HD
HETATM   25  C8  UNL     1      38.627   2.768  20.005  1.00  0.00     0.716 C
HETATM   26  C9  UNL     1      38.988   3.304  22.471  1.00  0.00     0.407 A
HETATM   27  N8  UNL     1      37.771   2.521  19.083  1.00  0.00    -0.231 N
HETATM   28  N9  UNL     1      40.013   2.795  19.691  1.00  0.00    -0.137 N
ATOM     29  H82 UNL     1      36.777   2.502  19.308  1.00  0.00     0.174 HD
ATOM     30  H81 UNL     1      38.094   2.347  18.132  1.00  0.00     0.174 HD
ATOM     31  H9  UNL     1      40.585   1.986  19.933  1.00  0.00     0.205 HD
HETATM   32  O2  UNL     1      40.240   3.403  22.518  1.00  0.00    -0.235 OA
HETATM   33  O3  UNL     1      38.123   3.464  23.543  1.00  0.00    -0.238 OA
BRANCH  28  34
HETATM   34  N10 UNL     1      40.628   3.891  19.059  1.00  0.00    -0.331 N
ATOM     35 2H10 UNL     1      41.495   4.243  19.464  1.00  0.00     0.177 HD
ATOM     36 1H10 UNL     1      40.243   4.334  18.226  1.00  0.00     0.177 HD
ENDBRANCH  28  34
ENDBRANCH   3  21
TORSDOF 6
ENDMDL