MODEL 2
REMARK VINA RESULT: -6.242743173      2.346      6.099
REMARK  8 active torsions:
REMARK  status: ('A' for Active; 'I' for Inactive)
REMARK    1  A    between atoms: O1_2  and  N1_3
REMARK    2  A    between atoms: N1_3  and  C2_5
REMARK    3  A    between atoms: C3_8  and  N3_9
REMARK    4  A    between atoms: N3_9  and  N4_11
REMARK    5  A    between atoms: C4_16  and  C5_17
REMARK    6  A    between atoms: C5_17  and  N8_22
REMARK    7  A    between atoms: N8_22  and  C7_24
REMARK    8  A    between atoms: C8_31  and  C9_32
ROOT
HETATM    1  C5  UNL     1      35.342   5.045  23.218  1.00  0.00     0.158 C
HETATM    2  N6  UNL     1      34.188   4.983  23.814  1.00  0.00    -0.277 N
ATOM      3  H6  UNL     1      33.837   4.087  24.153  1.00  0.00     0.179 HD
HETATM    4  C6  UNL     1      33.437   6.125  23.990  1.00  0.00     0.183 C
HETATM    5  N7  UNL     1      32.781   7.092  24.129  1.00  0.00    -0.172 NA
ENDROOT
BRANCH   1   6
HETATM    6  C4  UNL     1      36.060   3.787  23.079  1.00  0.00     0.113 A
HETATM    7  N5  UNL     1      36.848   3.581  21.973  1.00  0.00    -0.185 N
HETATM    8  C3  UNL     1      37.536   2.469  21.762  1.00  0.00     0.698 A
ATOM      9  H5  UNL     1      36.906   4.324  21.277  1.00  0.00     0.184 HD
HETATM   10  N2  UNL     1      37.456   1.493  22.682  1.00  0.00    -0.172 N
HETATM   11  C2  UNL     1      36.716   1.597  23.791  1.00  0.00     0.158 A
ATOM     12  H2  UNL     1      37.983   0.634  22.529  1.00  0.00     0.186 HD
HETATM   13  C8  UNL     1      35.992   2.781  23.999  1.00  0.00     0.106 A
BRANCH   8  14
HETATM   14  N3  UNL     1      38.350   2.251  20.624  1.00  0.00    -0.138 N
ATOM     15  H3  UNL     1      39.276   1.832  20.722  1.00  0.00     0.205 HD
BRANCH  14  16
HETATM   16  N4  UNL     1      37.872   2.614  19.372  1.00  0.00    -0.331 N
ATOM     17  H42 UNL     1      36.868   2.716  19.229  1.00  0.00     0.177 HD
ATOM     18  H41 UNL     1      38.537   2.773  18.615  1.00  0.00     0.177 HD
ENDBRANCH  14  16
ENDBRANCH   8  14
BRANCH  11  19
HETATM   19  N1  UNL     1      36.620   0.684  24.685  1.00  0.00    -0.250 N
ATOM     20  H1  UNL     1      36.246   0.887  25.612  1.00  0.00     0.196 HD
BRANCH  19  21
HETATM   21  O1  UNL     1      37.042  -0.580  24.345  1.00  0.00    -0.284 OA
HETATM   22  C1  UNL     1      36.310  -1.454  23.523  1.00  0.00     0.237 C
ENDBRANCH  19  21
ENDBRANCH  11  19
BRANCH  13  23
HETATM   23  C9  UNL     1      35.186   2.852  25.183  1.00  0.00     0.271 C
HETATM   24  N13 UNL     1      34.094   1.929  25.424  1.00  0.00    -0.057 NA
HETATM   25  O2  UNL     1      35.326   3.685  26.105  1.00  0.00    -0.271 OA
ENDBRANCH  13  23
ENDBRANCH   1   6
BRANCH   1  26
HETATM   26  N8  UNL     1      35.772   6.282  22.715  1.00  0.00    -0.172 N
ATOM     27  H8  UNL     1      35.330   6.627  21.863  1.00  0.00     0.186 HD
BRANCH  26  28
HETATM   28  C7  UNL     1      36.681   7.008  23.252  1.00  0.00     0.709 A
HETATM   29  N9  UNL     1      36.698   8.342  23.386  1.00  0.00    -0.117 N
HETATM   30  N10 UNL     1      37.835   8.701  24.005  1.00  0.00     0.006 NA
ATOM     31  H9  UNL     1      35.967   8.981  23.069  1.00  0.00     0.202 HD
HETATM   32  N11 UNL     1      38.532   7.585  24.260  1.00  0.00     0.006 NA
HETATM   33  N12 UNL     1      37.817   6.550  23.794  1.00  0.00    -0.117 N
ATOM     34  H12 UNL     1      38.094   5.569  23.845  1.00  0.00     0.202 HD
ENDBRANCH  26  28
ENDBRANCH   1  26
TORSDOF 8
ENDMDL