MODEL 3
REMARK VINA RESULT: -6.081701357      2.719      6.404
REMARK  7 active torsions:
REMARK  status: ('A' for Active; 'I' for Inactive)
REMARK    1  A    between atoms: O1_2  and  C2_3
REMARK    2  A    between atoms: C5_6  and  N1_7
REMARK    3  A    between atoms: N1_7  and  N2_9
REMARK    4  A    between atoms: C7_13  and  O2_14
REMARK    5  A    between atoms: N3_17  and  O3_19
REMARK    6  A    between atoms: N6_26  and  C11_27
REMARK    7  A    between atoms: C11_27  and  C12_28
ROOT
HETATM    1  C2  UNL     1      39.086  -0.720  22.033  1.00  0.00     0.160 A
HETATM    2  C3  UNL     1      39.139   0.604  21.828  1.00  0.00     0.075 A
HETATM    3  C4  UNL     1      38.204   1.438  22.590  1.00  0.00     0.043 A
HETATM    4  C5  UNL     1      38.247   2.814  22.381  1.00  0.00     0.077 A
HETATM    5  C6  UNL     1      37.354   3.574  23.103  1.00  0.00     0.060 A
HETATM    6  C7  UNL     1      37.375   4.869  22.905  1.00  0.00     0.149 C
HETATM    7  C8  UNL     1      36.449   2.995  24.004  1.00  0.00     0.143 A
HETATM    8  N3  UNL     1      35.669   3.794  24.622  1.00  0.00    -0.252 N
ATOM      9  H3  UNL     1      35.778   4.784  24.399  1.00  0.00     0.196 HD
HETATM   10  N4  UNL     1      36.422   1.685  24.191  1.00  0.00    -0.320 N
HETATM   11  C9  UNL     1      35.508   1.060  25.107  1.00  0.00     0.159 C
HETATM   12  C10 UNL     1      37.308   0.925  23.473  1.00  0.00     0.136 A
HETATM   13  N5  UNL     1      37.262  -0.343  23.665  1.00  0.00    -0.280 N
ATOM     14  H5  UNL     1      36.592  -0.734  24.327  1.00  0.00     0.189 HD
HETATM   15  N6  UNL     1      38.126  -1.188  22.970  1.00  0.00    -0.261 N
ENDROOT
BRANCH   4  16
HETATM   16  N1  UNL     1      39.165   3.398  21.485  1.00  0.00    -0.305 N
ATOM     17  H1  UNL     1      40.080   3.697  21.823  1.00  0.00     0.186 HD
BRANCH  16  18
HETATM   18  N2  UNL     1      38.836   3.571  20.146  1.00  0.00    -0.345 N
ATOM     19  H22 UNL     1      39.113   2.852  19.477  1.00  0.00     0.176 HD
ATOM     20  H21 UNL     1      38.328   4.401  19.839  1.00  0.00     0.176 HD
ENDBRANCH  16  18
ENDBRANCH   4  16
BRANCH   6  21
HETATM   21  O2  UNL     1      36.491   5.662  23.615  1.00  0.00    -0.372 OA
ATOM     22  H2  UNL     1      35.862   6.186  23.134  1.00  0.00     0.216 HD
ENDBRANCH   6  21
BRANCH   1  23
HETATM   23  O1  UNL     1      39.954  -1.534  21.331  1.00  0.00    -0.340 OA
HETATM   24  C1  UNL     1      39.877  -1.687  19.924  1.00  0.00     0.211 C
ENDBRANCH   1  23
BRANCH   8  25
HETATM   25  O3  UNL     1      34.719   3.498  25.529  1.00  0.00    -0.288 OA
ATOM     26  H3  UNL     1      33.832   3.193  25.376  1.00  0.00     0.244 HD
ENDBRANCH   8  25
BRANCH  15  27
HETATM   27  C11 UNL     1      38.008  -2.614  23.233  1.00  0.00     0.250 C
BRANCH  27  28
HETATM   28  C12 UNL     1      36.576  -2.913  23.514  1.00  0.00     0.251 C
HETATM   29  N7  UNL     1      35.534  -2.453  22.668  1.00  0.00    -0.061 NA
HETATM   30  O4  UNL     1      36.233  -3.597  24.525  1.00  0.00    -0.275 OA
ENDBRANCH  27  28
ENDBRANCH  15  27
TORSDOF 7
ENDMDL