MODEL 5
REMARK VINA RESULT: -6.057811467      1.954      3.031
REMARK  6 active torsions:
REMARK  status: ('A' for Active; 'I' for Inactive)
REMARK    1  A    between atoms: C2_2  and  N1_3
REMARK    2  A    between atoms: N1_3  and  C4_5
REMARK    3  A    between atoms: C4_5  and  C5_6
REMARK    4  A    between atoms: C7_10  and  N3_11
REMARK    5  A    between atoms: N3_11  and  C8_13
REMARK    6  A    between atoms: C10_20  and  N6_21
ROOT
HETATM    1  C8  UNL     1      34.143   6.609  24.290  1.00  0.00     0.683 C
HETATM    2  N4  UNL     1      33.955   7.332  25.334  1.00  0.00    -0.182 N
ATOM      3  H4  UNL     1      34.026   6.876  26.243  1.00  0.00     0.181 HD
HETATM    4  C9  UNL     1      33.651   8.743  25.315  1.00  0.00     0.402 C
HETATM    5  N5  UNL     1      33.263   9.226  23.993  1.00  0.00     0.023 N
ATOM      6  H51 UNL     1      33.162  10.241  23.953  1.00  0.00     0.287 HD
ATOM      7  H52 UNL     1      32.301   8.988  23.748  1.00  0.00     0.287 HD
HETATM    8  C10 UNL     1      34.232   8.715  23.044  1.00  0.00     0.459 C
HETATM    9  N7  UNL     1      34.045   7.258  23.025  1.00  0.00    -0.159 N
ATOM     10  H7  UNL     1      33.856   6.746  22.163  1.00  0.00     0.182 HD
HETATM   11  C11 UNL     1      35.572   9.079  23.558  1.00  0.00     0.319 C
HETATM   12  O1  UNL     1      36.593   8.801  22.892  1.00  0.00    -0.265 OA
HETATM   13  N8  UNL     1      35.725   9.744  24.800  1.00  0.00    -0.281 N
ATOM     14  H8  UNL     1      36.533  10.342  24.979  1.00  0.00     0.184 HD
HETATM   15  N9  UNL     1      34.735   9.557  25.781  1.00  0.00    -0.185 NA
HETATM   16  C12 UNL     1      35.281   8.990  27.002  1.00  0.00     0.140 C
ENDROOT
BRANCH   1  17
HETATM   17  N3  UNL     1      34.437   5.238  24.371  1.00  0.00    -0.162 N
ATOM     18  H3  UNL     1      33.887   4.634  24.984  1.00  0.00     0.187 HD
BRANCH  17  19
HETATM   19  C7  UNL     1      35.509   4.685  23.594  1.00  0.00     0.190 C
HETATM   20  N2  UNL     1      36.702   5.156  23.550  1.00  0.00    -0.360 N
HETATM   21  C6  UNL     1      37.550   4.353  22.660  1.00  0.00     0.149 C
ATOM     22  H2  UNL     1      37.019   5.978  24.065  1.00  0.00     0.162 HD
HETATM   23  C5  UNL     1      36.774   3.038  22.649  1.00  0.00     0.130 C
HETATM   24  N10 UNL     1      35.411   3.535  22.756  1.00  0.00    -0.354 N
ATOM     25  H10 UNL     1      34.571   3.147  22.328  1.00  0.00     0.163 HD
BRANCH  23  26
HETATM   26  C4  UNL     1      37.060   2.242  23.871  1.00  0.00     0.298 C
BRANCH  26  27
HETATM   27  N1  UNL     1      37.523   0.885  23.621  1.00  0.00     0.085 N
HETATM   28  C3  UNL     1      38.825   0.825  24.311  1.00  0.00     0.310 C
BRANCH  27  29
HETATM   29  C2  UNL     1      36.580  -0.014  24.267  1.00  0.00     0.267 C
HETATM   30  C1  UNL     1      36.367  -1.298  23.536  1.00  0.00     0.037 C
ENDBRANCH  27  29
ENDBRANCH  26  27
ENDBRANCH  23  26
ENDBRANCH  17  19
ENDBRANCH   1  17
BRANCH   8  31
HETATM   31  N6  UNL     1      34.007   9.305  21.740  1.00  0.00    -0.017 N
ATOM     32  H63 UNL     1      33.107   9.029  21.346  1.00  0.00     0.280 HD
ATOM     33  H62 UNL     1      33.841  10.309  21.799  1.00  0.00     0.280 HD
ATOM     34  H61 UNL     1      34.783   9.080  21.118  1.00  0.00     0.280 HD
ENDBRANCH   8  31
TORSDOF 6
ENDMDL