MODEL 5
REMARK VINA RESULT: -6.847054138      3.906      8.274
REMARK  6 active torsions:
REMARK  status: ('A' for Active; 'I' for Inactive)
REMARK    1  A    between atoms: N1_1  and  C1_4
REMARK    2  A    between atoms: N5_12  and  C4_13
REMARK    3  A    between atoms: C4_13  and  C5_14
REMARK    4  A    between atoms: C5_14  and  N6_15
REMARK    5  A    between atoms: C7_22  and  S1_23
REMARK    6  A    between atoms: S1_23  and  N10_24
ROOT
HETATM    1  C1  UNL     1      33.435   6.394  24.108  1.00  0.00     0.678 A
HETATM    2  N2  UNL     1      33.809   7.412  23.309  1.00  0.00    -0.173 N
ATOM      3  H2  UNL     1      33.216   8.239  23.257  1.00  0.00     0.186 HD
HETATM    4  C2  UNL     1      34.936   7.375  22.579  1.00  0.00     0.167 A
HETATM    5  C3  UNL     1      35.751   6.263  22.639  1.00  0.00     0.133 A
HETATM    6  N3  UNL     1      36.772   6.517  21.822  1.00  0.00    -0.278 N
ATOM      7  H3  UNL     1      37.555   5.890  21.640  1.00  0.00     0.184 HD
HETATM    8  N4  UNL     1      36.606   7.713  21.287  1.00  0.00    -0.018 NA
HETATM    9  N5  UNL     1      35.487   8.276  21.726  1.00  0.00    -0.256 N
HETATM   10  C7  UNL     1      35.381   5.209  23.455  1.00  0.00     0.195 A
HETATM   11  N11 UNL     1      34.245   5.323  24.148  1.00  0.00    -0.177 N
ATOM     12  H11 UNL     1      33.974   4.544  24.749  1.00  0.00     0.185 HD
ENDROOT
BRANCH   9  13
HETATM   13  C4  UNL     1      34.920   9.557  21.411  1.00  0.00     0.170 C
BRANCH  13  14
HETATM   14  C5  UNL     1      35.410  10.608  22.384  1.00  0.00     0.172 C
BRANCH  14  15
HETATM   15  N6  UNL     1      34.638  10.570  23.610  1.00  0.00    -0.226 N
HETATM   16  N7  UNL     1      33.229  10.670  23.739  1.00  0.00    -0.002 NA
HETATM   17  N8  UNL     1      32.974   9.764  24.793  1.00  0.00    -0.004 NA
HETATM   18  N9  UNL     1      33.971  10.070  25.725  1.00  0.00    -0.236 N
HETATM   19  C6  UNL     1      35.126  10.423  24.951  1.00  0.00     0.352 C
ATOM     20  H9  UNL     1      33.892  10.048  26.741  1.00  0.00     0.188 HD
HETATM   21  O1  UNL     1      36.308  10.578  25.303  1.00  0.00    -0.244 OA
ENDBRANCH  14  15
ENDBRANCH  13  14
ENDBRANCH   9  13
BRANCH   1  22
HETATM   22  N1  UNL     1      32.331   6.455  24.809  1.00  0.00    -0.234 N
ATOM     23  H12 UNL     1      32.011   5.673  25.380  1.00  0.00     0.174 HD
ATOM     24  H11 UNL     1      31.752   7.294  24.807  1.00  0.00     0.174 HD
ENDBRANCH   1  22
BRANCH  10  25
HETATM   25  S1  UNL     1      36.420   3.818  23.516  1.00  0.00     0.275 S
HETATM   26  O2  UNL     1      36.129   2.941  24.692  1.00  0.00    -0.199 OA
HETATM   27  O3  UNL     1      37.838   4.320  23.691  1.00  0.00    -0.199 OA
BRANCH  25  28
HETATM   28  N10 UNL     1      36.380   2.928  22.042  1.00  0.00    -0.323 N
ATOM     29 2H10 UNL     1      36.911   2.070  21.892  1.00  0.00     0.169 HD
ATOM     30 1H10 UNL     1      35.767   3.366  21.355  1.00  0.00     0.169 HD
ENDBRANCH  25  28
ENDBRANCH  10  25
TORSDOF 6
ENDMDL