MODEL 2
REMARK VINA RESULT: -7.209517433      3.305      5.925
REMARK  4 active torsions:
REMARK  status: ('A' for Active; 'I' for Inactive)
REMARK    1  A    between atoms: C2_3  and  C3_4
REMARK    2  A    between atoms: C4_11  and  C5_12
REMARK    3  A    between atoms: C6_15  and  C7_16
REMARK       I    between atoms: C7_16  and  N6_18
REMARK    4  A    between atoms: N6_18  and  C8_20
ROOT
HETATM    1  C5  UNL     1      36.946   0.747  23.391  1.00  0.00     0.121 A
HETATM    2  N5  UNL     1      36.257  -0.375  23.294  1.00  0.00    -0.332 N
ATOM      3  H5  UNL     1      35.263  -0.426  23.070  1.00  0.00     0.168 HD
HETATM    4  C6  UNL     1      37.051  -1.452  23.533  1.00  0.00     0.176 A
HETATM    5  N9  UNL     1      38.262  -0.987  23.784  1.00  0.00    -0.324 N
ATOM      6  H9  UNL     1      39.079  -1.557  24.001  1.00  0.00     0.169 HD
HETATM    7  C11 UNL     1      38.251   0.335  23.711  1.00  0.00     0.148 A
HETATM    8  N10 UNL     1      39.349   1.204  23.914  1.00  0.00    -0.080 NA
ENDROOT
BRANCH   1   9
HETATM    9  C4  UNL     1      36.560   2.134  23.228  1.00  0.00     0.154 A
HETATM   10  N1  UNL     1      35.848   2.959  24.016  1.00  0.00    -0.315 N
HETATM   11  C1  UNL     1      35.297   2.541  25.279  1.00  0.00     0.159 C
HETATM   12  C2  UNL     1      35.744   4.168  23.447  1.00  0.00     0.190 A
HETATM   13  N3  UNL     1      36.418   4.106  22.250  1.00  0.00    -0.279 N
HETATM   14  N4  UNL     1      36.892   2.893  22.142  1.00  0.00    -0.282 N
ATOM     15  H3  UNL     1      36.527   4.863  21.575  1.00  0.00     0.189 HD
ATOM     16  H4  UNL     1      37.439   2.557  21.350  1.00  0.00     0.188 HD
BRANCH  12  17
HETATM   17  C3  UNL     1      35.068   5.361  23.944  1.00  0.00     0.300 C
HETATM   18  N2  UNL     1      35.797   6.612  24.016  1.00  0.00    -0.054 NA
HETATM   19  O1  UNL     1      33.883   5.432  24.332  1.00  0.00    -0.268 OA
ENDBRANCH  12  17
ENDBRANCH   1   9
BRANCH   4  20
HETATM   20  C7  UNL     1      36.674  -2.855  23.521  1.00  0.00     0.287 C
HETATM   21  O2  UNL     1      36.024  -3.296  24.508  1.00  0.00    -0.264 OA
HETATM   22  N6  UNL     1      37.047  -3.659  22.420  1.00  0.00    -0.326 N
ATOM     23  H6  UNL     1      37.573  -3.226  21.661  1.00  0.00     0.165 HD
BRANCH  22  24
HETATM   24  C8  UNL     1      36.719  -5.066  22.317  1.00  0.00     0.250 C
HETATM   25  C9  UNL     1      37.020  -5.648  20.974  1.00  0.00     0.177 C
HETATM   26  N7  UNL     1      38.290  -6.321  21.208  1.00  0.00    -0.355 N
HETATM   27  C10 UNL     1      38.489  -6.429  22.478  1.00  0.00     0.229 C
ATOM     28  H7  UNL     1      38.924  -6.655  20.481  1.00  0.00     0.162 HD
HETATM   29  N8  UNL     1      39.678  -7.060  22.990  1.00  0.00    -0.056 NA
HETATM   30  O3  UNL     1      37.438  -5.875  23.194  1.00  0.00    -0.297 OA
ENDBRANCH  22  24
ENDBRANCH   4  20
TORSDOF 4
ENDMDL