MODEL 4
REMARK VINA RESULT: -5.576134557      2.484      5.480
REMARK  7 active torsions:
REMARK  status: ('A' for Active; 'I' for Inactive)
REMARK    1  A    between atoms: N1_1  and  C1_4
REMARK    2  A    between atoms: C2_7  and  S1_8
REMARK    3  A    between atoms: S1_8  and  C3_9
REMARK    4  A    between atoms: C3_9  and  C4_10
REMARK    5  A    between atoms: C5_19  and  S2_20
REMARK    6  A    between atoms: S2_20  and  N7_23
REMARK    7  A    between atoms: N7_23  and  N8_25
ROOT
HETATM    1  C1  UNL     1      38.322   6.428  23.604  1.00  0.00     0.679 A
HETATM    2  N2  UNL     1      37.413   5.455  23.453  1.00  0.00    -0.184 N
ATOM      3  H2  UNL     1      37.729   4.522  23.187  1.00  0.00     0.185 HD
HETATM    4  C2  UNL     1      36.077   5.671  23.646  1.00  0.00     0.115 A
HETATM    5  C5  UNL     1      35.619   6.915  24.005  1.00  0.00     0.183 A
HETATM    6  C6  UNL     1      36.574   7.917  24.159  1.00  0.00     0.285 A
HETATM    7  O3  UNL     1      36.167   9.070  24.490  1.00  0.00    -0.266 OA
HETATM    8  N9  UNL     1      37.868   7.639  23.955  1.00  0.00    -0.155 N
ATOM      9  H9  UNL     1      38.547   8.391  24.074  1.00  0.00     0.187 HD
ENDROOT
BRANCH   4  10
HETATM   10  S1  UNL     1      34.974   4.290  23.406  1.00  0.00    -0.102 SA
BRANCH  10  11
HETATM   11  C3  UNL     1      35.024   3.246  24.881  1.00  0.00     0.160 C
BRANCH  11  12
HETATM   12  C4  UNL     1      36.035   2.168  24.649  1.00  0.00     0.122 A
HETATM   13  N3  UNL     1      35.693   0.935  24.254  1.00  0.00    -0.272 N
HETATM   14  N4  UNL     1      36.814   0.256  24.150  1.00  0.00    -0.227 N
ATOM     15  H3  UNL     1      34.750   0.591  24.071  1.00  0.00     0.190 HD
HETATM   16  N5  UNL     1      37.831   1.005  24.460  1.00  0.00    -0.227 N
ATOM     17  H4  UNL     1      36.877  -0.722  23.866  1.00  0.00     0.210 HD
HETATM   18  N6  UNL     1      37.363   2.195  24.772  1.00  0.00    -0.272 N
ATOM     19  H5  UNL     1      38.811   0.723  24.462  1.00  0.00     0.210 HD
ATOM     20  H6  UNL     1      37.921   3.000  25.059  1.00  0.00     0.190 HD
ENDBRANCH  11  12
ENDBRANCH  10  11
ENDBRANCH   4  10
BRANCH   5  21
HETATM   21  S2  UNL     1      33.932   7.235  24.210  1.00  0.00     0.283 S
HETATM   22  O1  UNL     1      33.199   5.954  24.483  1.00  0.00    -0.199 OA
HETATM   23  O2  UNL     1      33.353   7.886  23.022  1.00  0.00    -0.199 OA
BRANCH  21  24
HETATM   24  N7  UNL     1      33.649   8.276  25.576  1.00  0.00    -0.229 N
ATOM     25  H7  UNL     1      33.896   8.086  26.547  1.00  0.00     0.199 HD
BRANCH  24  26
HETATM   26  N8  UNL     1      33.017   9.422  25.085  1.00  0.00    -0.336 N
ATOM     27  H82 UNL     1      33.196   9.864  24.183  1.00  0.00     0.177 HD
ATOM     28  H81 UNL     1      32.353   9.719  25.799  1.00  0.00     0.177 HD
ENDBRANCH  24  26
ENDBRANCH  21  24
ENDBRANCH   5  21
BRANCH   1  29
HETATM   29  N1  UNL     1      39.586   6.198  23.416  1.00  0.00    -0.234 N
ATOM     30  H12 UNL     1      39.987   5.268  23.536  1.00  0.00     0.174 HD
ATOM     31  H11 UNL     1      40.220   6.947  23.139  1.00  0.00     0.174 HD
ENDBRANCH   1  29
TORSDOF 7
ENDMDL