MODEL 2
REMARK VINA RESULT: -7.459201151      1.369      2.771
REMARK  7 active torsions:
REMARK  status: ('A' for Active; 'I' for Inactive)
REMARK    1  A    between atoms: C2_2  and  N1_3
REMARK    2  A    between atoms: C2_2  and  C9_25
REMARK    3  A    between atoms: N1_3  and  C3_5
REMARK    4  A    between atoms: C3_5  and  C4_6
REMARK    5  A    between atoms: C4_6  and  N2_7
REMARK    6  A    between atoms: C6_14  and  N6_15
REMARK    7  A    between atoms: C7_20  and  N8_21
ROOT
HETATM    1  N2  UNL     1      36.725  -2.925  12.250  1.00  0.00    -0.267 N
HETATM    2  N3  UNL     1      36.177  -2.406  11.150  1.00  0.00    -0.018 NA
HETATM    3  N4  UNL     1      35.172  -3.169  10.759  1.00  0.00    -0.267 N
ATOM      4  H4  UNL     1      34.582  -2.999   9.943  1.00  0.00     0.186 HD
HETATM    5  C5  UNL     1      35.051  -4.203  11.606  1.00  0.00     0.166 A
HETATM    6  N5  UNL     1      34.210  -5.250  11.664  1.00  0.00    -0.173 N
ATOM      7  H5  UNL     1      33.485  -5.350  10.955  1.00  0.00     0.186 HD
HETATM    8  C6  UNL     1      34.308  -6.167  12.641  1.00  0.00     0.679 A
HETATM    9  N7  UNL     1      35.274  -6.005  13.558  1.00  0.00    -0.175 N
ATOM     10  H7  UNL     1      35.353  -6.700  14.301  1.00  0.00     0.186 HD
HETATM   11  C7  UNL     1      36.146  -4.980  13.555  1.00  0.00     0.146 A
HETATM   12  C8  UNL     1      36.060  -4.030  12.561  1.00  0.00     0.138 A
ENDROOT
BRANCH   1  13
HETATM   13  C4  UNL     1      37.840  -2.331  12.930  1.00  0.00     0.166 C
BRANCH  13  14
HETATM   14  C3  UNL     1      38.989  -2.023  11.993  1.00  0.00     0.141 C
BRANCH  14  15
HETATM   15  N1  UNL     1      39.005  -0.643  11.585  1.00  0.00    -0.391 N
ATOM     16  H1  UNL     1      38.566  -0.409  10.694  1.00  0.00     0.159 HD
BRANCH  15  17
HETATM   17  C2  UNL     1      39.579   0.402  12.320  1.00  0.00     0.016 C
HETATM   18  C1  UNL     1      40.923   0.225  12.904  1.00  0.00     0.069 C
BRANCH  17  19
HETATM   19  C9  UNL     1      38.949   1.538  12.503  1.00  0.00     0.051 A
HETATM   20  C10 UNL     1      39.551   2.798  12.387  1.00  0.00     0.126 A
HETATM   21  N9  UNL     1      38.605   3.700  12.640  1.00  0.00    -0.290 N
HETATM   22  N10 UNL     1      37.434   3.141  12.912  1.00  0.00    -0.164 N
ATOM     23  H9  UNL     1      38.763   4.708  12.626  1.00  0.00     0.188 HD
HETATM   24  C11 UNL     1      37.635   1.820  12.831  1.00  0.00     0.169 A
HETATM   25  N13 UNL     1      36.092   3.338  13.245  1.00  0.00     0.016 NA
HETATM   26  N11 UNL     1      36.531   1.175  13.085  1.00  0.00    -0.268 N
HETATM   27  N12 UNL     1      35.502   2.080  13.360  1.00  0.00    -0.005 NA
ATOM     28  H11 UNL     1      36.432   0.160  13.085  1.00  0.00     0.185 HD
ENDBRANCH  17  19
ENDBRANCH  15  17
ENDBRANCH  14  15
ENDBRANCH  13  14
ENDBRANCH   1  13
BRANCH  11  29
HETATM   29  N8  UNL     1      37.065  -4.855  14.452  1.00  0.00    -0.383 N
ATOM     30  H82 UNL     1      37.068  -5.499  15.242  1.00  0.00     0.157 HD
ATOM     31  H81 UNL     1      37.785  -4.133  14.397  1.00  0.00     0.157 HD
ENDBRANCH  11  29
BRANCH   8  32
HETATM   32  N6  UNL     1      33.485  -7.186  12.696  1.00  0.00    -0.234 N
ATOM     33  H62 UNL     1      33.439  -7.867  11.938  1.00  0.00     0.174 HD
ATOM     34  H61 UNL     1      32.871  -7.324  13.498  1.00  0.00     0.174 HD
ENDBRANCH   8  32
TORSDOF 7
ENDMDL