MODEL 2
REMARK VINA RESULT: -5.676111035      4.237      7.924
REMARK  10 active torsions:
REMARK  status: ('A' for Active; 'I' for Inactive)
REMARK    1  A    between atoms: N1_2  and  C2_4
REMARK    2  A    between atoms: C3_7  and  N3_8
REMARK    3  A    between atoms: C5_14  and  N5_15
REMARK       I    between atoms: N5_15  and  C6_17
REMARK       I    between atoms: C6_17  and  N6_19
REMARK    4  A    between atoms: N6_19  and  O2_21
REMARK    5  A    between atoms: O2_21  and  C7_22
REMARK    6  A    between atoms: C7_22  and  C8_23
REMARK    7  A    between atoms: C8_23  and  O3_24
REMARK    8  A    between atoms: O3_24  and  C9_25
REMARK    9  A    between atoms: C9_25  and  N7_26
REMARK   10  A    between atoms: C9_25  and  O4_30
ROOT
HETATM    1  C2  UNL     1      35.163  -6.891  13.652  1.00  0.00     0.715 A
HETATM    2  N2  UNL     1      34.019  -6.973  12.965  1.00  0.00    -0.021 N
ATOM      3  H2  UNL     1      33.365  -7.722  13.192  1.00  0.00     0.203 HD
HETATM    4  C3  UNL     1      33.692  -6.102  11.982  1.00  0.00     0.692 A
HETATM    5  N4  UNL     1      34.550  -5.113  11.681  1.00  0.00    -0.170 N
ATOM      6  H4  UNL     1      34.322  -4.445  10.944  1.00  0.00     0.186 HD
HETATM    7  C4  UNL     1      35.707  -5.004  12.352  1.00  0.00     0.204 A
HETATM    8  C5  UNL     1      36.606  -3.995  12.050  1.00  0.00     0.158 A
HETATM    9  N8  UNL     1      37.743  -3.918  12.727  1.00  0.00    -0.334 N
ATOM     10  H8  UNL     1      38.414  -3.179  12.517  1.00  0.00     0.168 HD
HETATM   11  C10 UNL     1      38.012  -4.823  13.698  1.00  0.00     0.200 A
HETATM   12  N9  UNL     1      37.152  -5.803  14.000  1.00  0.00    -0.273 N
ATOM     13  H9  UNL     1      37.368  -6.476  14.735  1.00  0.00     0.189 HD
HETATM   14  N10 UNL     1      36.016  -5.882  13.328  1.00  0.00    -0.064 N
ENDROOT
BRANCH   8  15
HETATM   15  N5  UNL     1      36.275  -3.192  11.140  1.00  0.00    -0.290 N
HETATM   16  C6  UNL     1      35.857  -1.842  11.247  1.00  0.00     0.345 C
HETATM   17  O1  UNL     1      34.623  -1.552  11.249  1.00  0.00    -0.245 OA
HETATM   18  N6  UNL     1      36.811  -0.818  11.352  1.00  0.00    -0.216 N
ATOM     19  H6  UNL     1      37.794  -1.094  11.350  1.00  0.00     0.199 HD
ATOM     20  H5  UNL     1      36.314  -3.565  10.192  1.00  0.00     0.172 HD
BRANCH  18  21
HETATM   21  O2  UNL     1      36.548   0.460  11.453  1.00  0.00    -0.274 OA
BRANCH  21  22
HETATM   22  C7  UNL     1      36.724   0.946  12.727  1.00  0.00     0.227 C
BRANCH  22  23
HETATM   23  C8  UNL     1      36.751   2.474  12.736  1.00  0.00     0.201 C
BRANCH  23  24
HETATM   24  O3  UNL     1      35.658   3.009  13.366  1.00  0.00    -0.337 OA
BRANCH  24  25
HETATM   25  C9  UNL     1      35.824   4.355  13.693  1.00  0.00     0.464 C
BRANCH  25  26
HETATM   26  N7  UNL     1      37.134   4.867  13.438  1.00  0.00    -0.029 N
ATOM     27  H73 UNL     1      37.496   5.347  14.261  1.00  0.00     0.280 HD
ATOM     28  H72 UNL     1      37.807   4.103  13.371  1.00  0.00     0.280 HD
ATOM     29  H71 UNL     1      37.197   5.470  12.618  1.00  0.00     0.280 HD
ENDBRANCH  25  26
BRANCH  25  30
HETATM   30  O4  UNL     1      34.915   5.051  12.894  1.00  0.00    -0.350 OA
ATOM     31  H4  UNL     1      34.810   5.901  13.305  1.00  0.00     0.214 HD
ENDBRANCH  25  30
ENDBRANCH  24  25
ENDBRANCH  23  24
ENDBRANCH  22  23
ENDBRANCH  21  22
ENDBRANCH  18  21
ENDBRANCH   8  15
BRANCH   4  32
HETATM   32  N3  UNL     1      32.594  -6.200  11.340  1.00  0.00    -0.234 N
ATOM     33  H32 UNL     1      31.761  -6.546  11.817  1.00  0.00     0.174 HD
ATOM     34  H31 UNL     1      32.526  -5.940  10.356  1.00  0.00     0.174 HD
ENDBRANCH   4  32
BRANCH   1  35
HETATM   35  N1  UNL     1      35.503  -7.678  14.592  1.00  0.00    -0.228 N
HETATM   36  C1  UNL     1      34.980  -8.996  14.846  1.00  0.00     0.165 C
ATOM     37  H1  UNL     1      36.221  -7.341  15.232  1.00  0.00     0.177 HD
ENDBRANCH   1  35
TORSDOF 10
ENDMDL