MODEL 2
REMARK VINA RESULT: -5.795615253      2.302      4.244
REMARK  7 active torsions:
REMARK  status: ('A' for Active; 'I' for Inactive)
REMARK       I    between atoms: N1_2  and  C2_4
REMARK       I    between atoms: C2_4  and  N2_6
REMARK    1  A    between atoms: C3_9  and  N4_10
REMARK    2  A    between atoms: N4_10  and  N5_12
REMARK    3  A    between atoms: N5_12  and  C4_14
REMARK    4  A    between atoms: C4_14  and  C5_18
REMARK    5  A    between atoms: C5_18  and  S1_19
REMARK    6  A    between atoms: S1_19  and  C6_20
REMARK    7  A    between atoms: N9_27  and  N10_28
ROOT
HETATM    1  N4  UNL     1      37.029  -1.637  13.986  1.00  0.00    -0.127 N
ATOM      2  H4  UNL     1      37.571  -0.830  13.681  1.00  0.00     0.205 HD
ENDROOT
BRANCH   1   3
HETATM    3  C3  UNL     1      36.434  -2.398  13.117  1.00  0.00     0.737 A
HETATM    4  N3  UNL     1      35.934  -3.627  13.339  1.00  0.00    -0.114 N
HETATM    5  N2  UNL     1      35.403  -4.105  12.236  1.00  0.00    -0.137 N
ATOM      6  H3  UNL     1      35.962  -4.116  14.233  1.00  0.00     0.206 HD
HETATM    7  C2  UNL     1      34.783  -5.376  12.107  1.00  0.00     0.345 C
HETATM    8  C9  UNL     1      35.573  -3.159  11.306  1.00  0.00     0.386 A
HETATM    9  N1  UNL     1      34.697  -6.248  13.214  1.00  0.00    -0.345 N
HETATM   10  O1  UNL     1      34.293  -5.757  10.992  1.00  0.00    -0.245 OA
HETATM   11  C1  UNL     1      34.061  -7.562  13.090  1.00  0.00     0.151 C
ATOM     12  H1  UNL     1      35.083  -5.959  14.114  1.00  0.00     0.163 HD
HETATM   13  N9  UNL     1      36.207  -2.092  11.821  1.00  0.00    -0.034 N
HETATM   14  O2  UNL     1      35.182  -3.279  10.119  1.00  0.00    -0.242 OA
BRANCH  13  15
HETATM   15  N10 UNL     1      36.570  -0.904  11.180  1.00  0.00    -0.320 N
ATOM     16 2H10 UNL     1      36.997  -0.070  11.584  1.00  0.00     0.178 HD
ATOM     17 1H10 UNL     1      36.455  -0.697  10.188  1.00  0.00     0.178 HD
ENDBRANCH  13  15
ENDBRANCH   1   3
BRANCH   1  18
HETATM   18  N5  UNL     1      36.915  -1.941  15.344  1.00  0.00    -0.274 N
ATOM     19  H5  UNL     1      35.989  -2.085  15.747  1.00  0.00     0.189 HD
BRANCH  18  20
HETATM   20  C4  UNL     1      38.068  -2.054  16.185  1.00  0.00     0.099 C
HETATM   21  N6  UNL     1      37.915  -2.466  17.384  1.00  0.00    -0.387 N
ATOM     22  H62 UNL     1      36.982  -2.706  17.719  1.00  0.00     0.157 HD
ATOM     23  H61 UNL     1      38.737  -2.547  17.982  1.00  0.00     0.157 HD
BRANCH  20  24
HETATM   24  C5  UNL     1      39.416  -1.708  15.700  1.00  0.00     0.159 C
BRANCH  24  25
HETATM   25  S1  UNL     1      40.450  -3.143  15.411  1.00  0.00    -0.087 SA
BRANCH  25  26
HETATM   26  C6  UNL     1      39.579  -4.283  14.361  1.00  0.00     0.136 C
HETATM   27  N7  UNL     1      38.968  -5.348  14.743  1.00  0.00    -0.369 N
HETATM   28  C7  UNL     1      38.360  -6.058  13.646  1.00  0.00     0.141 C
ATOM     29  H7  UNL     1      38.920  -5.657  15.714  1.00  0.00     0.161 HD
HETATM   30  C8  UNL     1      39.053  -5.457  12.437  1.00  0.00     0.141 C
HETATM   31  N8  UNL     1      39.445  -4.156  12.962  1.00  0.00    -0.369 N
ATOM     32  H8  UNL     1      39.596  -3.308  12.417  1.00  0.00     0.161 HD
ENDBRANCH  25  26
ENDBRANCH  24  25
ENDBRANCH  20  24
ENDBRANCH  18  20
ENDBRANCH   1  18
TORSDOF 7
ENDMDL