MODEL 4
REMARK VINA RESULT: -5.849010926      1.633      5.260
REMARK  5 active torsions:
REMARK  status: ('A' for Active; 'I' for Inactive)
REMARK    1  A    between atoms: C2_5  and  N3_6
REMARK       I    between atoms: N3_6  and  C3_8
REMARK    2  A    between atoms: C3_8  and  C4_10
REMARK    3  A    between atoms: C5_17  and  C6_18
REMARK    4  A    between atoms: C6_18  and  N7_19
REMARK    5  A    between atoms: N7_19  and  S1_21
ROOT
HETATM    1  C4  UNL     1      34.376  -5.702  12.127  1.00  0.00     0.143 A
HETATM    2  N4  UNL     1      33.419  -6.099  11.240  1.00  0.00    -0.279 N
ATOM      3  H4  UNL     1      33.050  -5.514  10.491  1.00  0.00     0.189 HD
HETATM    4  N5  UNL     1      33.036  -7.323  11.474  1.00  0.00    -0.242 N
ATOM      5  H5  UNL     1      32.334  -7.851  10.955  1.00  0.00     0.208 HD
HETATM    6  N6  UNL     1      33.732  -7.745  12.508  1.00  0.00    -0.286 N
ATOM      7  H6  UNL     1      33.648  -8.673  12.922  1.00  0.00     0.188 HD
HETATM    8  C5  UNL     1      34.564  -6.793  12.944  1.00  0.00     0.079 A
ENDROOT
BRANCH   1   9
HETATM    9  C3  UNL     1      35.021  -4.407  12.156  1.00  0.00     0.274 C
HETATM   10  N3  UNL     1      35.614  -3.935  13.335  1.00  0.00    -0.318 N
ATOM     11  H3  UNL     1      35.584  -4.514  14.174  1.00  0.00     0.166 HD
HETATM   12  O1  UNL     1      35.046  -3.715  11.117  1.00  0.00    -0.266 OA
BRANCH  10  13
HETATM   13  C2  UNL     1      36.271  -2.633  13.392  1.00  0.00     0.294 A
HETATM   14  N2  UNL     1      37.346  -2.594  12.454  1.00  0.00    -0.327 N
HETATM   15  C1  UNL     1      38.555  -2.319  12.659  1.00  0.00     0.192 A
ATOM     16  H2  UNL     1      37.100  -2.819  11.490  1.00  0.00     0.166 HD
HETATM   17  N1  UNL     1      39.533  -2.319  11.614  1.00  0.00    -0.063 NA
HETATM   18  N9  UNL     1      38.941  -1.997  13.998  1.00  0.00    -0.327 N
HETATM   19  C7  UNL     1      37.915  -2.018  14.974  1.00  0.00     0.181 A
ATOM     20  H9  UNL     1      39.905  -1.764  14.237  1.00  0.00     0.169 HD
HETATM   21  N8  UNL     1      36.703  -2.306  14.708  1.00  0.00    -0.348 N
ATOM     22  H8  UNL     1      36.019  -2.302  15.464  1.00  0.00     0.164 HD
ENDBRANCH  10  13
ENDBRANCH   1   9
BRANCH   8  23
HETATM   23  C6  UNL     1      35.497  -6.876  14.066  1.00  0.00     0.195 C
BRANCH  23  24
HETATM   24  N7  UNL     1      36.741  -7.516  13.611  1.00  0.00    -0.295 N
ATOM     25  H7  UNL     1      36.812  -8.473  13.269  1.00  0.00     0.175 HD
BRANCH  24  26
HETATM   26  S1  UNL     1      38.064  -6.415  13.741  1.00  0.00     0.204 S
HETATM   27  O2  UNL     1      37.775  -5.426  14.858  1.00  0.00    -0.578 OA
HETATM   28  O3  UNL     1      38.250  -5.616  12.470  1.00  0.00    -0.578 OA
HETATM   29  O4  UNL     1      39.507  -7.195  14.048  1.00  0.00    -0.578 OA
ENDBRANCH  24  26
ENDBRANCH  23  24
ENDBRANCH   8  23
TORSDOF 5
ENDMDL