MODEL 4
REMARK VINA RESULT: -6.370439061      1.226      1.549
REMARK  9 active torsions:
REMARK  status: ('A' for Active; 'I' for Inactive)
REMARK    1  A    between atoms: C2_2  and  O1_3
REMARK    2  A    between atoms: O1_3  and  C3_4
REMARK    3  A    between atoms: C3_4  and  C4_6
REMARK    4  A    between atoms: C4_6  and  O3_7
REMARK    5  A    between atoms: O3_7  and  N1_8
REMARK    6  A    between atoms: N1_8  and  C5_10
REMARK    7  A    between atoms: C6_13  and  N3_14
REMARK       I    between atoms: N3_14  and  C7_16
REMARK    8  A    between atoms: C9_24  and  N7_25
REMARK    9  A    between atoms: N9_32  and  N10_33
ROOT
HETATM    1  C5  UNL     1      37.328  -0.367  12.626  1.00  0.00     0.725 A
HETATM    2  N2  UNL     1      37.560  -0.932  13.820  1.00  0.00    -0.171 N
ATOM      3  H2  UNL     1      38.137  -0.422  14.489  1.00  0.00     0.186 HD
HETATM    4  C6  UNL     1      37.078  -2.129  14.182  1.00  0.00     0.153 A
HETATM    5  C8  UNL     1      36.300  -2.823  13.290  1.00  0.00     0.124 A
HETATM    6  N6  UNL     1      35.802  -4.034  13.637  1.00  0.00    -0.186 N
ATOM      7  H6  UNL     1      36.003  -4.428  14.555  1.00  0.00     0.184 HD
HETATM    8  C9  UNL     1      35.043  -4.710  12.765  1.00  0.00     0.676 A
HETATM    9  N8  UNL     1      34.796  -4.173  11.573  1.00  0.00    -0.200 N
ATOM     10  H8  UNL     1      34.217  -4.703  10.920  1.00  0.00     0.183 HD
HETATM   11  C10 UNL     1      35.265  -2.971  11.173  1.00  0.00     0.140 A
HETATM   12  C11 UNL     1      36.050  -2.262  12.062  1.00  0.00     0.121 A
HETATM   13  N9  UNL     1      36.565  -1.053  11.756  1.00  0.00    -0.087 N
ENDROOT
BRANCH   1  14
HETATM   14  N1  UNL     1      37.836   0.798  12.356  1.00  0.00    -0.094 N
ATOM     15  H1  UNL     1      37.486   1.295  11.537  1.00  0.00     0.213 HD
BRANCH  14  16
HETATM   16  O3  UNL     1      38.799   1.391  13.094  1.00  0.00    -0.257 OA
BRANCH  16  17
HETATM   17  C4  UNL     1      38.501   2.614  13.743  1.00  0.00     0.312 C
BRANCH  17  18
HETATM   18  C3  UNL     1      37.457   3.301  12.933  1.00  0.00     0.285 C
HETATM   19  O2  UNL     1      36.227   3.185  13.186  1.00  0.00    -0.263 OA
BRANCH  18  20
HETATM   20  O1  UNL     1      37.786   4.111  11.851  1.00  0.00    -0.320 OA
BRANCH  20  21
HETATM   21  C2  UNL     1      38.854   5.034  11.923  1.00  0.00     0.174 C
HETATM   22  C1  UNL     1      39.701   4.863  10.679  1.00  0.00     0.034 C
ENDBRANCH  20  21
ENDBRANCH  18  20
ENDBRANCH  17  18
ENDBRANCH  16  17
ENDBRANCH  14  16
ENDBRANCH   1  14
BRANCH  13  23
HETATM   23  N10 UNL     1      36.321  -0.470  10.515  1.00  0.00    -0.324 N
ATOM     24 2H10 UNL     1      35.896   0.455  10.449  1.00  0.00     0.178 HD
ATOM     25 1H10 UNL     1      36.584  -1.002   9.686  1.00  0.00     0.178 HD
ENDBRANCH  13  23
BRANCH   4  26
HETATM   26  N3  UNL     1      37.306  -2.667  15.336  1.00  0.00    -0.315 N
HETATM   27  C7  UNL     1      38.447  -3.452  15.625  1.00  0.00     0.187 C
HETATM   28  N4  UNL     1      39.584  -2.956  15.946  1.00  0.00    -0.373 N
HETATM   29  N5  UNL     1      38.322  -4.860  15.555  1.00  0.00    -0.064 NA
ATOM     30  H42 UNL     1      39.674  -1.941  15.996  1.00  0.00     0.158 HD
ATOM     31  H41 UNL     1      40.407  -3.522  16.154  1.00  0.00     0.158 HD
ATOM     32  H3  UNL     1      36.625  -2.518  16.080  1.00  0.00     0.170 HD
ENDBRANCH   4  26
BRANCH   8  33
HETATM   33  N7  UNL     1      34.554  -5.873  13.072  1.00  0.00    -0.234 N
ATOM     34  H72 UNL     1      34.289  -6.080  14.035  1.00  0.00     0.174 HD
ATOM     35  H71 UNL     1      34.428  -6.591  12.359  1.00  0.00     0.174 HD
ENDBRANCH   8  33
TORSDOF 9
ENDMDL