MODEL 1
REMARK VINA RESULT: -6.871449186      0.000      0.000
REMARK  6 active torsions:
REMARK  status: ('A' for Active; 'I' for Inactive)
REMARK    1  A    between atoms: O1_2  and  C2_3
REMARK    2  A    between atoms: C5_8  and  C6_9
REMARK    3  A    between atoms: C6_9  and  N2_10
REMARK    4  A    between atoms: C8_18  and  N6_19
REMARK    5  A    between atoms: N8_25  and  N9_27
REMARK    6  A    between atoms: N10_32  and  N11_34
ROOT
HETATM    1  N2  UNL     1      35.127  -5.098  12.046  1.00  0.00    -0.254 N
HETATM    2  N3  UNL     1      34.822  -4.387  10.931  1.00  0.00    -0.237 N
ATOM      3  H3  UNL     1      34.318  -4.864  10.183  1.00  0.00     0.208 HD
HETATM    4  N4  UNL     1      35.134  -3.130  10.757  1.00  0.00    -0.269 N
ATOM      5  H4  UNL     1      34.870  -2.664   9.889  1.00  0.00     0.190 HD
HETATM    6  C7  UNL     1      35.792  -2.444  11.694  1.00  0.00     0.154 A
HETATM    7  N5  UNL     1      36.122  -1.127  11.514  1.00  0.00    -0.174 N
ATOM      8  H5  UNL     1      35.864  -0.647  10.651  1.00  0.00     0.186 HD
HETATM    9  C8  UNL     1      36.785  -0.470  12.478  1.00  0.00     0.679 A
HETATM   10  N7  UNL     1      37.144  -1.068  13.635  1.00  0.00    -0.174 N
ATOM     11  H7  UNL     1      37.648  -0.555  14.358  1.00  0.00     0.186 HD
HETATM   12  C9  UNL     1      36.811  -2.383  13.806  1.00  0.00     0.153 A
HETATM   13  N8  UNL     1      37.124  -3.013  14.887  1.00  0.00    -0.291 N
ATOM     14  H8  UNL     1      36.875  -3.993  15.018  1.00  0.00     0.188 HD
HETATM   15  C10 UNL     1      36.132  -3.079  12.834  1.00  0.00     0.102 A
HETATM   16  C11 UNL     1      35.780  -4.451  13.001  1.00  0.00     0.156 A
HETATM   17  N10 UNL     1      36.095  -4.895  14.111  1.00  0.00    -0.290 N
ATOM     18  H10 UNL     1      36.594  -4.200  14.666  1.00  0.00     0.188 HD
ENDROOT
BRANCH   1  19
HETATM   19  C6  UNL     1      34.782  -6.498  12.074  1.00  0.00     0.209 C
BRANCH  19  20
HETATM   20  C5  UNL     1      35.589  -7.349  11.197  1.00  0.00     0.031 A
HETATM   21  N1  UNL     1      36.849  -7.655  11.449  1.00  0.00    -0.368 N
HETATM   22  C4  UNL     1      37.657  -8.411  10.719  1.00  0.00     0.091 A
ATOM     23  H1  UNL     1      37.245  -7.264  12.304  1.00  0.00     0.165 HD
HETATM   24  C3  UNL     1      37.113  -8.943   9.551  1.00  0.00     0.053 A
HETATM   25  C2  UNL     1      35.803  -8.686   9.191  1.00  0.00     0.071 A
HETATM   26  C12 UNL     1      35.055  -7.890  10.019  1.00  0.00     0.063 A
BRANCH  25  27
HETATM   27  O1  UNL     1      35.271  -9.231   8.007  1.00  0.00    -0.356 OA
HETATM   28  C1  UNL     1      36.185  -9.758   7.075  1.00  0.00     0.210 C
ENDBRANCH  25  27
ENDBRANCH  19  20
ENDBRANCH   1  19
BRANCH  17  29
HETATM   29  N11 UNL     1      35.955  -6.036  14.767  1.00  0.00    -0.344 N
ATOM     30 2H11 UNL     1      34.966  -6.251  14.893  1.00  0.00     0.176 HD
ATOM     31 1H11 UNL     1      36.572  -6.741  15.170  1.00  0.00     0.176 HD
ENDBRANCH  17  29
BRANCH  13  32
HETATM   32  N9  UNL     1      37.814  -2.303  15.871  1.00  0.00    -0.344 N
ATOM     33  H92 UNL     1      37.993  -1.305  15.756  1.00  0.00     0.176 HD
ATOM     34  H91 UNL     1      38.125  -2.819  16.694  1.00  0.00     0.176 HD
ENDBRANCH  13  32
BRANCH   9  35
HETATM   35  N6  UNL     1      37.095   0.788  12.298  1.00  0.00    -0.234 N
ATOM     36  H62 UNL     1      36.462   1.377  11.757  1.00  0.00     0.174 HD
ATOM     37  H61 UNL     1      37.960   1.151  12.699  1.00  0.00     0.174 HD
ENDBRANCH   9  35
TORSDOF 6
ENDMDL