MODEL 5
REMARK VINA RESULT: -5.137071333      2.085      4.309
REMARK  9 active torsions:
REMARK  status: ('A' for Active; 'I' for Inactive)
REMARK    1  A    between atoms: O1_2  and  C2_3
REMARK    2  A    between atoms: C2_3  and  O2_4
REMARK    3  A    between atoms: C3_6  and  N1_7
REMARK    4  A    between atoms: C4_11  and  N2_12
REMARK    5  A    between atoms: C4_11  and  C5_17
REMARK    6  A    between atoms: N2_12  and  N3_14
REMARK    7  A    between atoms: C6_22  and  N5_23
REMARK    8  A    between atoms: N5_23  and  N6_25
REMARK    9  A    between atoms: C7_30  and  O7_31
ROOT
HETATM    1  C2  UNL     1      39.161  -2.951  13.986  1.00  0.00     0.245 C
HETATM    2  C3  UNL     1      38.250  -4.023  13.502  1.00  0.00     0.310 C
HETATM    3  C4  UNL     1      36.901  -3.505  13.048  1.00  0.00     0.244 C
HETATM    4  N4  UNL     1      36.375  -2.623  14.038  1.00  0.00    -0.360 N
ATOM      5  H4  UNL     1      35.484  -2.801  14.501  1.00  0.00     0.158 HD
HETATM    6  C6  UNL     1      37.163  -1.484  14.340  1.00  0.00     0.252 C
HETATM    7  C7  UNL     1      38.487  -1.958  14.903  1.00  0.00     0.244 C
HETATM    8  C8  UNL     1      38.379  -2.419  16.281  1.00  0.00     0.108 C
HETATM    9  N8  UNL     1      38.306  -2.768  17.378  1.00  0.00    -0.194 NA
ENDROOT
BRANCH   7  10
HETATM   10  O7  UNL     1      39.320  -0.815  14.929  1.00  0.00    -0.368 OA
ATOM     11  H7  UNL     1      40.162  -1.091  14.586  1.00  0.00     0.212 HD
ENDBRANCH   7  10
BRANCH   1  12
HETATM   12  O1  UNL     1      40.237  -3.476  14.661  1.00  0.00    -0.355 OA
HETATM   13  C1  UNL     1      41.413  -3.546  13.931  1.00  0.00     0.205 C
ENDBRANCH   1  12
BRANCH   1  14
HETATM   14  O2  UNL     1      39.566  -2.196  12.865  1.00  0.00    -0.360 OA
ATOM     15  H2  UNL     1      38.894  -2.176  12.194  1.00  0.00     0.213 HD
ENDBRANCH   1  14
BRANCH   6  16
HETATM   16  N5  UNL     1      37.475  -0.622  13.227  1.00  0.00    -0.295 N
ATOM     17  H5  UNL     1      38.174  -0.896  12.537  1.00  0.00     0.184 HD
BRANCH  16  18
HETATM   18  N6  UNL     1      36.882   0.447  13.128  1.00  0.00    -0.252 N
HETATM   19  N7  UNL     1      35.923   1.233  13.112  1.00  0.00    -0.331 N
ATOM     20  H72 UNL     1      35.181   0.558  13.298  1.00  0.00     0.178 HD
ATOM     21  H71 UNL     1      35.430   2.122  13.029  1.00  0.00     0.178 HD
ATOM     22  H6  UNL     1      37.657   1.082  12.943  1.00  0.00     0.207 HD
ENDBRANCH  16  18
ENDBRANCH   6  16
BRANCH   2  23
HETATM   23  N1  UNL     1      38.053  -5.085  14.462  1.00  0.00    -0.065 N
ATOM     24  H13 UNL     1      38.791  -5.784  14.384  1.00  0.00     0.275 HD
ATOM     25  H12 UNL     1      38.231  -4.754  15.409  1.00  0.00     0.275 HD
ATOM     26  H11 UNL     1      37.133  -5.523  14.398  1.00  0.00     0.275 HD
ENDBRANCH   2  23
BRANCH   3  27
HETATM   27  N2  UNL     1      36.998  -2.884  11.734  1.00  0.00    -0.236 N
ATOM     28  H2  UNL     1      37.909  -2.745  11.298  1.00  0.00     0.190 HD
BRANCH  27  29
HETATM   29  N3  UNL     1      35.841  -2.484  11.080  1.00  0.00    -0.041 N
HETATM   30  O3  UNL     1      35.304  -1.383  11.367  1.00  0.00    -0.517 OA
HETATM   31  O4  UNL     1      35.197  -3.211  10.105  1.00  0.00    -0.517 OA
ENDBRANCH  27  29
ENDBRANCH   3  27
BRANCH   3  32
HETATM   32  C5  UNL     1      35.990  -4.663  12.920  1.00  0.00     0.228 C
HETATM   33  O5  UNL     1      34.891  -4.628  13.517  1.00  0.00    -0.645 OA
HETATM   34  O6  UNL     1      36.250  -5.807  12.184  1.00  0.00    -0.645 OA
ENDBRANCH   3  32
TORSDOF 9
ENDMDL