MODEL 1
REMARK VINA RESULT: -6.824846774      0.000      0.000
REMARK  8 active torsions:
REMARK  status: ('A' for Active; 'I' for Inactive)
REMARK    1  A    between atoms: N1_1  and  S1_4
REMARK    2  A    between atoms: S1_4  and  N2_6
REMARK    3  A    between atoms: N2_6  and  N3_8
REMARK    4  A    between atoms: C1_10  and  C2_11
REMARK    5  A    between atoms: C3_12  and  N4_13
REMARK    6  A    between atoms: N4_13  and  C4_15
REMARK    7  A    between atoms: C5_16  and  O2_17
REMARK    8  A    between atoms: C7_25  and  N7_26
ROOT
HETATM    1  C2  UNL     1      36.199  -2.857  12.341  1.00  0.00     0.066 A
HETATM    2  C3  UNL     1      36.530  -1.503  12.490  1.00  0.00     0.103 A
HETATM    3  C8  UNL     1      36.053  -1.301  11.219  1.00  0.00     0.250 A
HETATM    4  O4  UNL     1      35.935  -0.306  10.444  1.00  0.00    -0.282 OA
HETATM    5  C9  UNL     1      35.724  -2.649  11.074  1.00  0.00     0.238 A
HETATM    6  O5  UNL     1      35.206  -3.308  10.129  1.00  0.00    -0.283 OA
ENDROOT
BRANCH   2   7
HETATM    7  N4  UNL     1      37.108  -0.689  13.505  1.00  0.00    -0.346 N
ATOM      8  H4  UNL     1      37.074  -0.987  14.480  1.00  0.00     0.166 HD
BRANCH   7   9
HETATM    9  C4  UNL     1      37.723   0.523  13.160  1.00  0.00     0.128 A
HETATM   10  C5  UNL     1      37.016   1.726  13.077  1.00  0.00     0.175 A
HETATM   11  N5  UNL     1      37.663   2.850  12.743  1.00  0.00    -0.287 N
HETATM   12  C6  UNL     1      38.983   2.845  12.482  1.00  0.00     0.327 A
ATOM     13  H5  UNL     1      37.145   3.727  12.685  1.00  0.00     0.172 HD
HETATM   14  O3  UNL     1      39.591   3.914  12.165  1.00  0.00    -0.247 OA
HETATM   15  N6  UNL     1      39.711   1.716  12.546  1.00  0.00    -0.293 N
HETATM   16  C7  UNL     1      39.068   0.564  12.886  1.00  0.00     0.134 A
ATOM     17  H6  UNL     1      40.712   1.722  12.346  1.00  0.00     0.172 HD
BRANCH  10  18
HETATM   18  O2  UNL     1      35.648   1.694  13.355  1.00  0.00    -0.344 OA
ATOM     19  H2  UNL     1      35.052   1.605  12.620  1.00  0.00     0.219 HD
ENDBRANCH  10  18
BRANCH  16  20
HETATM   20  N7  UNL     1      39.773  -0.507  12.944  1.00  0.00    -0.383 N
ATOM     21  H72 UNL     1      39.327  -1.339  13.332  1.00  0.00     0.157 HD
ATOM     22  H71 UNL     1      40.737  -0.507  12.611  1.00  0.00     0.157 HD
ENDBRANCH  16  20
ENDBRANCH   7   9
ENDBRANCH   2   7
BRANCH   1  23
HETATM   23  C1  UNL     1      36.341  -4.000  13.249  1.00  0.00     0.126 C
HETATM   24  N3  UNL     1      35.443  -4.834  13.520  1.00  0.00    -0.302 N
ATOM     25  H3  UNL     1      35.779  -5.540  14.176  1.00  0.00     0.186 HD
BRANCH  24  26
HETATM   26  N2  UNL     1      34.185  -5.048  13.189  1.00  0.00    -0.232 N
ATOM     27  H2  UNL     1      33.379  -4.621  13.644  1.00  0.00     0.199 HD
BRANCH  26  28
HETATM   28  S1  UNL     1      34.102  -6.204  11.818  1.00  0.00     0.229 S
HETATM   29  O1  UNL     1      33.406  -6.969  13.020  1.00  0.00    -0.211 OA
BRANCH  28  30
HETATM   30  N1  UNL     1      34.406  -6.328  10.639  1.00  0.00    -0.331 N
ATOM     31  H12 UNL     1      34.236  -6.912   9.821  1.00  0.00     0.168 HD
ATOM     32  H11 UNL     1      34.976  -5.907   9.905  1.00  0.00     0.168 HD
ENDBRANCH  28  30
ENDBRANCH  26  28
ENDBRANCH  24  26
ENDBRANCH   1  23
TORSDOF 8
ENDMDL