MODEL 2
REMARK VINA RESULT: -6.924161314      2.374      2.707
REMARK  7 active torsions:
REMARK  status: ('A' for Active; 'I' for Inactive)
REMARK       I    between atoms: N1_1  and  C1_4
REMARK       I    between atoms: C1_4  and  N2_5
REMARK       I    between atoms: C1_4  and  N9_30
REMARK    1  A    between atoms: N2_5  and  C2_7
REMARK    2  A    between atoms: C2_7  and  N3_8
REMARK    3  A    between atoms: C2_7  and  C3_11
REMARK    4  A    between atoms: C5_17  and  C6_18
REMARK    5  A    between atoms: N7_21  and  C7_22
REMARK    6  A    between atoms: C7_22  and  O2_23
REMARK    7  A    between atoms: N9_30  and  N10_32
ROOT
HETATM    1  C3  UNL     1      36.637  -1.556  11.966  1.00  0.00     0.152 A
HETATM    2  N4  UNL     1      37.913  -1.165  11.785  1.00  0.00    -0.323 N
ATOM      3  H4  UNL     1      38.659  -1.765  11.433  1.00  0.00     0.169 HD
HETATM    4  C4  UNL     1      38.067   0.114  12.129  1.00  0.00     0.141 A
HETATM    5  N5  UNL     1      39.082   0.977  12.150  1.00  0.00    -0.322 N
ATOM      6  H5  UNL     1      39.992   0.639  11.837  1.00  0.00     0.169 HD
HETATM    7  C5  UNL     1      39.000   2.266  12.552  1.00  0.00     0.180 A
HETATM    8  N7  UNL     1      37.793   2.679  12.954  1.00  0.00    -0.272 N
HETATM    9  C8  UNL     1      36.716   1.852  12.959  1.00  0.00     0.281 A
HETATM   10  O3  UNL     1      35.577   2.268  13.347  1.00  0.00    -0.265 OA
HETATM   11  C9  UNL     1      36.839   0.564  12.549  1.00  0.00     0.147 A
HETATM   12  N8  UNL     1      35.974  -0.489  12.437  1.00  0.00    -0.332 N
ATOM     13  H8  UNL     1      34.983  -0.467  12.673  1.00  0.00     0.168 HD
ENDROOT
BRANCH   1  14
HETATM   14  C2  UNL     1      36.044  -2.855  11.718  1.00  0.00     0.159 C
BRANCH  14  15
HETATM   15  N2  UNL     1      36.639  -4.049  12.207  1.00  0.00    -0.172 N
HETATM   16  C1  UNL     1      36.374  -4.554  13.493  1.00  0.00     0.697 C
HETATM   17  N1  UNL     1      35.381  -5.381  13.686  1.00  0.00    -0.233 N
HETATM   18  N9  UNL     1      37.183  -4.171  14.601  1.00  0.00    -0.072 N
ATOM     19  H12 UNL     1      34.801  -5.655  12.892  1.00  0.00     0.174 HD
ATOM     20  H11 UNL     1      35.188  -5.747  14.619  1.00  0.00     0.174 HD
ATOM     21  H9  UNL     1      37.280  -4.783  15.411  1.00  0.00     0.212 HD
ATOM     22  H2  UNL     1      37.283  -4.560  11.603  1.00  0.00     0.186 HD
BRANCH  18  23
HETATM   23  N10 UNL     1      37.840  -2.941  14.553  1.00  0.00    -0.024 N
HETATM   24  O4  UNL     1      37.373  -1.897  15.028  1.00  0.00    -0.516 OA
HETATM   25  O5  UNL     1      39.071  -2.897  13.945  1.00  0.00    -0.516 OA
ENDBRANCH  18  23
ENDBRANCH  14  15
BRANCH  14  26
HETATM   26  N3  UNL     1      34.966  -2.943  11.048  1.00  0.00    -0.382 N
ATOM     27  H32 UNL     1      34.202  -2.291  11.222  1.00  0.00     0.157 HD
ATOM     28  H31 UNL     1      34.891  -3.675  10.340  1.00  0.00     0.157 HD
ENDBRANCH  14  26
ENDBRANCH   1  14
BRANCH   7  29
HETATM   29  C6  UNL     1      40.179   3.096  12.540  1.00  0.00     0.299 C
HETATM   30  N6  UNL     1      40.910   3.593  13.626  1.00  0.00    -0.054 NA
HETATM   31  O1  UNL     1      40.637   3.433  11.387  1.00  0.00    -0.268 OA
ENDBRANCH   7  29
BRANCH   8  32
HETATM   32  C7  UNL     1      37.537   4.035  13.382  1.00  0.00     0.300 C
BRANCH  32  33
HETATM   33  O2  UNL     1      37.802   4.204  14.740  1.00  0.00    -0.382 OA
ATOM     34  H2  UNL     1      37.644   5.097  15.019  1.00  0.00     0.211 HD
ENDBRANCH  32  33
ENDBRANCH   8  32
TORSDOF 7
ENDMDL