MODEL 2
REMARK VINA RESULT: -6.229123490      1.307      2.521
REMARK  7 active torsions:
REMARK  status: ('A' for Active; 'I' for Inactive)
REMARK    1  A    between atoms: N1_2  and  N2_3
REMARK    2  A    between atoms: N1_2  and  S1_6
REMARK    3  A    between atoms: N2_3  and  O1_4
REMARK    4  A    between atoms: S1_6  and  N3_9
REMARK    5  A    between atoms: C2_10  and  N4_11
REMARK    6  A    between atoms: C3_16  and  N6_17
REMARK    7  A    between atoms: C8_27  and  N9_28
ROOT
HETATM    1  N3  UNL     1      35.474  -6.676  11.876  1.00  0.00     0.118 N
HETATM    2  C2  UNL     1      34.446  -5.810  11.833  1.00  0.00     0.722 A
HETATM    3  N5  UNL     1      34.661  -4.521  12.113  1.00  0.00    -0.020 N
ATOM      4  H5  UNL     1      33.865  -3.882  12.075  1.00  0.00     0.203 HD
HETATM    5  C3  UNL     1      35.860  -4.014  12.443  1.00  0.00     0.709 A
HETATM    6  N8  UNL     1      36.880  -4.909  12.478  1.00  0.00    -0.020 N
ATOM      7  H8  UNL     1      37.816  -4.586  12.722  1.00  0.00     0.203 HD
HETATM    8  C8  UNL     1      36.687  -6.203  12.201  1.00  0.00     0.722 A
ENDROOT
BRANCH   1   9
HETATM    9  S1  UNL     1      35.313  -8.343  11.535  1.00  0.00     0.354 S
HETATM   10  O2  UNL     1      35.975  -8.651  10.226  1.00  0.00    -0.185 OA
HETATM   11  O3  UNL     1      35.991  -9.189  12.606  1.00  0.00    -0.185 OA
BRANCH   9  12
HETATM   12  N1  UNL     1      33.670  -8.854  11.484  1.00  0.00    -0.084 NA
HETATM   13  C1  UNL     1      33.602  -9.945  10.506  1.00  0.00     0.155 C
BRANCH  12  14
HETATM   14  N2  UNL     1      33.302  -9.425  12.714  1.00  0.00     0.008 NA
BRANCH  14  15
HETATM   15  O1  UNL     1      33.302  -8.534  13.710  1.00  0.00    -0.280 OA
ATOM     16  H1  UNL     1      33.063  -8.922  14.543  1.00  0.00     0.240 HD
ENDBRANCH  14  15
ENDBRANCH  12  14
ENDBRANCH   9  12
ENDBRANCH   1   9
BRANCH   2  17
HETATM   17  N4  UNL     1      33.291  -6.237  11.527  1.00  0.00    -0.232 N
ATOM     18  H42 UNL     1      33.036  -7.217  11.654  1.00  0.00     0.174 HD
ATOM     19  H41 UNL     1      32.606  -5.585  11.145  1.00  0.00     0.174 HD
ENDBRANCH   2  17
BRANCH   8  20
HETATM   20  N9  UNL     1      37.715  -7.016  12.253  1.00  0.00    -0.232 N
ATOM     21  H92 UNL     1      37.702  -7.856  11.675  1.00  0.00     0.174 HD
ATOM     22  H91 UNL     1      38.504  -6.801  12.862  1.00  0.00     0.174 HD
ENDBRANCH   8  20
BRANCH   5  23
HETATM   23  N6  UNL     1      36.051  -2.644  12.734  1.00  0.00    -0.213 N
HETATM   24  C4  UNL     1      35.505  -1.599  11.910  1.00  0.00     0.168 C
HETATM   25  C5  UNL     1      36.434  -0.424  11.770  1.00  0.00     0.252 C
HETATM   26  N7  UNL     1      37.048  -0.063  13.041  1.00  0.00    -0.072 N
HETATM   27  C6  UNL     1      37.817  -1.213  13.490  1.00  0.00     0.252 C
ATOM     28  H72 UNL     1      37.603   0.792  12.988  1.00  0.00     0.277 HD
ATOM     29  H71 UNL     1      36.373   0.262  13.734  1.00  0.00     0.277 HD
HETATM   30  C7  UNL     1      36.823  -2.280  13.901  1.00  0.00     0.168 C
ENDBRANCH   5  23
TORSDOF 7
ENDMDL