MODEL 1
REMARK VINA RESULT: -8.432729862      0.000      0.000
REMARK  16 active torsions:
REMARK  status: ('A' for Active; 'I' for Inactive)
REMARK    1  A    between atoms: C2_2  and  C3_3
REMARK    2  A    between atoms: C3_3  and  C4_4
REMARK    3  A    between atoms: C4_4  and  C5_5
REMARK    4  A    between atoms: C5_5  and  C6_6
REMARK    5  A    between atoms: C6_6  and  C7_7
REMARK    6  A    between atoms: C7_7  and  N1_8
REMARK    7  A    between atoms: C7_7  and  C25_41
REMARK    8  A    between atoms: N1_8  and  C8_10
REMARK    9  A    between atoms: C8_10  and  O1_11
REMARK   10  A    between atoms: C8_10  and  C9_13
REMARK   11  A    between atoms: C10_16  and  N3_17
REMARK   12  A    between atoms: C12_21  and  N4_22
REMARK   13  A    between atoms: C13_24  and  N5_25
REMARK   14  A    between atoms: N5_25  and  C14_27
REMARK   15  A    between atoms: C14_27  and  C15_28
REMARK   16  A    between atoms: C15_28  and  C16_29
ROOT
HETATM    1  C9  UNL     1     188.815 123.962  32.648  1.00  0.00     0.128 C
HETATM    2  N2  UNL     1     188.629 124.540  31.441  1.00  0.00    -0.337 N
ATOM      3  H2  UNL     1     189.273 124.259  30.702  1.00  0.00     0.167 HD
HETATM    4  C10 UNL     1     187.674 125.461  31.095  1.00  0.00     0.114 C
HETATM    5  C11 UNL     1     186.374 125.472  31.555  1.00  0.00     0.061 A
HETATM    6  C12 UNL     1     185.573 126.315  30.819  1.00  0.00     0.049 A
HETATM    7  C19 UNL     1     184.221 126.496  31.146  1.00  0.00     0.031 A
HETATM    8  C20 UNL     1     183.718 125.817  32.206  1.00  0.00     0.011 A
HETATM    9  C21 UNL     1     184.507 124.962  32.959  1.00  0.00    -0.034 A
HETATM   10  C22 UNL     1     183.940 124.225  34.120  1.00  0.00     0.050 C
HETATM   11  C23 UNL     1     185.836 124.778  32.647  1.00  0.00     0.057 A
HETATM   12  N6  UNL     1     186.471 123.923  33.444  1.00  0.00    -0.320 N
ATOM     13  H6  UNL     1     185.883 123.458  34.137  1.00  0.00     0.169 HD
HETATM   14  C24 UNL     1     187.780 123.578  33.473  1.00  0.00     0.273 C
HETATM   15  O2  UNL     1     188.131 122.790  34.383  1.00  0.00    -0.266 OA
ENDROOT
BRANCH   1  16
HETATM   16  C8  UNL     1     190.222 123.729  33.112  1.00  0.00     0.271 C
BRANCH  16  17
HETATM   17  N1  UNL     1     190.525 122.383  32.888  1.00  0.00    -0.380 N
ATOM     18  H1  UNL     1     190.782 121.773  33.665  1.00  0.00     0.157 HD
BRANCH  17  19
HETATM   19  C7  UNL     1     190.469 121.870  31.542  1.00  0.00     0.157 C
BRANCH  19  20
HETATM   20  C6  UNL     1     190.006 120.453  31.469  1.00  0.00     0.033 C
BRANCH  20  21
HETATM   21  C5  UNL     1     188.652 120.334  30.867  1.00  0.00     0.002 C
BRANCH  21  22
HETATM   22  C4  UNL     1     187.548 120.298  31.904  1.00  0.00     0.000 C
BRANCH  22  23
HETATM   23  C3  UNL     1     186.397 121.130  31.371  1.00  0.00    -0.000 C
BRANCH  23  24
HETATM   24  C2  UNL     1     185.103 120.794  32.098  1.00  0.00    -0.005 C
HETATM   25  C1  UNL     1     183.932 121.557  31.518  1.00  0.00     0.005 C
ENDBRANCH  23  24
ENDBRANCH  22  23
ENDBRANCH  21  22
ENDBRANCH  20  21
ENDBRANCH  19  20
BRANCH  19  26
HETATM   26  C25 UNL     1     191.690 122.166  30.787  1.00  0.00     0.170 A
HETATM   27  N7  UNL     1     191.987 122.971  29.765  1.00  0.00    -0.325 N
HETATM   28  C26 UNL     1     193.265 122.884  29.431  1.00  0.00     0.100 A
ATOM     29  H7  UNL     1     191.313 123.577  29.299  1.00  0.00     0.169 HD
HETATM   30  C27 UNL     1     193.978 123.605  28.366  1.00  0.00     0.091 C
HETATM   31  N8  UNL     1     193.788 121.982  30.285  1.00  0.00    -0.247 N
HETATM   32  O3  UNL     1     192.849 121.573  31.071  1.00  0.00    -0.221 OA
ATOM     33  H8  UNL     1     194.760 121.674  30.307  1.00  0.00     0.196 HD
ENDBRANCH  19  26
ENDBRANCH  17  19
ENDBRANCH  16  17
BRANCH  16  34
HETATM   34  O1  UNL     1     190.991 124.649  32.416  1.00  0.00    -0.371 OA
ATOM     35  H1  UNL     1     191.725 125.021  32.891  1.00  0.00     0.212 HD
ENDBRANCH  16  34
ENDBRANCH   1  16
BRANCH   4  36
HETATM   36  N3  UNL     1     188.046 126.391  30.287  1.00  0.00    -0.385 N
ATOM     37  H32 UNL     1     189.012 126.715  30.332  1.00  0.00     0.157 HD
ATOM     38  H31 UNL     1     187.338 126.736  29.639  1.00  0.00     0.157 HD
ENDBRANCH   4  36
BRANCH   6  39
HETATM   39  N4  UNL     1     186.140 126.986  29.705  1.00  0.00    -0.352 N
HETATM   40  C13 UNL     1     185.829 128.192  29.421  1.00  0.00     0.176 C
ATOM     41  H4  UNL     1     186.813 126.494  29.117  1.00  0.00     0.166 HD
BRANCH  40  42
HETATM   42  N5  UNL     1     184.904 129.000  30.158  1.00  0.00    -0.386 N
ATOM     43  H5  UNL     1     183.923 128.725  30.209  1.00  0.00     0.160 HD
BRANCH  42  44
HETATM   44  C14 UNL     1     185.339 130.182  30.817  1.00  0.00     0.120 C
BRANCH  44  45
HETATM   45  C15 UNL     1     186.332 129.946  31.892  1.00  0.00     0.023 C
BRANCH  45  46
HETATM   46  C16 UNL     1     185.843 129.384  33.169  1.00  0.00    -0.021 C
HETATM   47  C17 UNL     1     185.855 130.536  34.198  1.00  0.00     0.009 C
HETATM   48  C18 UNL     1     186.618 128.271  33.796  1.00  0.00     0.009 C
ENDBRANCH  45  46
ENDBRANCH  44  45
ENDBRANCH  42  44
ENDBRANCH  40  42
ENDBRANCH   6  39
TORSDOF 16
ENDMDL