MODEL 2
REMARK VINA RESULT: -8.089440570      2.766      6.845
REMARK  16 active torsions:
REMARK  status: ('A' for Active; 'I' for Inactive)
REMARK    1  A    between atoms: C2_2  and  C3_3
REMARK    2  A    between atoms: C3_3  and  C4_4
REMARK    3  A    between atoms: C4_4  and  C5_5
REMARK    4  A    between atoms: C5_5  and  C6_6
REMARK    5  A    between atoms: C6_6  and  C7_7
REMARK    6  A    between atoms: C7_7  and  C8_8
REMARK    7  A    between atoms: C8_8  and  C9_9
REMARK    8  A    between atoms: C9_9  and  C10_10
REMARK    9  A    between atoms: C10_10  and  C11_11
REMARK   10  A    between atoms: C11_11  and  C12_12
REMARK   11  A    between atoms: C12_12  and  N1_13
REMARK       I    between atoms: N1_13  and  C13_15
REMARK       I    between atoms: C13_15  and  N2_17
REMARK   12  A    between atoms: N2_17  and  C14_18
REMARK   13  A    between atoms: N2_17  and  C15_21
REMARK   14  A    between atoms: C14_18  and  O2_19
REMARK   15  A    between atoms: C16_24  and  N4_25
REMARK   16  A    between atoms: C19_34  and  C20_35
ROOT
HETATM    1  C15 UNL     1     196.525 125.743  35.762  1.00  0.00     0.158 A
HETATM    2  N3  UNL     1     197.565 126.466  36.276  1.00  0.00    -0.174 N
ATOM      3  H3  UNL     1     198.513 126.101  36.176  1.00  0.00     0.186 HD
HETATM    4  C16 UNL     1     197.387 127.639  36.909  1.00  0.00     0.678 A
HETATM    5  N5  UNL     1     196.164 128.167  37.069  1.00  0.00    -0.189 N
ATOM      6  H5  UNL     1     196.040 129.058  37.550  1.00  0.00     0.184 HD
HETATM    7  C17 UNL     1     195.103 127.493  36.578  1.00  0.00     0.093 A
HETATM    8  C18 UNL     1     195.278 126.267  35.916  1.00  0.00     0.107 A
HETATM    9  N6  UNL     1     194.212 125.605  35.430  1.00  0.00    -0.347 N
ATOM     10  H6  UNL     1     194.361 124.716  34.953  1.00  0.00     0.166 HD
HETATM   11  C19 UNL     1     192.955 126.072  35.551  1.00  0.00     0.092 A
HETATM   12  C23 UNL     1     192.796 127.287  36.208  1.00  0.00     0.091 A
HETATM   13  N10 UNL     1     191.691 128.020  36.493  1.00  0.00    -0.298 N
ATOM     14  H10 UNL     1     190.738 127.758  36.241  1.00  0.00     0.187 HD
HETATM   15  N11 UNL     1     192.022 129.119  37.142  1.00  0.00    -0.310 N
ATOM     16  H11 UNL     1     191.369 129.832  37.467  1.00  0.00     0.186 HD
HETATM   17  C24 UNL     1     193.355 129.153  37.307  1.00  0.00     0.123 A
HETATM   18  C25 UNL     1     193.847 128.009  36.725  1.00  0.00     0.041 A
ENDROOT
BRANCH   1  19
HETATM   19  N2  UNL     1     196.803 124.531  35.128  1.00  0.00    -0.261 N
HETATM   20  C13 UNL     1     196.610 124.484  33.691  1.00  0.00     0.325 C
HETATM   21  N1  UNL     1     196.462 125.704  32.994  1.00  0.00    -0.343 N
HETATM   22  O1  UNL     1     196.588 123.357  33.168  1.00  0.00    -0.247 OA
ATOM     23  H1  UNL     1     196.523 126.574  33.523  1.00  0.00     0.164 HD
BRANCH  21  24
HETATM   24  C12 UNL     1     196.230 125.784  31.579  1.00  0.00     0.124 C
BRANCH  24  25
HETATM   25  C11 UNL     1     194.828 125.462  31.151  1.00  0.00     0.020 C
BRANCH  25  26
HETATM   26  C10 UNL     1     194.756 125.093  29.708  1.00  0.00     0.002 C
BRANCH  26  27
HETATM   27  C9  UNL     1     193.638 124.329  29.180  1.00  0.00     0.000 C
BRANCH  27  28
HETATM   28  C8  UNL     1     193.674 122.874  28.993  1.00  0.00     0.000 C
BRANCH  28  29
HETATM   29  C7  UNL     1     193.680 122.050  30.203  1.00  0.00     0.000 C
BRANCH  29  30
HETATM   30  C6  UNL     1     192.536 122.369  31.189  1.00  0.00     0.000 C
BRANCH  30  31
HETATM   31  C5  UNL     1     191.221 121.987  30.589  1.00  0.00     0.000 C
BRANCH  31  32
HETATM   32  C4  UNL     1     190.672 120.781  31.366  1.00  0.00     0.000 C
BRANCH  32  33
HETATM   33  C3  UNL     1     189.265 120.472  30.862  1.00  0.00    -0.000 C
BRANCH  33  34
HETATM   34  C2  UNL     1     188.286 120.877  31.920  1.00  0.00    -0.005 C
HETATM   35  C1  UNL     1     186.997 120.104  31.846  1.00  0.00     0.005 C
ENDBRANCH  33  34
ENDBRANCH  32  33
ENDBRANCH  31  32
ENDBRANCH  30  31
ENDBRANCH  29  30
ENDBRANCH  28  29
ENDBRANCH  27  28
ENDBRANCH  26  27
ENDBRANCH  25  26
ENDBRANCH  24  25
ENDBRANCH  21  24
BRANCH  19  36
HETATM   36  C14 UNL     1     197.283 123.346  35.780  1.00  0.00     0.302 C
BRANCH  36  37
HETATM   37  O2  UNL     1     196.391 122.285  35.637  1.00  0.00    -0.382 OA
ATOM     38  H2  UNL     1     196.775 121.570  35.144  1.00  0.00     0.211 HD
ENDBRANCH  36  37
ENDBRANCH  19  36
ENDBRANCH   1  19
BRANCH   4  39
HETATM   39  N4  UNL     1     198.449 128.262  37.372  1.00  0.00    -0.234 N
ATOM     40  H42 UNL     1     199.383 127.999  37.057  1.00  0.00     0.174 HD
ATOM     41  H41 UNL     1     198.309 129.011  38.051  1.00  0.00     0.174 HD
ENDBRANCH   4  39
BRANCH  11  42
HETATM   42  C20 UNL     1     191.790 125.366  35.031  1.00  0.00     0.095 A
HETATM   43  C21 UNL     1     191.070 125.535  33.887  1.00  0.00     0.144 A
HETATM   44  N7  UNL     1     190.078 124.634  33.845  1.00  0.00    -0.291 N
HETATM   45  C22 UNL     1     189.065 124.436  32.819  1.00  0.00     0.178 C
HETATM   46  N8  UNL     1     190.184 123.911  34.955  1.00  0.00    -0.241 N
HETATM   47  N9  UNL     1     191.197 124.335  35.670  1.00  0.00    -0.283 N
ATOM     48  H8  UNL     1     189.568 123.140  35.212  1.00  0.00     0.208 HD
ATOM     49  H9  UNL     1     191.491 123.947  36.567  1.00  0.00     0.188 HD
ENDBRANCH  11  42
TORSDOF 16
ENDMDL