MODEL 1
REMARK VINA RESULT: -8.945520639      0.000      0.000
REMARK  14 active torsions:
REMARK  status: ('A' for Active; 'I' for Inactive)
REMARK    1  A    between atoms: N6_23  and  C10_25
REMARK    2  A    between atoms: C10_25  and  C11_26
REMARK    3  A    between atoms: C11_26  and  C12_27
REMARK    4  A    between atoms: C12_27  and  C13_28
REMARK    5  A    between atoms: C13_28  and  C14_29
REMARK    6  A    between atoms: C14_29  and  C15_30
REMARK    7  A    between atoms: C15_30  and  C16_31
REMARK    8  A    between atoms: C16_31  and  C17_32
REMARK    9  A    between atoms: C17_32  and  C18_33
REMARK   10  A    between atoms: C18_33  and  C19_34
REMARK   11  A    between atoms: C19_34  and  C20_35
REMARK       I    between atoms: C20_35  and  N7_37
REMARK   12  A    between atoms: N7_37  and  C21_39
REMARK   13  A    between atoms: C21_39  and  C22_40
REMARK   14  A    between atoms: C22_40  and  C23_41
ROOT
HETATM    1  N1  UNL     1     188.246 128.302  28.708  1.00  0.00    -0.196 NA
HETATM    2  C1  UNL     1     187.228 128.730  29.111  1.00  0.00     0.080 C
HETATM    3  C2  UNL     1     185.972 129.268  29.620  1.00  0.00     0.234 C
HETATM    4  C3  UNL     1     185.365 130.207  28.636  1.00  0.00     0.142 C
HETATM    5  N2  UNL     1     184.965 131.312  29.184  1.00  0.00    -0.382 N
ATOM      6  H21 UNL     1     184.549 131.955  28.511  1.00  0.00     0.158 HD
ATOM      7  H22 UNL     1     185.121 131.376  30.191  1.00  0.00     0.158 HD
HETATM    8  O1  UNL     1     185.154 130.122  27.278  1.00  0.00    -0.298 OA
HETATM    9  C4  UNL     1     184.733 129.111  26.385  1.00  0.00     0.094 A
HETATM   10  C5  UNL     1     184.415 127.832  26.502  1.00  0.00     0.109 A
HETATM   11  N3  UNL     1     184.050 127.258  25.258  1.00  0.00    -0.322 N
ATOM     12  H3  UNL     1     183.766 126.292  25.095  1.00  0.00     0.169 HD
HETATM   13  C6  UNL     1     184.155 128.286  24.284  1.00  0.00     0.228 A
HETATM   14  O2  UNL     1     183.931 128.232  23.040  1.00  0.00    -0.273 OA
HETATM   15  C7  UNL     1     184.592 129.500  24.977  1.00  0.00     0.170 A
HETATM   16  C8  UNL     1     184.386 126.965  27.672  1.00  0.00     0.130 C
HETATM   17  N4  UNL     1     184.174 125.747  27.330  1.00  0.00    -0.384 N
ATOM     18  H41 UNL     1     184.154 125.140  28.149  1.00  0.00     0.157 HD
ATOM     19  H42 UNL     1     184.070 125.634  26.321  1.00  0.00     0.157 HD
HETATM   20  N5  UNL     1     184.533 127.125  29.096  1.00  0.00    -0.329 N
ATOM     21  H5  UNL     1     184.212 126.305  29.609  1.00  0.00     0.168 HD
HETATM   22  C9  UNL     1     185.015 128.143  29.964  1.00  0.00     0.104 C
HETATM   23  N6  UNL     1     184.633 128.154  31.165  1.00  0.00    -0.378 N
ATOM     24  H6  UNL     1     185.021 128.912  31.725  1.00  0.00     0.160 HD
ENDROOT
BRANCH  23  25
HETATM   25  C10 UNL     1     183.756 127.292  31.867  1.00  0.00     0.121 C
BRANCH  25  26
HETATM   26  C11 UNL     1     184.634 126.330  32.678  1.00  0.00     0.020 C
BRANCH  26  27
HETATM   27  C12 UNL     1     183.811 125.243  33.290  1.00  0.00     0.002 C
BRANCH  27  28
HETATM   28  C13 UNL     1     184.565 123.966  33.489  1.00  0.00     0.000 C
BRANCH  28  29
HETATM   29  C14 UNL     1     183.939 122.823  32.681  1.00  0.00     0.000 C
BRANCH  29  30
HETATM   30  C15 UNL     1     184.438 122.814  31.274  1.00  0.00     0.000 C
BRANCH  30  31
HETATM   31  C16 UNL     1     184.610 121.393  30.805  1.00  0.00     0.000 C
BRANCH  31  32
HETATM   32  C17 UNL     1     185.112 120.468  31.912  1.00  0.00     0.000 C
BRANCH  32  33
HETATM   33  C18 UNL     1     186.608 120.510  31.927  1.00  0.00     0.009 C
BRANCH  33  34
HETATM   34  C19 UNL     1     187.235 120.638  33.278  1.00  0.00     0.103 C
BRANCH  34  35
HETATM   35  C20 UNL     1     188.211 121.746  33.407  1.00  0.00     0.217 C
HETATM   36  O3  UNL     1     188.085 122.697  34.220  1.00  0.00    -0.274 OA
HETATM   37  N7  UNL     1     189.347 121.730  32.567  1.00  0.00    -0.361 N
ATOM     38  H7  UNL     1     189.479 120.972  31.898  1.00  0.00     0.162 HD
BRANCH  37  39
HETATM   39  C21 UNL     1     190.316 122.790  32.662  1.00  0.00     0.128 C
BRANCH  39  40
HETATM   40  C22 UNL     1     190.644 123.399  31.335  1.00  0.00     0.066 C
BRANCH  40  41
HETATM   41  C23 UNL     1     192.106 123.101  31.093  1.00  0.00    -0.016 A
HETATM   42  C24 UNL     1     192.633 121.971  30.535  1.00  0.00     0.015 A
HETATM   43  C25 UNL     1     193.969 121.908  30.410  1.00  0.00     0.008 A
HETATM   44  C26 UNL     1     194.690 122.985  30.855  1.00  0.00     0.050 A
HETATM   45  S1  UNL     1     193.483 124.044  31.430  1.00  0.00    -0.106 SA
ENDBRANCH  40  41
ENDBRANCH  39  40
ENDBRANCH  37  39
ENDBRANCH  34  35
ENDBRANCH  33  34
ENDBRANCH  32  33
ENDBRANCH  31  32
ENDBRANCH  30  31
ENDBRANCH  29  30
ENDBRANCH  28  29
ENDBRANCH  27  28
ENDBRANCH  26  27
ENDBRANCH  25  26
ENDBRANCH  23  25
TORSDOF 14
ENDMDL