MODEL 2
REMARK VINA RESULT: -6.398076933      2.474      4.167
REMARK  21 active torsions:
REMARK  status: ('A' for Active; 'I' for Inactive)
REMARK    1  A    between atoms: C2_2  and  C3_3
REMARK    2  A    between atoms: C3_3  and  N1_4
REMARK    3  A    between atoms: N1_4  and  C4_5
REMARK    4  A    between atoms: N1_4  and  C6_7
REMARK    5  A    between atoms: C6_7  and  S2_9
REMARK    6  A    between atoms: S2_9  and  S3_10
REMARK    7  A    between atoms: S3_10  and  C7_11
REMARK    8  A    between atoms: C7_11  and  N3_15
REMARK    9  A    between atoms: N3_15  and  C8_17
REMARK   10  A    between atoms: C8_17  and  C9_18
REMARK   11  A    between atoms: C9_18  and  C10_19
REMARK   12  A    between atoms: C10_19  and  C11_20
REMARK   13  A    between atoms: C11_20  and  C12_21
REMARK   14  A    between atoms: C12_21  and  C13_22
REMARK   15  A    between atoms: C13_22  and  C14_23
REMARK   16  A    between atoms: C14_23  and  C15_24
REMARK   17  A    between atoms: C15_24  and  O1_25
REMARK   18  A    between atoms: O1_25  and  C16_26
REMARK   19  A    between atoms: C17_30  and  O2_31
REMARK   20  A    between atoms: C18_34  and  S4_35
REMARK   21  A    between atoms: C20_37  and  O4_38
ROOT
HETATM    1  C11 UNL     1     184.033 124.789  33.348  1.00  0.00     0.000 C
ENDROOT
BRANCH   1   2
HETATM    2  C10 UNL     1     185.083 124.129  32.508  1.00  0.00     0.002 C
BRANCH   2   3
HETATM    3  C9  UNL     1     184.476 123.321  31.407  1.00  0.00     0.020 C
BRANCH   3   4
HETATM    4  C8  UNL     1     185.108 123.664  30.076  1.00  0.00     0.121 C
BRANCH   4   5
HETATM    5  N3  UNL     1     186.554 123.759  30.154  1.00  0.00    -0.370 N
ATOM      6  H3  UNL     1     187.085 122.953  30.482  1.00  0.00     0.161 HD
BRANCH   5   7
HETATM    7  C7  UNL     1     187.243 124.929  29.790  1.00  0.00     0.144 C
HETATM    8  N2  UNL     1     186.792 125.710  28.874  1.00  0.00    -0.379 N
ATOM      9  H22 UNL     1     187.291 126.559  28.610  1.00  0.00     0.158 HD
ATOM     10  H21 UNL     1     185.917 125.465  28.410  1.00  0.00     0.158 HD
BRANCH   7  11
HETATM   11  S3  UNL     1     188.773 125.358  30.603  1.00  0.00    -0.015 SA
BRANCH  11  12
HETATM   12  S2  UNL     1     188.743 124.945  32.663  1.00  0.00    -0.020 SA
BRANCH  12  13
HETATM   13  C6  UNL     1     189.498 123.384  33.031  1.00  0.00     0.148 C
HETATM   14  S1  UNL     1     190.267 123.273  34.499  1.00  0.00    -0.052 SA
BRANCH  13  15
HETATM   15  N1  UNL     1     189.456 122.311  32.154  1.00  0.00    -0.363 N
BRANCH  15  16
HETATM   16  C3  UNL     1     188.334 121.504  31.857  1.00  0.00     0.150 C
BRANCH  16  17
HETATM   17  C2  UNL     1     187.405 121.191  32.949  1.00  0.00    -0.017 C
HETATM   18  C1  UNL     1     186.628 120.120  32.870  1.00  0.00     0.008 C
ENDBRANCH  16  17
ENDBRANCH  15  16
BRANCH  15  19
HETATM   19  C4  UNL     1     190.719 121.943  31.478  1.00  0.00     0.120 C
HETATM   20  C5  UNL     1     190.779 120.461  31.254  1.00  0.00     0.026 C
ENDBRANCH  15  19
ENDBRANCH  13  15
ENDBRANCH  12  13
ENDBRANCH  11  12
ENDBRANCH   7  11
ENDBRANCH   5   7
ENDBRANCH   4   5
ENDBRANCH   3   4
ENDBRANCH   2   3
ENDBRANCH   1   2
BRANCH   1  21
HETATM   21  C12 UNL     1     183.513 126.003  32.601  1.00  0.00     0.000 C
BRANCH  21  22
HETATM   22  C13 UNL     1     184.593 126.837  31.994  1.00  0.00     0.002 C
BRANCH  22  23
HETATM   23  C14 UNL     1     184.029 128.029  31.253  1.00  0.00     0.026 C
BRANCH  23  24
HETATM   24  C15 UNL     1     183.916 127.789  29.772  1.00  0.00     0.170 C
BRANCH  24  25
HETATM   25  O1  UNL     1     183.951 128.918  28.991  1.00  0.00    -0.357 OA
BRANCH  25  26
HETATM   26  C16 UNL     1     184.209 128.611  27.684  1.00  0.00     0.359 C
HETATM   27  N4  UNL     1     183.200 129.104  26.768  1.00  0.00     0.004 N
HETATM   28  C17 UNL     1     183.634 130.210  25.979  1.00  0.00     0.471 C
ATOM     29  H42 UNL     1     182.855 128.351  26.173  1.00  0.00     0.286 HD
ATOM     30  H41 UNL     1     182.341 129.333  27.269  1.00  0.00     0.286 HD
HETATM   31  O3  UNL     1     184.717 129.942  25.146  1.00  0.00    -0.320 OA
HETATM   32  C18 UNL     1     185.575 128.991  25.703  1.00  0.00     0.220 C
HETATM   33  C20 UNL     1     185.533 129.190  27.203  1.00  0.00     0.213 C
BRANCH  28  34
HETATM   34  O2  UNL     1     182.573 130.573  25.141  1.00  0.00    -0.349 OA
ATOM     35  H2  UNL     1     182.906 130.601  24.252  1.00  0.00     0.214 HD
ENDBRANCH  28  34
BRANCH  32  36
HETATM   36  S4  UNL     1     185.003 127.375  25.181  1.00  0.00    -0.139 SA
HETATM   37  C19 UNL     1     185.935 126.662  23.833  1.00  0.00     0.092 C
ENDBRANCH  32  36
BRANCH  33  38
HETATM   38  O4  UNL     1     186.615 128.546  27.800  1.00  0.00    -0.388 OA
ATOM     39  H4  UNL     1     186.851 127.755  27.330  1.00  0.00     0.210 HD
ENDBRANCH  33  38
ENDBRANCH  25  26
ENDBRANCH  24  25
ENDBRANCH  23  24
ENDBRANCH  22  23
ENDBRANCH  21  22
ENDBRANCH   1  21
TORSDOF 21
ENDMDL