MODEL 4
REMARK VINA RESULT: -8.064998682      1.737      2.216
REMARK  17 active torsions:
REMARK  status: ('A' for Active; 'I' for Inactive)
REMARK    1  A    between atoms: O1_1  and  C1_3
REMARK    2  A    between atoms: C1_3  and  C2_4
REMARK    3  A    between atoms: N1_6  and  C4_7
REMARK    4  A    between atoms: C4_7  and  O2_8
REMARK    5  A    between atoms: C4_7  and  C5_10
REMARK    6  A    between atoms: C4_7  and  C6_13
REMARK    7  A    between atoms: C5_10  and  O3_11
REMARK    8  A    between atoms: C6_13  and  C7_14
REMARK    9  A    between atoms: C7_14  and  C8_15
REMARK   10  A    between atoms: C8_15  and  C9_16
REMARK   11  A    between atoms: C9_16  and  C10_17
REMARK   12  A    between atoms: C10_17  and  C11_18
REMARK   13  A    between atoms: C11_18  and  C12_19
REMARK   14  A    between atoms: C12_19  and  N2_20
REMARK   15  A    between atoms: N2_20  and  C13_23
REMARK   16  A    between atoms: C13_23  and  C14_24
REMARK   17  A    between atoms: C14_24  and  C15_25
ROOT
HETATM    1  C12 UNL     1     183.285 122.338  29.126  1.00  0.00     0.232 C
ENDROOT
BRANCH   1   2
HETATM    2  C11 UNL     1     183.486 120.927  29.584  1.00  0.00     0.027 C
BRANCH   2   3
HETATM    3  C10 UNL     1     182.628 120.679  30.832  1.00  0.00     0.002 C
BRANCH   3   4
HETATM    4  C9  UNL     1     183.440 120.960  32.036  1.00  0.00     0.000 C
BRANCH   4   5
HETATM    5  C8  UNL     1     184.884 120.472  31.821  1.00  0.00     0.000 C
BRANCH   5   6
HETATM    6  C7  UNL     1     185.824 121.448  32.380  1.00  0.00     0.005 C
BRANCH   6   7
HETATM    7  C6  UNL     1     187.096 120.948  32.936  1.00  0.00     0.064 C
BRANCH   7   8
HETATM    8  C4  UNL     1     188.257 121.848  32.996  1.00  0.00     0.159 C
BRANCH   8   9
HETATM    9  N1  UNL     1     189.269 121.769  32.001  1.00  0.00    -0.317 N
HETATM   10  C3  UNL     1     190.594 121.987  32.225  1.00  0.00     0.122 A
HETATM   11  C2  UNL     1     191.248 121.874  31.042  1.00  0.00     0.049 A
HETATM   12  N4  UNL     1     190.325 121.588  30.108  1.00  0.00    -0.353 N
HETATM   13  C28 UNL     1     189.122 121.523  30.684  1.00  0.00     0.185 A
ATOM     14  H4  UNL     1     190.514 121.443  29.116  1.00  0.00     0.166 HD
BRANCH  11  15
HETATM   15  C1  UNL     1     192.707 122.038  30.841  1.00  0.00     0.222 C
BRANCH  15  16
HETATM   16  O1  UNL     1     193.267 122.895  31.767  1.00  0.00    -0.395 OA
ATOM     17  H1  UNL     1     193.479 123.741  31.390  1.00  0.00     0.209 HD
ENDBRANCH  15  16
ENDBRANCH  11  15
ENDBRANCH   8   9
BRANCH   8  18
HETATM   18  O2  UNL     1     188.840 121.642  34.297  1.00  0.00    -0.368 OA
ATOM     19  H2  UNL     1     188.740 122.429  34.819  1.00  0.00     0.212 HD
ENDBRANCH   8  18
BRANCH   8  20
HETATM   20  C5  UNL     1     187.682 123.292  33.036  1.00  0.00     0.225 C
BRANCH  20  21
HETATM   21  O3  UNL     1     188.340 124.053  33.988  1.00  0.00    -0.396 OA
ATOM     22  H3  UNL     1     187.720 124.443  34.592  1.00  0.00     0.209 HD
ENDBRANCH  20  21
ENDBRANCH   8  20
ENDBRANCH   7   8
ENDBRANCH   6   7
ENDBRANCH   5   6
ENDBRANCH   4   5
ENDBRANCH   3   4
ENDBRANCH   2   3
ENDBRANCH   1   2
BRANCH   1  23
HETATM   23  N2  UNL     1     184.359 123.204  29.482  1.00  0.00    -0.075 N
ATOM     24  H22 UNL     1     184.760 122.932  30.379  1.00  0.00     0.277 HD
ATOM     25  H21 UNL     1     185.166 123.045  28.879  1.00  0.00     0.277 HD
BRANCH  23  26
HETATM   26  C13 UNL     1     183.999 124.579  29.489  1.00  0.00     0.235 C
BRANCH  26  27
HETATM   27  C14 UNL     1     184.624 125.411  30.569  1.00  0.00     0.060 C
BRANCH  27  28
HETATM   28  C15 UNL     1     183.979 126.746  30.663  1.00  0.00     0.135 C
HETATM   29  C16 UNL     1     184.819 127.737  31.376  1.00  0.00     0.081 C
HETATM   30  C17 UNL     1     185.548 128.372  30.199  1.00  0.00     0.019 A
HETATM   31  S1  UNL     1     186.886 129.299  29.700  1.00  0.00    -0.096 SA
HETATM   32  C20 UNL     1     184.898 128.117  29.035  1.00  0.00     0.092 A
HETATM   33  C18 UNL     1     186.592 129.342  28.020  1.00  0.00    -0.005 A
HETATM   34  C19 UNL     1     185.440 128.624  27.885  1.00  0.00     0.017 A
HETATM   35  C27 UNL     1     187.076 129.830  26.665  1.00  0.00     0.049 C
HETATM   36  C21 UNL     1     185.104 128.633  26.390  1.00  0.00     0.057 C
HETATM   37  C22 UNL     1     184.368 129.869  26.059  1.00  0.00     0.036 C
HETATM   38  N3  UNL     1     184.552 127.402  25.970  1.00  0.00    -0.408 N
HETATM   39  C26 UNL     1     186.491 128.735  25.791  1.00  0.00     0.041 C
HETATM   40  C23 UNL     1     182.954 129.725  25.625  1.00  0.00     0.004 C
HETATM   41  C24 UNL     1     182.746 128.449  24.847  1.00  0.00     0.019 C
HETATM   42  C25 UNL     1     183.144 127.324  25.814  1.00  0.00     0.115 C
ATOM     43  H3  UNL     1     185.148 126.595  25.785  1.00  0.00     0.154 HD
HETATM   44  O4  UNL     1     183.755 127.337  29.387  1.00  0.00    -0.344 OA
ENDBRANCH  27  28
ENDBRANCH  26  27
ENDBRANCH  23  26
ENDBRANCH   1  23
TORSDOF 17
ENDMDL