MODEL 5
REMARK VINA RESULT: -8.507722594      3.760      8.958
REMARK  15 active torsions:
REMARK  status: ('A' for Active; 'I' for Inactive)
REMARK    1  A    between atoms: C2_2  and  C3_3
REMARK    2  A    between atoms: C3_3  and  C4_4
REMARK    3  A    between atoms: C4_4  and  C5_5
REMARK    4  A    between atoms: C5_5  and  C6_6
REMARK    5  A    between atoms: C7_9  and  C8_10
REMARK       I    between atoms: C8_10  and  N2_12
REMARK    6  A    between atoms: N2_12  and  C9_14
REMARK    7  A    between atoms: C9_14  and  C10_15
REMARK    8  A    between atoms: C9_14  and  C13_19
REMARK    9  A    between atoms: C10_15  and  C11_16
REMARK   10  A    between atoms: C16_22  and  S1_23
REMARK   11  A    between atoms: S1_23  and  C17_24
REMARK   12  A    between atoms: C19_28  and  N4_29
REMARK   13  A    between atoms: N7_38  and  C21_39
REMARK   14  A    between atoms: C21_39  and  C22_40
REMARK   15  A    between atoms: C22_40  and  C23_41
ROOT
HETATM    1  C6  UNL     1     188.150 121.725  32.917  1.00  0.00     0.125 A
HETATM    2  N1  UNL     1     188.949 121.925  31.851  1.00  0.00    -0.333 N
ATOM      3  H1  UNL     1     189.100 121.290  31.068  1.00  0.00     0.168 HD
HETATM    4  C7  UNL     1     189.507 123.135  32.035  1.00  0.00     0.144 A
HETATM    5  C16 UNL     1     189.048 123.674  33.207  1.00  0.00     0.154 A
HETATM    6  O3  UNL     1     188.230 122.787  33.709  1.00  0.00    -0.288 OA
ENDROOT
BRANCH   5   7
HETATM    7  S1  UNL     1     189.514 125.271  33.852  1.00  0.00    -0.026 SA
BRANCH   7   8
HETATM    8  C17 UNL     1     188.338 126.535  33.436  1.00  0.00     0.153 A
HETATM    9  N3  UNL     1     188.347 127.846  33.751  1.00  0.00    -0.330 N
HETATM   10  C18 UNL     1     187.264 128.432  33.201  1.00  0.00     0.124 A
ATOM     11  H3  UNL     1     189.056 128.317  34.312  1.00  0.00     0.168 HD
HETATM   12  C19 UNL     1     186.750 129.705  33.168  1.00  0.00     0.145 A
HETATM   13  C25 UNL     1     186.560 127.449  32.523  1.00  0.00     0.156 A
HETATM   14  N5  UNL     1     185.611 129.959  32.499  1.00  0.00    -0.175 N
HETATM   15  C20 UNL     1     184.930 128.973  31.836  1.00  0.00     0.681 A
ATOM     16  H5  UNL     1     185.245 130.911  32.486  1.00  0.00     0.186 HD
HETATM   17  N6  UNL     1     183.841 129.236  31.210  1.00  0.00    -0.234 N
HETATM   18  N7  UNL     1     185.403 127.732  31.850  1.00  0.00    -0.166 N
ATOM     19  H62 UNL     1     183.478 130.189  31.200  1.00  0.00     0.174 HD
ATOM     20  H61 UNL     1     183.333 128.502  30.716  1.00  0.00     0.174 HD
HETATM   21  N8  UNL     1     187.249 126.317  32.694  1.00  0.00    -0.320 N
ATOM     22  H8  UNL     1     186.980 125.411  32.310  1.00  0.00     0.169 HD
BRANCH  12  23
HETATM   23  N4  UNL     1     187.377 130.640  33.785  1.00  0.00    -0.383 N
ATOM     24  H42 UNL     1     187.428 130.654  34.803  1.00  0.00     0.157 HD
ATOM     25  H41 UNL     1     187.826 131.373  33.236  1.00  0.00     0.157 HD
ENDBRANCH  12  23
BRANCH  18  26
HETATM   26  C21 UNL     1     184.731 126.637  31.175  1.00  0.00     0.149 C
BRANCH  26  27
HETATM   27  C22 UNL     1     183.798 125.994  32.201  1.00  0.00     0.020 C
BRANCH  27  28
HETATM   28  C23 UNL     1     184.141 124.572  32.473  1.00  0.00    -0.003 C
HETATM   29  C24 UNL     1     183.787 124.228  33.903  1.00  0.00     0.005 C
ENDBRANCH  27  28
ENDBRANCH  26  27
ENDBRANCH  18  26
ENDBRANCH   7   8
ENDBRANCH   5   7
BRANCH   4  30
HETATM   30  C8  UNL     1     190.501 123.774  31.103  1.00  0.00     0.275 C
HETATM   31  O1  UNL     1     189.987 124.421  30.162  1.00  0.00    -0.266 OA
HETATM   32  N2  UNL     1     191.860 123.644  31.297  1.00  0.00    -0.328 N
ATOM     33  H2  UNL     1     192.055 123.041  32.096  1.00  0.00     0.168 HD
BRANCH  32  34
HETATM   34  C9  UNL     1     193.053 124.101  30.714  1.00  0.00     0.000 C
BRANCH  34  35
HETATM   35  C10 UNL     1     193.850 125.034  31.606  1.00  0.00     0.130 C
BRANCH  35  36
HETATM   36  C11 UNL     1     194.366 124.331  32.818  1.00  0.00     0.128 C
HETATM   37  C12 UNL     1     195.839 124.242  33.089  1.00  0.00     0.091 C
HETATM   38  O2  UNL     1     193.612 123.815  33.610  1.00  0.00    -0.298 OA
ENDBRANCH  35  36
ENDBRANCH  34  35
BRANCH  34  39
HETATM   39  C13 UNL     1     193.923 123.235  29.875  1.00  0.00     0.023 C
HETATM   40  C14 UNL     1     194.051 121.791  30.250  1.00  0.00     0.016 C
HETATM   41  C15 UNL     1     193.561 123.303  28.400  1.00  0.00     0.016 C
ENDBRANCH  34  39
ENDBRANCH  32  34
ENDBRANCH   4  30
BRANCH   1  42
HETATM   42  C5  UNL     1     187.285 120.547  33.249  1.00  0.00     0.084 C
BRANCH  42  43
HETATM   43  C4  UNL     1     186.386 120.230  32.062  1.00  0.00     0.008 C
BRANCH  43  44
HETATM   44  C3  UNL     1     185.191 121.130  32.066  1.00  0.00     0.000 C
BRANCH  44  45
HETATM   45  C2  UNL     1     184.054 120.654  31.228  1.00  0.00    -0.005 C
HETATM   46  C1  UNL     1     182.791 120.446  32.011  1.00  0.00     0.005 C
ENDBRANCH  44  45
ENDBRANCH  43  44
ENDBRANCH  42  43
ENDBRANCH   1  42
TORSDOF 15
ENDMDL