MODEL 5
REMARK VINA RESULT: -7.108686721      2.467      3.536
REMARK  16 active torsions:
REMARK  status: ('A' for Active; 'I' for Inactive)
REMARK    1  A    between atoms: C2_2  and  N1_3
REMARK       I    between atoms: N1_3  and  C3_5
REMARK       I    between atoms: C3_5  and  N4_10
REMARK    2  A    between atoms: N4_10  and  C5_12
REMARK    3  A    between atoms: C5_12  and  C6_13
REMARK    4  A    between atoms: C6_13  and  C7_14
REMARK    5  A    between atoms: C7_14  and  C8_15
REMARK    6  A    between atoms: C8_15  and  C9_16
REMARK    7  A    between atoms: C9_16  and  C10_17
REMARK    8  A    between atoms: C10_17  and  C11_18
REMARK    9  A    between atoms: C11_18  and  C12_19
REMARK   10  A    between atoms: C12_19  and  C13_20
REMARK   11  A    between atoms: C13_20  and  C14_21
REMARK   12  A    between atoms: C14_21  and  N5_22
REMARK   13  A    between atoms: C16_24  and  C17_25
REMARK   14  A    between atoms: C20_28  and  C21_29
REMARK   15  A    between atoms: C21_29  and  C22_30
REMARK   16  A    between atoms: C24_36  and  O2_37
ROOT
HETATM    1  N1  UNL     1     186.427 120.589  32.520  1.00  0.00    -0.226 N
ATOM      2  H1  UNL     1     186.556 119.838  33.197  1.00  0.00     0.177 HD
HETATM    3  C3  UNL     1     187.332 121.688  32.510  1.00  0.00     0.682 C
HETATM    4  N2  UNL     1     187.844 122.019  33.673  1.00  0.00    -0.126 N
ATOM      5  H2  UNL     1     187.581 121.493  34.506  1.00  0.00     0.197 HD
HETATM    6  C4  UNL     1     188.752 123.092  33.787  1.00  0.00     0.196 C
HETATM    7  N3  UNL     1     189.493 123.985  33.900  1.00  0.00    -0.171 NA
HETATM    8  N4  UNL     1     187.691 122.410  31.359  1.00  0.00    -0.226 N
ATOM      9  H4  UNL     1     187.051 123.114  30.991  1.00  0.00     0.177 HD
ENDROOT
BRANCH   1  10
HETATM   10  C2  UNL     1     185.329 120.524  31.583  1.00  0.00     0.133 C
HETATM   11  C1  UNL     1     184.253 121.502  32.007  1.00  0.00     0.027 C
ENDBRANCH   1  10
BRANCH   8  12
HETATM   12  C5  UNL     1     188.971 122.171  30.675  1.00  0.00     0.138 C
BRANCH  12  13
HETATM   13  C6  UNL     1     189.338 120.726  30.786  1.00  0.00     0.020 C
BRANCH  13  14
HETATM   14  C7  UNL     1     190.703 120.571  31.364  1.00  0.00     0.002 C
BRANCH  14  15
HETATM   15  C8  UNL     1     191.432 121.886  31.332  1.00  0.00     0.000 C
BRANCH  15  16
HETATM   16  C9  UNL     1     192.760 121.611  30.589  1.00  0.00     0.000 C
BRANCH  16  17
HETATM   17  C10 UNL     1     193.631 122.832  30.707  1.00  0.00     0.000 C
BRANCH  17  18
HETATM   18  C11 UNL     1     193.880 123.472  29.354  1.00  0.00     0.000 C
BRANCH  18  19
HETATM   19  C12 UNL     1     192.815 124.484  29.062  1.00  0.00     0.002 C
BRANCH  19  20
HETATM   20  C13 UNL     1     193.255 125.844  29.480  1.00  0.00     0.022 C
BRANCH  20  21
HETATM   21  C14 UNL     1     192.663 126.261  30.773  1.00  0.00     0.150 C
BRANCH  21  22
HETATM   22  N5  UNL     1     191.207 126.306  30.733  1.00  0.00    -0.287 N
HETATM   23  C15 UNL     1     190.394 127.160  30.104  1.00  0.00     0.144 A
HETATM   24  C16 UNL     1     189.083 126.832  30.363  1.00  0.00     0.083 A
HETATM   25  N7  UNL     1     189.136 125.763  31.160  1.00  0.00    -0.284 N
HETATM   26  N8  UNL     1     190.396 125.443  31.385  1.00  0.00    -0.240 N
ATOM     27  H7  UNL     1     188.327 125.269  31.537  1.00  0.00     0.188 HD
ATOM     28  H8  UNL     1     190.711 124.663  31.962  1.00  0.00     0.208 HD
BRANCH  24  29
HETATM   29  C17 UNL     1     187.887 127.523  29.854  1.00  0.00     0.035 A
HETATM   30  C18 UNL     1     186.588 127.191  30.145  1.00  0.00     0.022 A
HETATM   31  C19 UNL     1     185.627 127.941  29.595  1.00  0.00     0.016 A
HETATM   32  C20 UNL     1     186.012 128.977  28.791  1.00  0.00    -0.012 A
HETATM   33  S2  UNL     1     187.721 128.867  28.829  1.00  0.00    -0.092 SA
BRANCH  32  34
HETATM   34  C21 UNL     1     185.191 129.984  28.038  1.00  0.00     0.097 C
BRANCH  34  35
HETATM   35  C22 UNL     1     184.763 129.294  26.769  1.00  0.00     0.043 A
HETATM   36  S1  UNL     1     185.647 129.033  25.329  1.00  0.00    -0.029 SA
HETATM   37  C23 UNL     1     184.447 128.201  24.451  1.00  0.00     0.290 A
HETATM   38  O1  UNL     1     184.480 127.715  23.262  1.00  0.00    -0.260 OA
HETATM   39  N6  UNL     1     183.423 128.160  25.300  1.00  0.00    -0.297 N
HETATM   40  C24 UNL     1     183.562 128.706  26.476  1.00  0.00     0.157 A
ATOM     41  H6  UNL     1     182.546 127.710  25.037  1.00  0.00     0.171 HD
BRANCH  40  42
HETATM   42  O2  UNL     1     182.512 128.708  27.447  1.00  0.00    -0.345 OA
ATOM     43  H2  UNL     1     181.615 128.855  27.174  1.00  0.00     0.219 HD
ENDBRANCH  40  42
ENDBRANCH  34  35
ENDBRANCH  32  34
ENDBRANCH  24  29
ENDBRANCH  21  22
ENDBRANCH  20  21
ENDBRANCH  19  20
ENDBRANCH  18  19
ENDBRANCH  17  18
ENDBRANCH  16  17
ENDBRANCH  15  16
ENDBRANCH  14  15
ENDBRANCH  13  14
ENDBRANCH  12  13
ENDBRANCH   8  12
TORSDOF 16
ENDMDL