MODEL 4
REMARK VINA RESULT: -7.897210659      2.135      4.003
REMARK  14 active torsions:
REMARK  status: ('A' for Active; 'I' for Inactive)
REMARK    1  A    between atoms: O1_2  and  C2_3
REMARK    2  A    between atoms: C3_7  and  C4_8
REMARK       I    between atoms: C4_8  and  N2_10
REMARK    3  A    between atoms: N2_10  and  C5_12
REMARK    4  A    between atoms: C8_18  and  S1_19
REMARK    5  A    between atoms: C9_23  and  C10_24
REMARK    6  A    between atoms: C15_29  and  N4_30
REMARK    7  A    between atoms: N4_30  and  C16_32
REMARK    8  A    between atoms: C16_32  and  C17_33
REMARK    9  A    between atoms: C16_32  and  C21_41
REMARK   10  A    between atoms: C17_33  and  C18_34
REMARK   11  A    between atoms: C18_34  and  C19_35
REMARK   12  A    between atoms: C19_35  and  C20_36
REMARK   13  A    between atoms: C20_36  and  N5_37
REMARK   14  A    between atoms: C21_41  and  C22_42
ROOT
HETATM    1  C2  UNL     1     188.682 124.656  32.874  1.00  0.00     0.192 A
HETATM    2  N1  UNL     1     187.450 125.208  33.138  1.00  0.00    -0.236 N
ATOM      3  H1  UNL     1     187.081 125.404  34.068  1.00  0.00     0.197 HD
HETATM    4  O2  UNL     1     186.836 125.438  32.037  1.00  0.00    -0.228 OA
HETATM    5  C3  UNL     1     187.575 125.076  30.985  1.00  0.00     0.197 A
HETATM    6  C15 UNL     1     188.736 124.581  31.505  1.00  0.00     0.123 A
ENDROOT
BRANCH   5   7
HETATM    7  C4  UNL     1     187.076 125.257  29.621  1.00  0.00     0.284 C
HETATM    8  O3  UNL     1     187.260 124.315  28.819  1.00  0.00    -0.265 OA
HETATM    9  N2  UNL     1     186.390 126.482  29.259  1.00  0.00    -0.319 N
ATOM     10  H2  UNL     1     186.277 127.208  29.967  1.00  0.00     0.169 HD
BRANCH   9  11
HETATM   11  C5  UNL     1     185.874 126.709  27.971  1.00  0.00     0.059 A
HETATM   12  C6  UNL     1     186.521 126.343  26.835  1.00  0.00     0.121 A
HETATM   13  N3  UNL     1     186.061 126.549  25.604  1.00  0.00    -0.330 N
HETATM   14  C7  UNL     1     184.881 127.160  25.497  1.00  0.00     0.270 A
ATOM     15  H3  UNL     1     186.586 126.252  24.781  1.00  0.00     0.168 HD
HETATM   16  O4  UNL     1     184.440 127.359  24.328  1.00  0.00    -0.266 OA
HETATM   17  C8  UNL     1     184.097 127.598  26.595  1.00  0.00     0.157 A
HETATM   18  C9  UNL     1     184.585 127.379  27.849  1.00  0.00     0.004 A
BRANCH  17  19
HETATM   19  S1  UNL     1     182.651 128.426  26.236  1.00  0.00     0.143 S
HETATM   20  O5  UNL     1     181.550 128.419  27.243  1.00  0.00    -0.591 OA
HETATM   21  O6  UNL     1     181.946 127.571  25.107  1.00  0.00    -0.591 OA
HETATM   22  O7  UNL     1     182.827 129.875  25.387  1.00  0.00    -0.591 OA
ENDBRANCH  17  19
BRANCH  18  23
HETATM   23  C10 UNL     1     184.050 127.791  29.083  1.00  0.00     0.023 C
HETATM   24  C11 UNL     1     184.727 128.947  29.871  1.00  0.00     0.009 C
HETATM   25  C12 UNL     1     183.613 129.063  30.962  1.00  0.00     0.001 C
HETATM   26  C13 UNL     1     183.435 127.662  31.400  1.00  0.00     0.001 C
HETATM   27  C14 UNL     1     184.099 126.811  30.275  1.00  0.00     0.009 C
ENDBRANCH  18  23
ENDBRANCH   9  11
ENDBRANCH   5   7
BRANCH   6  28
HETATM   28  N4  UNL     1     189.738 123.989  30.701  1.00  0.00    -0.379 N
ATOM     29  H4  UNL     1     189.581 124.067  29.697  1.00  0.00     0.160 HD
BRANCH  28  30
HETATM   30  C16 UNL     1     190.923 123.306  31.063  1.00  0.00     0.082 C
BRANCH  30  31
HETATM   31  C17 UNL     1     190.642 121.833  31.131  1.00  0.00     0.025 C
BRANCH  31  32
HETATM   32  C18 UNL     1     189.481 121.364  30.313  1.00  0.00     0.004 C
BRANCH  32  33
HETATM   33  C19 UNL     1     188.733 120.322  31.138  1.00  0.00     0.027 C
BRANCH  33  34
HETATM   34  C20 UNL     1     187.672 120.953  32.018  1.00  0.00     0.229 C
BRANCH  34  35
HETATM   35  N5  UNL     1     186.877 119.944  32.714  1.00  0.00    -0.079 N
ATOM     36  H53 UNL     1     186.326 119.389  32.060  1.00  0.00     0.274 HD
ATOM     37  H52 UNL     1     187.467 119.204  33.095  1.00  0.00     0.274 HD
ATOM     38  H51 UNL     1     186.289 120.360  33.437  1.00  0.00     0.274 HD
ENDBRANCH  34  35
ENDBRANCH  33  34
ENDBRANCH  32  33
ENDBRANCH  31  32
ENDBRANCH  30  31
BRANCH  30  39
HETATM   39  C21 UNL     1     192.182 123.700  30.405  1.00  0.00     0.029 C
BRANCH  39  40
HETATM   40  C22 UNL     1     192.905 122.717  29.573  1.00  0.00    -0.021 C
HETATM   41  C23 UNL     1     193.449 123.221  28.269  1.00  0.00     0.009 C
HETATM   42  C24 UNL     1     194.055 121.997  30.257  1.00  0.00     0.009 C
ENDBRANCH  39  40
ENDBRANCH  30  39
ENDBRANCH  28  30
ENDBRANCH   6  28
BRANCH   1  43
HETATM   43  O1  UNL     1     189.579 124.297  33.863  1.00  0.00    -0.338 OA
HETATM   44  C1  UNL     1     190.490 125.241  34.386  1.00  0.00     0.211 C
ENDBRANCH   1  43
TORSDOF 14
ENDMDL