MODEL 5
REMARK VINA RESULT: -7.967545280      1.418      2.104
REMARK  18 active torsions:
REMARK  status: ('A' for Active; 'I' for Inactive)
REMARK    1  A    between atoms: S1_2  and  C2_3
REMARK       I    between atoms: C2_3  and  N1_5
REMARK    2  A    between atoms: N1_5  and  C3_7
REMARK    3  A    between atoms: C3_7  and  C4_8
REMARK    4  A    between atoms: C4_8  and  C5_9
REMARK    5  A    between atoms: C5_9  and  C6_10
REMARK    6  A    between atoms: C6_10  and  C7_11
REMARK    7  A    between atoms: C7_11  and  C8_12
REMARK    8  A    between atoms: C8_12  and  C9_13
REMARK    9  A    between atoms: C10_14  and  C11_15
REMARK   10  A    between atoms: C11_15  and  C12_16
REMARK   11  A    between atoms: C12_16  and  C13_17
REMARK   12  A    between atoms: C13_17  and  C14_18
REMARK   13  A    between atoms: C14_18  and  S2_19
REMARK   14  A    between atoms: S2_19  and  C15_20
REMARK   15  A    between atoms: C15_20  and  C16_21
REMARK   16  A    between atoms: C17_23  and  N2_24
REMARK   17  A    between atoms: C21_33  and  N5_34
REMARK   18  A    between atoms: C24_41  and  O4_42
ROOT
HETATM    1  C16 UNL     1     186.627 129.520  30.083  1.00  0.00     0.162 C
HETATM    2  O2  UNL     1     185.880 128.977  29.043  1.00  0.00    -0.358 OA
HETATM    3  C17 UNL     1     186.809 128.424  28.197  1.00  0.00     0.233 C
HETATM    4  C23 UNL     1     188.096 129.196  28.303  1.00  0.00     0.088 C
HETATM    5  C24 UNL     1     187.680 130.300  29.285  1.00  0.00     0.152 C
ENDROOT
BRANCH   1   6
HETATM    6  C15 UNL     1     185.790 130.480  30.919  1.00  0.00     0.108 C
BRANCH   6   7
HETATM    7  S2  UNL     1     185.538 129.870  32.581  1.00  0.00    -0.166 SA
BRANCH   7   8
HETATM    8  C14 UNL     1     186.658 128.557  32.995  1.00  0.00     0.077 C
BRANCH   8   9
HETATM    9  C13 UNL     1     185.981 127.233  33.181  1.00  0.00     0.037 C
BRANCH   9  10
HETATM   10  C12 UNL     1     184.982 126.843  32.203  1.00  0.00    -0.026 C
BRANCH  10  11
HETATM   11  C11 UNL     1     183.917 126.075  32.370  1.00  0.00    -0.004 C
BRANCH  11  12
HETATM   12  C10 UNL     1     183.787 125.235  33.532  1.00  0.00    -0.004 C
HETATM   13  C9  UNL     1     183.905 123.939  33.492  1.00  0.00    -0.027 C
BRANCH  13  14
HETATM   14  C8  UNL     1     184.182 123.142  32.292  1.00  0.00     0.027 C
BRANCH  14  15
HETATM   15  C7  UNL     1     185.459 122.326  32.438  1.00  0.00     0.004 C
BRANCH  15  16
HETATM   16  C6  UNL     1     186.700 123.145  32.338  1.00  0.00     0.000 C
BRANCH  16  17
HETATM   17  C5  UNL     1     187.559 123.122  33.571  1.00  0.00     0.002 C
BRANCH  17  18
HETATM   18  C4  UNL     1     188.395 121.867  33.670  1.00  0.00     0.020 C
BRANCH  18  19
HETATM   19  C3  UNL     1     188.969 121.586  32.304  1.00  0.00     0.123 C
BRANCH  19  20
HETATM   20  N1  UNL     1     190.372 121.853  32.185  1.00  0.00    -0.352 N
HETATM   21  C2  UNL     1     191.013 121.995  30.936  1.00  0.00     0.279 C
HETATM   22  O1  UNL     1     190.369 121.893  29.882  1.00  0.00    -0.260 OA
ATOM     23  H1  UNL     1     190.928 121.943  33.035  1.00  0.00     0.163 HD
BRANCH  21  24
HETATM   24  S1  UNL     1     192.774 122.325  30.834  1.00  0.00    -0.074 SA
HETATM   25  C1  UNL     1     193.225 122.808  29.155  1.00  0.00     0.100 C
ENDBRANCH  21  24
ENDBRANCH  19  20
ENDBRANCH  18  19
ENDBRANCH  17  18
ENDBRANCH  16  17
ENDBRANCH  15  16
ENDBRANCH  14  15
ENDBRANCH  13  14
ENDBRANCH  11  12
ENDBRANCH  10  11
ENDBRANCH   9  10
ENDBRANCH   8   9
ENDBRANCH   7   8
ENDBRANCH   6   7
ENDBRANCH   1   6
BRANCH   5  26
HETATM   26  O4  UNL     1     188.719 130.708  30.083  1.00  0.00    -0.393 OA
ATOM     27  H4  UNL     1     188.561 131.571  30.449  1.00  0.00     0.210 HD
ENDBRANCH   5  26
BRANCH   3  28
HETATM   28  N2  UNL     1     186.385 128.452  26.809  1.00  0.00    -0.299 N
HETATM   29  C18 UNL     1     187.172 128.456  25.704  1.00  0.00     0.188 A
HETATM   30  N3  UNL     1     186.351 128.484  24.638  1.00  0.00    -0.345 N
HETATM   31  C19 UNL     1     185.061 128.498  25.049  1.00  0.00     0.147 A
ATOM     32  H3  UNL     1     186.655 128.493  23.664  1.00  0.00     0.167 HD
HETATM   33  C20 UNL     1     183.846 128.526  24.385  1.00  0.00     0.290 A
HETATM   34  C22 UNL     1     185.100 128.478  26.430  1.00  0.00     0.159 A
HETATM   35  O3  UNL     1     183.837 128.543  23.127  1.00  0.00    -0.265 OA
HETATM   36  N4  UNL     1     182.709 128.534  25.116  1.00  0.00    -0.154 N
HETATM   37  C21 UNL     1     182.791 128.514  26.458  1.00  0.00     0.680 A
ATOM     38  H4  UNL     1     181.799 128.556  24.656  1.00  0.00     0.187 HD
HETATM   39  N6  UNL     1     183.941 128.486  27.142  1.00  0.00    -0.174 N
ATOM     40  H6  UNL     1     183.948 128.471  28.162  1.00  0.00     0.186 HD
BRANCH  37  41
HETATM   41  N5  UNL     1     181.691 128.521  27.134  1.00  0.00    -0.234 N
ATOM     42  H52 UNL     1     181.574 127.811  27.857  1.00  0.00     0.174 HD
ATOM     43  H51 UNL     1     180.996 129.234  26.913  1.00  0.00     0.174 HD
ENDBRANCH  37  41
ENDBRANCH   3  28
TORSDOF 18
ENDMDL