MODEL 3
REMARK VINA RESULT: -7.436117457      3.971      7.776
REMARK  18 active torsions:
REMARK  status: ('A' for Active; 'I' for Inactive)
REMARK    1  A    between atoms: C8_8  and  O1_9
REMARK    2  A    between atoms: C9_11  and  N1_12
REMARK    3  A    between atoms: N1_12  and  C10_13
REMARK    4  A    between atoms: C10_13  and  C11_14
REMARK    5  A    between atoms: C11_14  and  C12_15
REMARK    6  A    between atoms: C12_15  and  N2_16
REMARK    7  A    between atoms: N2_16  and  C13_18
REMARK    8  A    between atoms: C13_18  and  C14_19
REMARK    9  A    between atoms: C14_19  and  N3_20
REMARK   10  A    between atoms: N3_20  and  C15_22
REMARK   11  A    between atoms: C15_22  and  C16_23
REMARK   12  A    between atoms: C16_23  and  C17_24
REMARK   13  A    between atoms: C17_24  and  N4_25
REMARK   14  A    between atoms: N4_25  and  C18_27
REMARK   15  A    between atoms: C18_27  and  C19_28
REMARK   16  A    between atoms: C19_28  and  C20_29
REMARK   17  A    between atoms: C23_32  and  O2_33
REMARK   18  A    between atoms: C29_41  and  O4_42
ROOT
HETATM    1  C13 UNL     1     189.845 125.605  34.056  1.00  0.00     0.133 C
ENDROOT
BRANCH   1   2
HETATM    2  N2  UNL     1     189.089 124.470  33.535  1.00  0.00    -0.419 N
ATOM      3  H2  UNL     1     188.499 124.539  32.705  1.00  0.00     0.153 HD
BRANCH   2   4
HETATM    4  C12 UNL     1     189.238 123.257  34.272  1.00  0.00     0.120 C
BRANCH   4   5
HETATM    5  C11 UNL     1     189.456 122.063  33.324  1.00  0.00     0.078 C
BRANCH   5   6
HETATM    6  C10 UNL     1     190.931 121.980  33.039  1.00  0.00     0.157 C
BRANCH   6   7
HETATM    7  N1  UNL     1     191.588 122.598  32.305  1.00  0.00    -0.416 NA
BRANCH   7   8
HETATM    8  C9  UNL     1     192.411 123.238  31.479  1.00  0.00     0.172 A
HETATM    9  C8  UNL     1     192.085 122.967  30.012  1.00  0.00     0.112 A
HETATM   10  C7  UNL     1     192.939 123.555  29.170  1.00  0.00     0.077 A
HETATM   11  C6  UNL     1     194.008 124.325  29.422  1.00  0.00     0.082 A
HETATM   12  C5  UNL     1     194.326 124.591  30.799  1.00  0.00     0.015 A
HETATM   13  O5  UNL     1     194.954 124.972  28.669  1.00  0.00    -0.340 OA
HETATM   14  C4  UNL     1     195.508 125.436  30.835  1.00  0.00     0.082 C
HETATM   15  C29 UNL     1     193.478 124.009  31.686  1.00  0.00     0.118 A
HETATM   16  C2  UNL     1     195.481 126.043  29.421  1.00  0.00     0.065 C
HETATM   17  C1  UNL     1     196.830 126.475  28.958  1.00  0.00     0.046 C
HETATM   18  C3  UNL     1     194.466 127.188  29.390  1.00  0.00     0.046 C
BRANCH   9  19
HETATM   19  O1  UNL     1     191.000 122.203  29.833  1.00  0.00    -0.357 OA
ATOM     20  H1  UNL     1     190.336 122.164  29.155  1.00  0.00     0.217 HD
ENDBRANCH   9  19
BRANCH  15  21
HETATM   21  O4  UNL     1     193.798 124.295  33.080  1.00  0.00    -0.357 OA
ATOM     22  H4  UNL     1     194.069 125.193  33.233  1.00  0.00     0.218 HD
ENDBRANCH  15  21
ENDBRANCH   7   8
ENDBRANCH   6   7
ENDBRANCH   5   6
ENDBRANCH   4   5
ENDBRANCH   2   4
ENDBRANCH   1   2
BRANCH   1  23
HETATM   23  C14 UNL     1     190.867 125.041  35.077  1.00  0.00     0.138 C
BRANCH  23  24
HETATM   24  N3  UNL     1     191.278 125.969  35.991  1.00  0.00    -0.400 N
ATOM     25  H3  UNL     1     191.758 125.576  36.800  1.00  0.00     0.158 HD
BRANCH  24  26
HETATM   26  C15 UNL     1     191.160 127.333  36.015  1.00  0.00     0.060 C
BRANCH  26  27
HETATM   27  C16 UNL     1     192.415 128.145  36.042  1.00  0.00     0.088 C
BRANCH  27  28
HETATM   28  C17 UNL     1     192.769 128.633  37.406  1.00  0.00     0.060 C
BRANCH  28  29
HETATM   29  N4  UNL     1     194.080 128.249  37.748  1.00  0.00    -0.402 N
ATOM     30  H4  UNL     1     194.464 128.479  38.665  1.00  0.00     0.158 HD
BRANCH  29  31
HETATM   31  C18 UNL     1     194.854 127.541  36.803  1.00  0.00     0.119 C
BRANCH  31  32
HETATM   32  C19 UNL     1     196.355 127.652  37.181  1.00  0.00     0.025 C
BRANCH  32  33
HETATM   33  C20 UNL     1     197.070 126.539  36.508  1.00  0.00    -0.004 C
HETATM   34  C21 UNL     1     196.105 125.614  35.707  1.00  0.00     0.015 C
HETATM   35  C22 UNL     1     197.215 124.691  35.164  1.00  0.00     0.048 C
HETATM   36  C23 UNL     1     196.769 123.427  34.664  1.00  0.00     0.261 C
HETATM   37  C25 UNL     1     197.940 124.316  36.462  1.00  0.00     0.026 C
HETATM   38  O3  UNL     1     196.717 122.482  35.652  1.00  0.00    -0.361 OA
HETATM   39  C24 UNL     1     197.366 122.989  36.803  1.00  0.00     0.176 C
HETATM   40  C26 UNL     1     197.608 125.446  37.421  1.00  0.00    -0.038 C
HETATM   41  C27 UNL     1     198.919 125.858  38.072  1.00  0.00     0.015 C
HETATM   42  C28 UNL     1     196.664 125.037  38.516  1.00  0.00     0.015 C
BRANCH  36  43
HETATM   43  O2  UNL     1     196.465 123.236  33.393  1.00  0.00    -0.371 OA
ATOM     44  H2  UNL     1     196.504 123.933  32.749  1.00  0.00     0.212 HD
ENDBRANCH  36  43
ENDBRANCH  32  33
ENDBRANCH  31  32
ENDBRANCH  29  31
ENDBRANCH  28  29
ENDBRANCH  27  28
ENDBRANCH  26  27
ENDBRANCH  24  26
ENDBRANCH  23  24
ENDBRANCH   1  23
TORSDOF 18
ENDMDL