MODEL 3
REMARK VINA RESULT: -5.858815709      2.412      3.721
REMARK  9 active torsions:
REMARK  status: ('A' for Active; 'I' for Inactive)
REMARK    1  A    between atoms: C2_2  and  C3_3
REMARK    2  A    between atoms: C3_3  and  C4_4
REMARK    3  A    between atoms: C4_4  and  N1_5
REMARK    4  A    between atoms: N1_5  and  C5_7
REMARK    5  A    between atoms: C5_7  and  N2_9
REMARK    6  A    between atoms: N2_9  and  N3_11
REMARK    7  A    between atoms: N3_11  and  C6_13
REMARK    8  A    between atoms: C6_13  and  N4_15
REMARK    9  A    between atoms: N4_15  and  C7_17
ROOT
HETATM    1  C6  UNL     1      45.554   0.707  34.261  1.00  0.00     0.190 C
HETATM    2  S2  UNL     1      44.392   1.563  34.951  1.00  0.00    -0.039 SA
ENDROOT
BRANCH   1   3
HETATM    3  N3  UNL     1      45.296   0.186  32.948  1.00  0.00    -0.274 N
ATOM      4  H3  UNL     1      46.073   0.045  32.302  1.00  0.00     0.189 HD
BRANCH   3   5
HETATM    5  N2  UNL     1      44.006  -0.128  32.544  1.00  0.00    -0.274 N
ATOM      6  H2  UNL     1      43.245   0.453  32.896  1.00  0.00     0.189 HD
BRANCH   5   7
HETATM    7  C5  UNL     1      43.677  -1.176  31.697  1.00  0.00     0.186 C
HETATM    8  S1  UNL     1      42.975  -2.550  32.367  1.00  0.00    -0.040 SA
BRANCH   7   9
HETATM    9  N1  UNL     1      43.864  -1.222  30.317  1.00  0.00    -0.366 N
ATOM     10  H1  UNL     1      44.794  -0.998  29.963  1.00  0.00     0.161 HD
BRANCH   9  11
HETATM   11  C4  UNL     1      42.863  -1.558  29.359  1.00  0.00     0.122 C
BRANCH  11  12
HETATM   12  C3  UNL     1      43.522  -2.339  28.203  1.00  0.00     0.019 C
BRANCH  12  13
HETATM   13  C2  UNL     1      44.317  -1.344  27.401  1.00  0.00    -0.003 C
HETATM   14  C1  UNL     1      44.614  -1.950  26.049  1.00  0.00     0.005 C
ENDBRANCH  12  13
ENDBRANCH  11  12
ENDBRANCH   9  11
ENDBRANCH   7   9
ENDBRANCH   5   7
ENDBRANCH   3   5
ENDBRANCH   1   3
BRANCH   1  15
HETATM   15  N4  UNL     1      46.775   0.441  34.865  1.00  0.00    -0.339 N
ATOM     16  H4  UNL     1      47.527   1.034  34.516  1.00  0.00     0.168 HD
BRANCH  15  17
HETATM   17  C7  UNL     1      47.209  -0.470  35.857  1.00  0.00    -0.003 C
HETATM   18  C8  UNL     1      48.616  -0.923  35.887  1.00  0.00     0.032 C
HETATM   19  C9  UNL     1      49.531  -0.344  36.907  1.00  0.00     0.015 C
HETATM   20  C13 UNL     1      48.506  -2.430  36.325  1.00  0.00     0.015 C
HETATM   21  C10 UNL     1      48.937  -0.356  38.317  1.00  0.00    -0.013 C
HETATM   22  C11 UNL     1      48.790  -1.804  38.742  1.00  0.00     0.009 C
HETATM   23  C16 UNL     1      47.605   0.341  38.233  1.00  0.00     0.015 C
HETATM   24  C12 UNL     1      47.895  -2.458  37.703  1.00  0.00    -0.013 C
HETATM   25  C14 UNL     1      46.562  -1.770  37.773  1.00  0.00     0.015 C
HETATM   26  C15 UNL     1      46.686  -0.313  37.244  1.00  0.00     0.032 C
ENDBRANCH  15  17
ENDBRANCH   1  15
TORSDOF 9
ENDMDL