MODEL 3
REMARK VINA RESULT: -5.935841204      0.892      1.999
REMARK  9 active torsions:
REMARK  status: ('A' for Active; 'I' for Inactive)
REMARK    1  A    between atoms: N1_2  and  C2_4
REMARK    2  A    between atoms: C2_4  and  N2_6
REMARK    3  A    between atoms: N2_6  and  N3_8
REMARK    4  A    between atoms: N3_8  and  C3_10
REMARK    5  A    between atoms: C3_10  and  N4_12
REMARK    6  A    between atoms: N4_12  and  C4_14
REMARK    7  A    between atoms: C4_14  and  C5_15
REMARK    8  A    between atoms: C5_15  and  C6_16
REMARK    9  A    between atoms: C6_16  and  C8_18
ROOT
HETATM    1  N4  UNL     1      43.796  -1.174  31.004  1.00  0.00    -0.366 N
ATOM      2  H4  UNL     1      44.802  -1.083  30.867  1.00  0.00     0.161 HD
ENDROOT
BRANCH   1   3
HETATM    3  C3  UNL     1      43.039  -1.162  29.837  1.00  0.00     0.186 C
HETATM    4  S2  UNL     1      41.450  -1.673  29.981  1.00  0.00    -0.040 SA
BRANCH   3   5
HETATM    5  N3  UNL     1      43.443  -0.779  28.574  1.00  0.00    -0.274 N
ATOM      6  H3  UNL     1      42.953  -0.003  28.130  1.00  0.00     0.189 HD
BRANCH   5   7
HETATM    7  N2  UNL     1      44.476  -1.386  27.872  1.00  0.00    -0.274 N
ATOM      8  H2  UNL     1      45.436  -1.103  28.064  1.00  0.00     0.189 HD
BRANCH   7   9
HETATM    9  C2  UNL     1      44.236  -2.389  26.892  1.00  0.00     0.186 C
HETATM   10  S1  UNL     1      43.470  -3.781  27.288  1.00  0.00    -0.040 SA
BRANCH   9  11
HETATM   11  N1  UNL     1      44.668  -2.178  25.566  1.00  0.00    -0.370 N
HETATM   12  C1  UNL     1      44.224  -3.083  24.499  1.00  0.00     0.148 C
ATOM     13  H1  UNL     1      45.288  -1.397  25.349  1.00  0.00     0.161 HD
ENDBRANCH   9  11
ENDBRANCH   7   9
ENDBRANCH   5   7
ENDBRANCH   3   5
ENDBRANCH   1   3
BRANCH   1  14
HETATM   14  C4  UNL     1      43.378  -1.296  32.366  1.00  0.00     0.122 C
BRANCH  14  15
HETATM   15  C5  UNL     1      43.962  -0.334  33.318  1.00  0.00     0.024 C
BRANCH  15  16
HETATM   16  C6  UNL     1      43.769  -0.516  34.780  1.00  0.00    -0.012 C
HETATM   17  C7  UNL     1      42.530  -1.195  35.183  1.00  0.00     0.010 C
BRANCH  16  18
HETATM   18  C8  UNL     1      43.988   0.840  35.393  1.00  0.00    -0.002 C
HETATM   19  C9  UNL     1      42.736   1.433  36.015  1.00  0.00     0.010 C
HETATM   20  C10 UNL     1      43.340   2.202  37.173  1.00  0.00    -0.010 C
HETATM   21  C11 UNL     1      44.263   3.221  36.590  1.00  0.00     0.006 C
HETATM   22  C15 UNL     1      44.344   1.147  37.671  1.00  0.00    -0.006 C
HETATM   23  C12 UNL     1      45.548   2.489  36.235  1.00  0.00     0.010 C
HETATM   24  C13 UNL     1      45.093   1.014  36.334  1.00  0.00    -0.036 C
HETATM   25  C14 UNL     1      46.220   0.083  36.349  1.00  0.00     0.016 C
HETATM   26  C16 UNL     1      45.222   1.685  38.753  1.00  0.00     0.011 C
ENDBRANCH  16  18
ENDBRANCH  15  16
ENDBRANCH  14  15
ENDBRANCH   1  14
TORSDOF 9
ENDMDL