MODEL 3
REMARK VINA RESULT: -6.363935873      5.301      7.089
REMARK  7 active torsions:
REMARK  status: ('A' for Active; 'I' for Inactive)
REMARK    1  A    between atoms: C2_2  and  N1_4
REMARK       I    between atoms: N1_4  and  C4_5
REMARK       I    between atoms: C4_5  and  N2_7
REMARK    2  A    between atoms: N2_7  and  C5_9
REMARK    3  A    between atoms: C5_9  and  C6_13
REMARK    4  A    between atoms: C6_13  and  C7_14
REMARK    5  A    between atoms: C7_14  and  N4_15
REMARK       I    between atoms: N4_15  and  C8_17
REMARK       I    between atoms: C8_17  and  N5_19
REMARK    6  A    between atoms: N5_19  and  C9_21
REMARK    7  A    between atoms: C13_27  and  C14_28
ROOT
HETATM    1  N4  UNL     1      44.537  -0.677  32.683  1.00  0.00    -0.342 N
ATOM      2  H4  UNL     1      45.368  -1.267  32.721  1.00  0.00     0.164 HD
HETATM    3  C8  UNL     1      43.423  -1.020  31.862  1.00  0.00     0.321 C
HETATM    4  O2  UNL     1      42.388  -0.308  31.799  1.00  0.00    -0.247 OA
HETATM    5  N5  UNL     1      43.424  -2.207  31.060  1.00  0.00    -0.294 N
ATOM      6  H5  UNL     1      43.210  -3.094  31.515  1.00  0.00     0.172 HD
ENDROOT
BRANCH   1   7
HETATM    7  C7  UNL     1      44.445   0.536  33.459  1.00  0.00     0.132 C
BRANCH   7   8
HETATM    8  C6  UNL     1      44.564   0.297  34.933  1.00  0.00     0.096 C
BRANCH   8   9
HETATM    9  C5  UNL     1      45.831   0.886  35.415  1.00  0.00     0.081 C
HETATM   10  N3  UNL     1      45.805   2.122  35.910  1.00  0.00    -0.389 N
ATOM     11  H32 UNL     1      46.680   2.528  36.242  1.00  0.00     0.157 HD
ATOM     12  H31 UNL     1      44.890   2.570  35.881  1.00  0.00     0.157 HD
BRANCH   9  13
HETATM   13  N2  UNL     1      47.082   0.273  35.455  1.00  0.00    -0.286 N
HETATM   14  C4  UNL     1      47.842  -0.064  36.611  1.00  0.00     0.399 C
HETATM   15  N1  UNL     1      49.037  -0.646  36.522  1.00  0.00    -0.362 NA
HETATM   16  O1  UNL     1      47.308   0.225  37.757  1.00  0.00    -0.230 OA
ATOM     17  H2  UNL     1      47.499   0.038  34.554  1.00  0.00     0.173 HD
BRANCH  15  18
HETATM   18  C2  UNL     1      50.045  -1.271  36.431  1.00  0.00     0.060 C
HETATM   19  C1  UNL     1      51.115  -0.946  35.389  1.00  0.00     0.079 C
HETATM   20  C3  UNL     1      50.428  -2.459  37.308  1.00  0.00     0.079 C
ENDBRANCH  15  18
ENDBRANCH   9  13
ENDBRANCH   8   9
ENDBRANCH   7   8
ENDBRANCH   1   7
BRANCH   5  21
HETATM   21  C9  UNL     1      43.680  -2.219  29.797  1.00  0.00     0.115 A
HETATM   22  N6  UNL     1      44.111  -1.152  29.136  1.00  0.00    -0.352 N
HETATM   23  C10 UNL     1      44.366  -1.217  27.825  1.00  0.00     0.089 A
ATOM     24  H6  UNL     1      44.249  -0.273  29.634  1.00  0.00     0.166 HD
HETATM   25  C11 UNL     1      44.179  -2.404  27.156  1.00  0.00     0.018 A
HETATM   26  C12 UNL     1      43.732  -3.525  27.820  1.00  0.00     0.012 A
HETATM   27  C13 UNL     1      43.478  -3.443  29.152  1.00  0.00    -0.011 A
BRANCH  27  28
HETATM   28  C14 UNL     1      42.991  -4.610  29.943  1.00  0.00     0.014 C
HETATM   29  C15 UNL     1      44.189  -5.454  30.300  1.00  0.00     0.015 C
HETATM   30  C16 UNL     1      42.009  -5.371  29.077  1.00  0.00     0.015 C
ENDBRANCH  27  28
ENDBRANCH   5  21
TORSDOF 7
ENDMDL