MODEL 5
REMARK VINA RESULT: -6.569628001      1.255      2.055
REMARK  4 active torsions:
REMARK  status: ('A' for Active; 'I' for Inactive)
REMARK       I    between atoms: N1_2  and  C2_4
REMARK    1  A    between atoms: C2_4  and  C3_6
REMARK    2  A    between atoms: C3_6  and  C4_7
REMARK    3  A    between atoms: C4_7  and  N2_8
REMARK       I    between atoms: N2_8  and  C5_10
REMARK       I    between atoms: C5_10  and  N3_12
REMARK    4  A    between atoms: N3_12  and  C6_14
ROOT
HETATM    1  C6  UNL     1      40.292  -1.287  31.008  1.00  0.00     0.091 C
HETATM    2  C7  UNL     1      40.681  -2.246  32.074  1.00  0.00     0.030 C
HETATM    3  C8  UNL     1      39.637  -2.518  33.097  1.00  0.00    -0.012 C
HETATM    4  C9  UNL     1      39.132  -1.214  33.691  1.00  0.00     0.010 C
HETATM    5  C10 UNL     1      37.927  -0.668  33.026  1.00  0.00    -0.010 C
HETATM    6  C11 UNL     1      37.817   0.816  33.340  1.00  0.00     0.005 C
HETATM    7  C12 UNL     1      38.545   1.044  32.018  1.00  0.00     0.006 C
HETATM    8  C13 UNL     1      38.044  -0.291  31.620  1.00  0.00    -0.004 C
HETATM    9  C14 UNL     1      38.850  -1.163  30.724  1.00  0.00     0.013 C
HETATM   10  C15 UNL     1      38.103  -2.414  30.421  1.00  0.00     0.015 C
HETATM   11  C16 UNL     1      38.137  -3.557  31.320  1.00  0.00    -0.047 C
HETATM   12  C17 UNL     1      38.840  -4.755  30.651  1.00  0.00     0.015 C
HETATM   13  C18 UNL     1      36.674  -4.077  31.412  1.00  0.00     0.015 C
HETATM   14  C19 UNL     1      38.535  -3.409  32.735  1.00  0.00     0.013 C
ENDROOT
BRANCH   1  15
HETATM   15  N3  UNL     1      41.030  -1.582  29.793  1.00  0.00    -0.338 N
HETATM   16  C5  UNL     1      42.353  -1.114  29.549  1.00  0.00     0.316 C
HETATM   17  N2  UNL     1      43.044  -1.419  28.355  1.00  0.00    -0.343 N
HETATM   18  O2  UNL     1      42.890  -0.414  30.442  1.00  0.00    -0.247 OA
ATOM     19  H2  UNL     1      42.591  -1.990  27.643  1.00  0.00     0.164 HD
ATOM     20  H3  UNL     1      40.579  -2.152  29.078  1.00  0.00     0.164 HD
BRANCH  17  21
HETATM   21  C4  UNL     1      44.368  -0.935  28.135  1.00  0.00     0.133 C
BRANCH  21  22
HETATM   22  C3  UNL     1      44.927  -1.166  26.771  1.00  0.00     0.122 C
BRANCH  22  23
HETATM   23  C2  UNL     1      44.506  -2.450  26.176  1.00  0.00     0.218 C
HETATM   24  N1  UNL     1      44.319  -2.572  24.780  1.00  0.00    -0.365 N
HETATM   25  C1  UNL     1      43.907  -3.808  24.143  1.00  0.00     0.149 C
ATOM     26  H1  UNL     1      44.482  -1.753  24.194  1.00  0.00     0.161 HD
HETATM   27  O1  UNL     1      44.296  -3.484  26.874  1.00  0.00    -0.274 OA
ENDBRANCH  22  23
ENDBRANCH  21  22
ENDBRANCH  17  21
ENDBRANCH   1  15
TORSDOF 4
ENDMDL