MODEL 4
REMARK VINA RESULT: -5.869940382      2.745      5.471
REMARK  5 active torsions:
REMARK  status: ('A' for Active; 'I' for Inactive)
REMARK    1  A    between atoms: C2_2  and  C3_3
REMARK    2  A    between atoms: C4_4  and  C5_5
REMARK    3  A    between atoms: C10_14  and  C11_15
REMARK    4  A    between atoms: C11_15  and  C12_16
REMARK    5  A    between atoms: C15_25  and  C16_26
ROOT
HETATM    1  C3  UNL     1      43.072  -4.650  30.514  1.00  0.00     0.001 A
HETATM    2  C4  UNL     1      42.927  -5.779  29.758  1.00  0.00     0.021 A
HETATM    3  N1  UNL     1      43.148  -5.443  28.451  1.00  0.00    -0.344 N
ATOM      4  H1  UNL     1      43.109  -6.082  27.657  1.00  0.00     0.167 HD
HETATM    5  C7  UNL     1      43.422  -4.144  28.391  1.00  0.00     0.118 A
HETATM    6  N2  UNL     1      43.723  -3.176  27.516  1.00  0.00    -0.342 N
ATOM      7  H2  UNL     1      43.816  -3.289  26.507  1.00  0.00     0.167 HD
HETATM    8  C8  UNL     1      43.885  -2.002  28.213  1.00  0.00     0.035 A
HETATM    9  C9  UNL     1      44.198  -0.865  27.631  1.00  0.00     0.044 C
HETATM   10  C10 UNL     1      43.680  -2.246  29.548  1.00  0.00     0.007 A
HETATM   11  C18 UNL     1      43.386  -3.615  29.643  1.00  0.00     0.033 A
ENDROOT
BRANCH  10  12
HETATM   12  C11 UNL     1      43.694  -1.453  30.581  1.00  0.00     0.045 C
BRANCH  12  13
HETATM   13  C12 UNL     1      42.613  -1.030  31.449  1.00  0.00     0.046 A
HETATM   14  N3  UNL     1      41.352  -0.970  30.995  1.00  0.00    -0.332 N
HETATM   15  C13 UNL     1      40.312  -0.630  31.782  1.00  0.00     0.179 A
ATOM     16  H3  UNL     1      41.173  -1.191  30.015  1.00  0.00     0.168 HD
HETATM   17  S1  UNL     1      38.772  -0.556  31.248  1.00  0.00    -0.040 SA
HETATM   18  N4  UNL     1      40.578  -0.342  33.077  1.00  0.00    -0.300 N
HETATM   19  C14 UNL     1      41.802  -0.376  33.614  1.00  0.00     0.256 A
ATOM     20  H4  UNL     1      39.798  -0.084  33.680  1.00  0.00     0.171 HD
HETATM   21  O1  UNL     1      42.016  -0.102  34.822  1.00  0.00    -0.267 OA
HETATM   22  C15 UNL     1      42.862  -0.736  32.761  1.00  0.00     0.036 A
BRANCH  22  23
HETATM   23  C16 UNL     1      44.197  -0.798  33.367  1.00  0.00     0.042 C
HETATM   24  C17 UNL     1      45.010   0.440  33.350  1.00  0.00     0.010 C
ENDBRANCH  22  23
ENDBRANCH  12  13
ENDBRANCH  10  12
BRANCH   1  25
HETATM   25  C2  UNL     1      42.935  -4.504  31.944  1.00  0.00     0.004 C
HETATM   26  C1  UNL     1      41.855  -4.394  32.654  1.00  0.00     0.012 C
ENDBRANCH   1  25
BRANCH   2  27
HETATM   27  C5  UNL     1      42.604  -7.145  30.155  1.00  0.00     0.053 C
HETATM   28  C6  UNL     1      43.736  -8.032  30.514  1.00  0.00     0.011 C
ENDBRANCH   2  27
TORSDOF 5
ENDMDL