MODEL 3
REMARK VINA RESULT: -6.832126331      1.018      1.283
REMARK  7 active torsions:
REMARK  status: ('A' for Active; 'I' for Inactive)
REMARK    1  A    between atoms: C2_2  and  C3_3
REMARK    2  A    between atoms: C3_3  and  C4_4
REMARK    3  A    between atoms: C5_5  and  N1_6
REMARK       I    between atoms: N1_6  and  C6_7
REMARK       I    between atoms: C6_7  and  N2_9
REMARK    4  A    between atoms: N2_9  and  C7_11
REMARK    5  A    between atoms: C13_19  and  N4_20
REMARK    6  A    between atoms: N4_20  and  C14_22
REMARK    7  A    between atoms: C14_22  and  C15_23
ROOT
HETATM    1  C4  UNL     1      42.399  -2.111  31.567  1.00  0.00     0.033 A
HETATM    2  C5  UNL     1      43.442  -1.211  31.546  1.00  0.00     0.193 A
HETATM    3  N3  UNL     1      44.151  -1.122  30.350  1.00  0.00    -0.340 N
ATOM      4  H3  UNL     1      44.929  -0.464  30.296  1.00  0.00     0.167 HD
HETATM    5  C11 UNL     1      43.865  -1.850  29.277  1.00  0.00     0.108 A
HETATM    6  C12 UNL     1      42.840  -2.747  29.276  1.00  0.00     0.053 A
HETATM    7  C13 UNL     1      42.341  -3.610  28.320  1.00  0.00     0.130 A
HETATM    8  N5  UNL     1      41.316  -4.238  28.924  1.00  0.00    -0.284 N
ATOM      9  H5  UNL     1      40.730  -4.947  28.484  1.00  0.00     0.188 HD
HETATM   10  N6  UNL     1      41.172  -3.806  30.174  1.00  0.00    -0.298 N
ATOM     11  H6  UNL     1      40.464  -4.131  30.833  1.00  0.00     0.187 HD
HETATM   12  C18 UNL     1      42.110  -2.870  30.434  1.00  0.00     0.074 A
ENDROOT
BRANCH   2  13
HETATM   13  N1  UNL     1      43.833  -0.522  32.462  1.00  0.00    -0.333 NA
HETATM   14  C6  UNL     1      44.626  -0.003  33.375  1.00  0.00     0.396 C
HETATM   15  O1  UNL     1      45.686   0.641  33.043  1.00  0.00    -0.230 OA
HETATM   16  N2  UNL     1      44.437  -0.071  34.793  1.00  0.00    -0.323 N
ATOM     17  H2  UNL     1      43.615  -0.573  35.131  1.00  0.00     0.166 HD
BRANCH  16  18
HETATM   18  C7  UNL     1      45.303   0.504  35.774  1.00  0.00     0.024 C
HETATM   19  C8  UNL     1      45.393   2.007  35.744  1.00  0.00     0.037 C
HETATM   20  C9  UNL     1      46.683  -0.096  35.649  1.00  0.00     0.037 C
HETATM   21  C10 UNL     1      44.801   0.118  37.178  1.00  0.00     0.037 C
ENDBRANCH  16  18
ENDBRANCH   2  13
BRANCH   1  22
HETATM   22  C3  UNL     1      41.504  -2.303  32.728  1.00  0.00     0.072 C
BRANCH  22  23
HETATM   23  C2  UNL     1      40.333  -1.400  32.721  1.00  0.00    -0.032 C
HETATM   24  C1  UNL     1      40.335  -0.300  33.433  1.00  0.00     0.007 C
ENDBRANCH  22  23
ENDBRANCH   1  22
BRANCH   7  25
HETATM   25  N4  UNL     1      42.789  -3.756  27.114  1.00  0.00    -0.374 N
ATOM     26  H4  UNL     1      42.143  -3.837  26.328  1.00  0.00     0.161 HD
BRANCH  25  27
HETATM   27  C14 UNL     1      44.211  -3.803  26.897  1.00  0.00     0.125 C
BRANCH  27  28
HETATM   28  C15 UNL     1      44.617  -3.103  25.616  1.00  0.00    -0.005 C
HETATM   29  C16 UNL     1      43.892  -3.710  24.445  1.00  0.00     0.011 C
HETATM   30  C17 UNL     1      44.306  -1.635  25.782  1.00  0.00     0.011 C
ENDBRANCH  27  28
ENDBRANCH  25  27
ENDBRANCH   7  25
TORSDOF 7
ENDMDL