MODEL 3
REMARK VINA RESULT: -6.322380421      0.670      1.469
REMARK  4 active torsions:
REMARK  status: ('A' for Active; 'I' for Inactive)
REMARK    1  A    between atoms: C2_2  and  N1_4
REMARK       I    between atoms: N1_4  and  C4_6
REMARK       I    between atoms: C4_6  and  N2_8
REMARK    2  A    between atoms: N5_18  and  C9_20
REMARK    3  A    between atoms: C9_20  and  C10_21
REMARK    4  A    between atoms: C10_21  and  C13_24
ROOT
HETATM    1  N1  UNL     1      43.415  -1.503  27.574  1.00  0.00    -0.339 N
ATOM      2  H1  UNL     1      42.674  -0.957  27.134  1.00  0.00     0.164 HD
HETATM    3  C4  UNL     1      43.550  -1.498  28.973  1.00  0.00     0.321 C
HETATM    4  O1  UNL     1      44.455  -2.165  29.514  1.00  0.00    -0.247 OA
HETATM    5  N2  UNL     1      42.663  -0.741  29.767  1.00  0.00    -0.309 N
ATOM      6  H2  UNL     1      42.964   0.138  30.189  1.00  0.00     0.170 HD
HETATM    7  C5  UNL     1      41.463  -1.182  29.950  1.00  0.00     0.039 A
HETATM    8  C6  UNL     1      40.851  -2.414  29.432  1.00  0.00     0.061 A
HETATM    9  C7  UNL     1      39.606  -2.446  29.880  1.00  0.00     0.064 A
HETATM   10  N3  UNL     1      38.504  -3.212  29.829  1.00  0.00    -0.298 N
ATOM     11  H3  UNL     1      38.412  -4.095  29.327  1.00  0.00     0.187 HD
HETATM   12  N4  UNL     1      37.561  -2.625  30.542  1.00  0.00    -0.285 N
ATOM     13  H4  UNL     1      36.619  -2.994  30.671  1.00  0.00     0.188 HD
HETATM   14  C8  UNL     1      38.009  -1.472  31.075  1.00  0.00     0.128 A
HETATM   15  N5  UNL     1      37.332  -0.671  31.817  1.00  0.00    -0.374 N
ATOM     16  H5  UNL     1      36.364  -0.907  32.039  1.00  0.00     0.161 HD
HETATM   17  C17 UNL     1      39.326  -1.344  30.656  1.00  0.00     0.039 A
HETATM   18  C18 UNL     1      40.387  -0.556  30.736  1.00  0.00     0.047 A
ENDROOT
BRANCH  15  19
HETATM   19  C9  UNL     1      37.890   0.555  32.353  1.00  0.00     0.130 C
BRANCH  19  20
HETATM   20  C10 UNL     1      38.101   0.443  33.841  1.00  0.00    -0.025 C
HETATM   21  C11 UNL     1      37.529  -0.869  34.321  1.00  0.00     0.017 C
HETATM   22  C12 UNL     1      39.602   0.370  34.069  1.00  0.00     0.017 C
BRANCH  20  23
HETATM   23  C13 UNL     1      37.579   1.617  34.600  1.00  0.00    -0.043 C
HETATM   24  C14 UNL     1      36.749   1.215  35.799  1.00  0.00     0.015 C
HETATM   25  C15 UNL     1      36.674   2.474  33.726  1.00  0.00     0.015 C
HETATM   26  C16 UNL     1      38.678   2.522  35.113  1.00  0.00     0.015 C
ENDBRANCH  20  23
ENDBRANCH  19  20
ENDBRANCH  15  19
BRANCH   1  27
HETATM   27  C2  UNL     1      44.319  -2.276  26.755  1.00  0.00     0.078 C
HETATM   28  C1  UNL     1      44.482  -1.551  25.433  1.00  0.00     0.032 C
HETATM   29  C3  UNL     1      43.676  -3.637  26.537  1.00  0.00     0.032 C
ENDBRANCH   1  27
TORSDOF 4
ENDMDL