MODEL 1
REMARK VINA RESULT: -6.203790964      0.000      0.000
REMARK  8 active torsions:
REMARK  status: ('A' for Active; 'I' for Inactive)
REMARK    1  A    between atoms: C2_2  and  C3_3
REMARK    2  A    between atoms: C5_7  and  N2_8
REMARK       I    between atoms: N2_8  and  C6_10
REMARK       I    between atoms: C6_10  and  N3_12
REMARK    3  A    between atoms: C8_15  and  N4_16
REMARK    4  A    between atoms: N4_16  and  C9_18
REMARK    5  A    between atoms: C9_18  and  C10_19
REMARK    6  A    between atoms: C9_18  and  N5_24
REMARK    7  A    between atoms: C10_19  and  C11_20
REMARK    8  A    between atoms: N5_24  and  C15_26
ROOT
HETATM    1  C3  UNL     1      44.037  -2.712  27.204  1.00  0.00     0.026 A
HETATM    2  C4  UNL     1      43.346  -3.846  26.838  1.00  0.00     0.114 A
HETATM    3  N1  UNL     1      42.718  -4.571  27.800  1.00  0.00    -0.347 N
ATOM      4  H1  UNL     1      42.202  -5.412  27.544  1.00  0.00     0.167 HD
HETATM    5  C5  UNL     1      42.770  -4.191  29.075  1.00  0.00     0.153 A
HETATM    6  C8  UNL     1      43.467  -3.042  29.470  1.00  0.00     0.148 A
HETATM    7  N6  UNL     1      44.074  -2.350  28.504  1.00  0.00    -0.342 N
ATOM      8  H6  UNL     1      44.589  -1.508  28.759  1.00  0.00     0.167 HD
ENDROOT
BRANCH   6   9
HETATM    9  N4  UNL     1      43.461  -2.764  30.695  1.00  0.00    -0.352 N
ATOM     10  H4  UNL     1      43.911  -3.461  31.290  1.00  0.00     0.163 HD
BRANCH   9  11
HETATM   11  C9  UNL     1      42.933  -1.645  31.392  1.00  0.00     0.179 C
BRANCH  11  12
HETATM   12  C10 UNL     1      41.828  -0.929  30.657  1.00  0.00     0.054 C
BRANCH  12  13
HETATM   13  C11 UNL     1      40.455  -1.226  31.152  1.00  0.00    -0.048 C
HETATM   14  C12 UNL     1      39.594   0.032  31.258  1.00  0.00     0.014 C
HETATM   15  C13 UNL     1      39.779  -2.030  30.023  1.00  0.00     0.014 C
HETATM   16  C14 UNL     1      40.385  -2.078  32.373  1.00  0.00     0.014 C
ENDBRANCH  12  13
ENDBRANCH  11  12
BRANCH  11  17
HETATM   17  N5  UNL     1      44.022  -0.785  31.746  1.00  0.00    -0.398 N
ATOM     18  H5  UNL     1      44.832  -0.666  31.138  1.00  0.00     0.155 HD
BRANCH  17  19
HETATM   19  C15 UNL     1      43.913  -0.109  32.981  1.00  0.00     0.070 C
HETATM   20  C16 UNL     1      43.438  -0.991  34.087  1.00  0.00     0.031 C
HETATM   21  C17 UNL     1      45.326   0.370  33.357  1.00  0.00     0.031 C
ENDBRANCH  17  19
ENDBRANCH  11  17
ENDBRANCH   9  11
ENDBRANCH   6   9
BRANCH   5  22
HETATM   22  N2  UNL     1      42.163  -4.903  29.958  1.00  0.00    -0.292 N
HETATM   23  C6  UNL     1      42.340  -6.298  30.010  1.00  0.00     0.321 C
HETATM   24  O1  UNL     1      41.409  -7.026  29.585  1.00  0.00    -0.247 OA
HETATM   25  N3  UNL     1      43.503  -6.929  30.512  1.00  0.00    -0.347 N
HETATM   26  C7  UNL     1      43.641  -8.367  30.545  1.00  0.00     0.151 C
ATOM     27  H3  UNL     1      44.268  -6.351  30.862  1.00  0.00     0.163 HD
ATOM     28  H2  UNL     1      41.544  -4.450  30.630  1.00  0.00     0.172 HD
ENDBRANCH   5  22
BRANCH   1  29
HETATM   29  C2  UNL     1      44.733  -1.902  26.168  1.00  0.00     0.054 C
HETATM   30  C1  UNL     1      44.408  -2.350  24.772  1.00  0.00     0.011 C
ENDBRANCH   1  29
TORSDOF 8
ENDMDL