MODEL 5
REMARK VINA RESULT: -6.233723154      1.745      2.317
REMARK  5 active torsions:
REMARK  status: ('A' for Active; 'I' for Inactive)
REMARK    1  A    between atoms: C2_2  and  C5_5
REMARK    2  A    between atoms: C5_5  and  C6_6
REMARK    3  A    between atoms: C6_6  and  N1_7
REMARK       I    between atoms: N1_7  and  C7_9
REMARK       I    between atoms: C7_9  and  N2_11
REMARK    4  A    between atoms: N2_11  and  C8_13
REMARK    5  A    between atoms: N3_15  and  C9_17
ROOT
HETATM    1  C8  UNL     1      41.830  -0.795  32.657  1.00  0.00     0.176 C
HETATM    2  S1  UNL     1      40.342  -0.457  33.480  1.00  0.00    -0.041 SA
HETATM    3  N3  UNL     1      41.631  -0.976  31.321  1.00  0.00    -0.360 N
ATOM      4  H3  UNL     1      40.659  -0.794  31.074  1.00  0.00     0.162 HD
ENDROOT
BRANCH   1   5
HETATM    5  N2  UNL     1      42.870  -0.858  33.532  1.00  0.00    -0.286 N
HETATM    6  C7  UNL     1      43.983  -0.036  33.713  1.00  0.00     0.322 C
HETATM    7  N1  UNL     1      44.939  -0.406  34.744  1.00  0.00    -0.343 N
HETATM    8  O1  UNL     1      44.232   0.975  33.080  1.00  0.00    -0.247 OA
ATOM      9  H1  UNL     1      44.777  -1.251  35.292  1.00  0.00     0.164 HD
ATOM     10  H2  UNL     1      42.828  -1.650  34.174  1.00  0.00     0.173 HD
BRANCH   7  11
HETATM   11  C6  UNL     1      46.089   0.377  35.009  1.00  0.00     0.125 C
BRANCH  11  12
HETATM   12  C5  UNL     1      46.575   0.303  36.399  1.00  0.00     0.028 C
BRANCH  12  13
HETATM   13  C2  UNL     1      47.749  -0.548  36.702  1.00  0.00    -0.050 C
HETATM   14  C1  UNL     1      47.170  -1.875  37.253  1.00  0.00     0.014 C
HETATM   15  C3  UNL     1      48.601   0.002  37.830  1.00  0.00     0.014 C
HETATM   16  C4  UNL     1      48.670  -0.862  35.564  1.00  0.00     0.014 C
ENDBRANCH  12  13
ENDBRANCH  11  12
ENDBRANCH   7  11
ENDBRANCH   1   5
BRANCH   3  17
HETATM   17  C9  UNL     1      42.378  -1.342  30.173  1.00  0.00     0.110 C
HETATM   18  C10 UNL     1      43.887  -1.289  30.341  1.00  0.00     0.148 C
HETATM   19  N4  UNL     1      44.450  -1.335  29.006  1.00  0.00    -0.359 N
HETATM   20  C11 UNL     1      43.858  -2.224  28.074  1.00  0.00     0.218 C
ATOM     21  H4  UNL     1      45.244  -0.749  28.747  1.00  0.00     0.162 HD
HETATM   22  O2  UNL     1      44.432  -2.437  26.980  1.00  0.00    -0.274 OA
HETATM   23  C12 UNL     1      42.580  -2.932  28.319  1.00  0.00     0.113 C
HETATM   24  C13 UNL     1      42.065  -2.779  29.716  1.00  0.00    -0.018 C
HETATM   25  C14 UNL     1      42.711  -3.799  30.588  1.00  0.00     0.017 C
HETATM   26  C15 UNL     1      40.562  -2.924  29.790  1.00  0.00     0.017 C
ENDBRANCH   3  17
TORSDOF 5
ENDMDL