MODEL 5
REMARK VINA RESULT: -6.598230630      4.028      6.947
REMARK  4 active torsions:
REMARK  status: ('A' for Active; 'I' for Inactive)
REMARK    1  A    between atoms: C2_2  and  N1_3
REMARK    2  A    between atoms: C2_2  and  C10_17
REMARK       I    between atoms: N1_3  and  C3_5
REMARK       I    between atoms: C3_5  and  N2_7
REMARK    3  A    between atoms: N2_7  and  C4_9
REMARK    4  A    between atoms: C4_9  and  C5_10
ROOT
HETATM    1  N1  UNL     1      44.832   0.383  33.803  1.00  0.00    -0.313 N
ATOM      2  H1  UNL     1      45.090   1.122  33.148  1.00  0.00     0.170 HD
HETATM    3  C3  UNL     1      43.989  -0.601  33.289  1.00  0.00     0.321 C
HETATM    4  O1  UNL     1      43.576  -1.565  33.933  1.00  0.00    -0.247 OA
HETATM    5  N2  UNL     1      43.559  -0.506  31.923  1.00  0.00    -0.323 N
ATOM      6  H2  UNL     1      43.889   0.288  31.375  1.00  0.00     0.165 HD
ENDROOT
BRANCH   1   7
HETATM    7  C2  UNL     1      45.383   0.506  35.103  1.00  0.00     0.013 C
HETATM    8  C1  UNL     1      46.496  -0.075  35.450  1.00  0.00     0.039 C
BRANCH   7   9
HETATM    9  C10 UNL     1      44.654   1.340  36.126  1.00  0.00     0.003 C
HETATM   10  C11 UNL     1      43.682   0.502  36.864  1.00  0.00     0.020 C
HETATM   11  C12 UNL     1      42.961   1.349  37.933  1.00  0.00    -0.013 C
HETATM   12  C13 UNL     1      44.025   1.846  38.855  1.00  0.00     0.009 C
HETATM   13  C17 UNL     1      42.193   2.409  37.223  1.00  0.00     0.009 C
HETATM   14  C14 UNL     1      44.957   2.747  38.117  1.00  0.00    -0.013 C
HETATM   15  C15 UNL     1      44.139   3.859  37.456  1.00  0.00     0.009 C
HETATM   16  C19 UNL     1      45.666   2.018  36.996  1.00  0.00     0.020 C
HETATM   17  C16 UNL     1      43.199   3.272  36.456  1.00  0.00    -0.013 C
HETATM   18  C18 UNL     1      43.880   2.451  35.405  1.00  0.00     0.020 C
ENDBRANCH   7   9
ENDBRANCH   1   7
BRANCH   5  19
HETATM   19  C4  UNL     1      42.693  -1.458  31.276  1.00  0.00     0.122 C
HETATM   20  C6  UNL     1      43.085  -2.876  31.438  1.00  0.00     0.042 C
HETATM   21  C7  UNL     1      43.176  -3.469  30.080  1.00  0.00     0.003 C
HETATM   22  C8  UNL     1      42.335  -2.592  29.197  1.00  0.00     0.003 C
HETATM   23  C9  UNL     1      42.622  -1.222  29.758  1.00  0.00     0.042 C
BRANCH  19  24
HETATM   24  C5  UNL     1      41.306  -1.273  31.815  1.00  0.00     0.202 C
HETATM   25  O2  UNL     1      40.730  -0.178  31.645  1.00  0.00    -0.646 OA
HETATM   26  O3  UNL     1      40.677  -2.297  32.488  1.00  0.00    -0.646 OA
ENDBRANCH  19  24
ENDBRANCH   5  19
TORSDOF 4
ENDMDL