MODEL 4
REMARK VINA RESULT: -5.792062941      6.447      8.923
REMARK  6 active torsions:
REMARK  status: ('A' for Active; 'I' for Inactive)
REMARK       I    between atoms: C2_5  and  N3_6
REMARK       I    between atoms: C2_5  and  N6_16
REMARK    1  A    between atoms: N3_6  and  C3_8
REMARK    2  A    between atoms: C3_8  and  C4_9
REMARK    3  A    between atoms: C4_9  and  C5_10
REMARK    4  A    between atoms: C5_10  and  N4_11
REMARK    5  A    between atoms: N4_11  and  C6_13
REMARK    6  A    between atoms: N6_16  and  C7_18
ROOT
HETATM    1  N1  UNL     1      45.519  -1.572  26.442  1.00  0.00    -0.171 NA
HETATM    2  C1  UNL     1      44.713  -1.258  27.198  1.00  0.00     0.196 C
HETATM    3  N2  UNL     1      43.745  -0.854  28.103  1.00  0.00    -0.126 N
ATOM      4  H2  UNL     1      43.487   0.133  28.116  1.00  0.00     0.197 HD
HETATM    5  C2  UNL     1      43.154  -1.637  28.922  1.00  0.00     0.683 C
HETATM    6  N3  UNL     1      43.479  -3.019  28.939  1.00  0.00    -0.226 N
ATOM      7  H3  UNL     1      44.093  -3.362  29.678  1.00  0.00     0.177 HD
HETATM    8  N6  UNL     1      42.167  -1.186  29.832  1.00  0.00    -0.220 N
ATOM      9  H6  UNL     1      41.201  -1.078  29.523  1.00  0.00     0.178 HD
ENDROOT
BRANCH   6  10
HETATM   10  C3  UNL     1      42.987  -3.966  27.963  1.00  0.00     0.139 C
BRANCH  10  11
HETATM   11  C4  UNL     1      42.749  -5.327  28.574  1.00  0.00     0.040 C
BRANCH  11  12
HETATM   12  C5  UNL     1      41.845  -5.316  29.764  1.00  0.00     0.123 C
BRANCH  12  13
HETATM   13  N4  UNL     1      40.444  -5.343  29.477  1.00  0.00    -0.369 N
ATOM     14  H4  UNL     1      40.072  -6.144  28.967  1.00  0.00     0.161 HD
BRANCH  13  15
HETATM   15  C6  UNL     1      39.546  -4.319  29.860  1.00  0.00     0.180 C
HETATM   16  N5  UNL     1      39.710  -3.006  29.349  1.00  0.00    -0.070 NA
HETATM   17  S1  UNL     1      38.299  -4.575  30.870  1.00  0.00    -0.044 SA
ENDBRANCH  13  15
ENDBRANCH  12  13
ENDBRANCH  11  12
ENDBRANCH  10  11
ENDBRANCH   6  10
BRANCH   8  18
HETATM   18  C7  UNL     1      42.523  -0.883  31.177  1.00  0.00     0.107 C
HETATM   19  C8  UNL     1      41.376  -0.873  32.151  1.00  0.00     0.010 C
HETATM   20  C9  UNL     1      41.844  -0.076  33.375  1.00  0.00     0.011 C
HETATM   21  C13 UNL     1      41.032  -2.269  32.616  1.00  0.00     0.011 C
HETATM   22  C10 UNL     1      43.092  -0.701  33.934  1.00  0.00    -0.013 C
HETATM   23  C11 UNL     1      42.726  -2.073  34.455  1.00  0.00     0.009 C
HETATM   24  C16 UNL     1      44.192  -0.866  32.930  1.00  0.00     0.011 C
HETATM   25  C12 UNL     1      42.226  -2.877  33.295  1.00  0.00    -0.013 C
HETATM   26  C14 UNL     1      43.319  -3.031  32.229  1.00  0.00     0.011 C
HETATM   27  C15 UNL     1      43.676  -1.670  31.728  1.00  0.00     0.010 C
ENDBRANCH   8  18
TORSDOF 6
ENDMDL