MODEL 2
REMARK VINA RESULT: -7.084160731      1.323      1.609
REMARK  6 active torsions:
REMARK  status: ('A' for Active; 'I' for Inactive)
REMARK    1  A    between atoms: C2_2  and  C14_28
REMARK    2  A    between atoms: N1_3  and  N2_5
REMARK       I    between atoms: N2_5  and  C3_7
REMARK       I    between atoms: C3_7  and  N5_12
REMARK    3  A    between atoms: N5_12  and  C5_14
REMARK    4  A    between atoms: C5_14  and  C6_15
REMARK    5  A    between atoms: C6_15  and  N6_16
REMARK       I    between atoms: N6_16  and  C7_18
REMARK       I    between atoms: C7_18  and  N7_20
REMARK    6  A    between atoms: N7_20  and  C8_22
ROOT
HETATM    1  N2  UNL     1      44.225  -1.770  30.963  1.00  0.00    -0.132 N
ATOM      2  H2  UNL     1      44.962  -2.370  31.334  1.00  0.00     0.205 HD
HETATM    3  C3  UNL     1      43.346  -1.084  31.868  1.00  0.00     0.701 C
HETATM    4  N3  UNL     1      42.107  -1.334  31.930  1.00  0.00    -0.125 N
ATOM      5  H3  UNL     1      41.728  -2.051  31.312  1.00  0.00     0.197 HD
HETATM    6  C4  UNL     1      41.249  -0.693  32.782  1.00  0.00     0.196 C
HETATM    7  N4  UNL     1      40.505  -0.148  33.491  1.00  0.00    -0.171 NA
HETATM    8  N5  UNL     1      43.914  -0.097  32.703  1.00  0.00    -0.223 N
ATOM      9  H5  UNL     1      44.155   0.822  32.331  1.00  0.00     0.177 HD
ENDROOT
BRANCH   1  10
HETATM   10  N1  UNL     1      44.083  -1.627  29.600  1.00  0.00    -0.295 N
HETATM   11  C2  UNL     1      44.027  -2.520  28.712  1.00  0.00     0.004 C
HETATM   12  C1  UNL     1      44.111  -3.951  29.060  1.00  0.00     0.065 C
ATOM     13  H1  UNL     1      44.014  -0.666  29.264  1.00  0.00     0.186 HD
BRANCH  11  14
HETATM   14  C14 UNL     1      43.886  -2.139  27.288  1.00  0.00     0.032 A
HETATM   15  C15 UNL     1      44.302  -0.744  26.839  1.00  0.00     0.011 A
HETATM   16  C16 UNL     1      45.178  -1.888  26.502  1.00  0.00     0.011 A
ENDBRANCH  11  14
ENDBRANCH   1  10
BRANCH   8  17
HETATM   17  C5  UNL     1      44.149  -0.412  34.096  1.00  0.00     0.158 C
BRANCH  17  18
HETATM   18  C6  UNL     1      44.779   0.782  34.733  1.00  0.00     0.144 C
BRANCH  18  19
HETATM   19  N6  UNL     1      46.201   0.657  34.742  1.00  0.00    -0.342 N
HETATM   20  C7  UNL     1      46.925  -0.098  35.699  1.00  0.00     0.316 C
HETATM   21  O1  UNL     1      46.277  -0.690  36.598  1.00  0.00    -0.247 OA
HETATM   22  N7  UNL     1      48.334  -0.162  35.615  1.00  0.00    -0.339 N
ATOM     23  H7  UNL     1      48.820   0.337  34.869  1.00  0.00     0.164 HD
ATOM     24  H6  UNL     1      46.729   1.140  34.015  1.00  0.00     0.164 HD
BRANCH  22  25
HETATM   25  C8  UNL     1      49.084  -0.916  36.564  1.00  0.00     0.086 C
HETATM   26  C9  UNL     1      50.482  -1.263  36.106  1.00  0.00     0.025 C
HETATM   27  C10 UNL     1      51.070  -2.231  37.107  1.00  0.00     0.002 C
HETATM   28  C11 UNL     1      50.952  -1.743  38.505  1.00  0.00     0.000 C
HETATM   29  C12 UNL     1      49.627  -1.188  38.900  1.00  0.00     0.002 C
HETATM   30  C13 UNL     1      49.243  -0.132  37.871  1.00  0.00     0.025 C
ENDBRANCH  22  25
ENDBRANCH  18  19
ENDBRANCH  17  18
ENDBRANCH   8  17
TORSDOF 6
ENDMDL