MODEL 2
REMARK VINA RESULT: -6.748982829      0.767      1.287
REMARK  6 active torsions:
REMARK  status: ('A' for Active; 'I' for Inactive)
REMARK       I    between atoms: C1_4  and  N2_5
REMARK       I    between atoms: C1_4  and  N4_18
REMARK    1  A    between atoms: N2_5  and  C2_7
REMARK    2  A    between atoms: C2_7  and  C3_8
REMARK    3  A    between atoms: C3_8  and  C4_9
REMARK    4  A    between atoms: C4_9  and  N3_10
REMARK    5  A    between atoms: C8_14  and  O1_15
REMARK    6  A    between atoms: N4_18  and  C10_20
ROOT
HETATM    1  N1  UNL     1      41.826  -6.891  33.234  1.00  0.00    -0.235 N
ATOM      2  H11 UNL     1      42.009  -7.671  33.864  1.00  0.00     0.174 HD
ATOM      3  H12 UNL     1      40.869  -6.539  33.205  1.00  0.00     0.174 HD
HETATM    4  C1  UNL     1      42.774  -6.412  32.542  1.00  0.00     0.667 C
HETATM    5  N2  UNL     1      42.516  -5.308  31.651  1.00  0.00    -0.227 N
ATOM      6  H2  UNL     1      41.625  -5.198  31.167  1.00  0.00     0.177 HD
HETATM    7  N4  UNL     1      44.091  -6.896  32.581  1.00  0.00    -0.221 N
ATOM      8  H4  UNL     1      44.822  -6.330  33.012  1.00  0.00     0.178 HD
ENDROOT
BRANCH   5   9
HETATM    9  C2  UNL     1      43.597  -4.374  31.487  1.00  0.00     0.140 C
BRANCH   9  10
HETATM   10  C3  UNL     1      43.917  -4.230  30.002  1.00  0.00     0.050 C
BRANCH  10  11
HETATM   11  C4  UNL     1      42.660  -3.886  29.235  1.00  0.00     0.274 C
BRANCH  11  12
HETATM   12  N3  UNL     1      43.015  -3.012  28.132  1.00  0.00     0.090 N
HETATM   13  C5  UNL     1      43.641  -3.848  27.142  1.00  0.00     0.272 C
HETATM   14  C6  UNL     1      44.362  -3.147  26.051  1.00  0.00     0.033 C
HETATM   15  C7  UNL     1      45.126  -1.928  26.420  1.00  0.00     0.035 C
HETATM   16  C8  UNL     1      44.538  -1.147  27.552  1.00  0.00     0.146 C
HETATM   17  C9  UNL     1      43.895  -2.014  28.600  1.00  0.00     0.303 C
BRANCH  16  18
HETATM   18  O1  UNL     1      45.578  -0.464  28.187  1.00  0.00    -0.394 OA
ATOM     19  H1  UNL     1      45.256   0.396  28.432  1.00  0.00     0.210 HD
ENDBRANCH  16  18
ENDBRANCH  11  12
ENDBRANCH  10  11
ENDBRANCH   9  10
ENDBRANCH   5   9
BRANCH   7  20
HETATM   20  C10 UNL     1      44.421  -8.169  32.026  1.00  0.00     0.107 C
HETATM   21  C11 UNL     1      44.506  -9.219  33.103  1.00  0.00     0.010 C
HETATM   22  C12 UNL     1      44.613 -10.548  32.385  1.00  0.00     0.011 C
HETATM   23  C16 UNL     1      45.739  -8.938  33.920  1.00  0.00     0.011 C
HETATM   24  C13 UNL     1      45.819 -10.565  31.496  1.00  0.00    -0.013 C
HETATM   25  C14 UNL     1      47.034 -10.374  32.353  1.00  0.00     0.009 C
HETATM   26  C19 UNL     1      45.708  -9.490  30.453  1.00  0.00     0.011 C
HETATM   27  C15 UNL     1      46.967  -9.027  33.026  1.00  0.00    -0.013 C
HETATM   28  C17 UNL     1      46.937  -7.984  31.924  1.00  0.00     0.011 C
HETATM   29  C18 UNL     1      45.669  -8.159  31.166  1.00  0.00     0.010 C
ENDBRANCH   7  20
TORSDOF 6
ENDMDL