MODEL 4
REMARK VINA RESULT: -5.722062902      2.599      5.451
REMARK  7 active torsions:
REMARK  status: ('A' for Active; 'I' for Inactive)
REMARK    1  A    between atoms: N1_1  and  C1_5
REMARK    2  A    between atoms: C1_5  and  C2_6
REMARK    3  A    between atoms: C2_6  and  C3_7
REMARK    4  A    between atoms: C3_7  and  C4_8
REMARK    5  A    between atoms: C4_8  and  C5_9
REMARK    6  A    between atoms: C7_13  and  C8_14
REMARK    7  A    between atoms: C12_20  and  N4_21
ROOT
HETATM    1  C4  UNL     1      42.530  -2.655  30.864  1.00  0.00     0.015 C
HETATM    2  C6  UNL     1      43.231  -3.736  31.627  1.00  0.00     0.030 C
HETATM    3  C7  UNL     1      43.122  -5.088  31.033  1.00  0.00     0.076 C
HETATM    4  C9  UNL     1      43.834  -4.978  29.676  1.00  0.00     0.018 C
HETATM    5  C10 UNL     1      42.884  -4.109  28.855  1.00  0.00    -0.007 C
HETATM    6  C11 UNL     1      43.161  -4.203  27.398  1.00  0.00     0.037 C
HETATM    7  C12 UNL     1      44.546  -3.771  27.005  1.00  0.00     0.183 C
HETATM    8  C13 UNL     1      44.645  -2.312  26.645  1.00  0.00     0.033 C
HETATM    9  C14 UNL     1      43.605  -1.533  27.380  1.00  0.00     0.002 C
HETATM   10  C15 UNL     1      43.816  -1.778  28.879  1.00  0.00     0.006 C
HETATM   11  C16 UNL     1      42.739  -2.722  29.375  1.00  0.00     0.004 C
ENDROOT
BRANCH   1  12
HETATM   12  C3  UNL     1      41.046  -2.714  31.108  1.00  0.00     0.018 C
BRANCH  12  13
HETATM   13  C2  UNL     1      40.169  -2.521  29.938  1.00  0.00     0.028 C
BRANCH  13  14
HETATM   14  C1  UNL     1      39.198  -3.714  29.890  1.00  0.00     0.229 C
BRANCH  14  15
HETATM   15  N1  UNL     1      38.418  -3.661  28.665  1.00  0.00    -0.079 N
ATOM     16  H13 UNL     1      37.664  -2.977  28.719  1.00  0.00     0.274 HD
ATOM     17  H12 UNL     1      38.941  -3.244  27.895  1.00  0.00     0.274 HD
ATOM     18  H11 UNL     1      38.076  -4.594  28.436  1.00  0.00     0.274 HD
ENDBRANCH  14  15
ENDBRANCH  13  14
ENDBRANCH  12  13
ENDBRANCH   1  12
BRANCH   1  19
HETATM   19  C5  UNL     1      43.035  -1.384  31.444  1.00  0.00     0.099 C
HETATM   20  N2  UNL     1      42.474  -0.114  31.048  1.00  0.00    -0.094 NA
HETATM   21  S1  UNL     1      44.208  -1.289  32.572  1.00  0.00    -0.068 SA
ENDBRANCH   1  19
BRANCH   3  22
HETATM   22  C8  UNL     1      43.707  -6.106  31.891  1.00  0.00     0.235 C
HETATM   23  N3  UNL     1      44.799  -6.886  31.381  1.00  0.00    -0.062 NA
HETATM   24  O1  UNL     1      43.318  -6.346  33.048  1.00  0.00    -0.277 OA
ENDBRANCH   3  22
BRANCH   7  25
HETATM   25  N4  UNL     1      44.954  -4.519  25.806  1.00  0.00    -0.075 N
ATOM     26  H43 UNL     1      45.339  -3.913  25.081  1.00  0.00     0.274 HD
ATOM     27  H42 UNL     1      45.784  -5.091  25.967  1.00  0.00     0.274 HD
ATOM     28  H41 UNL     1      44.162  -5.068  25.475  1.00  0.00     0.274 HD
ENDBRANCH   7  25
TORSDOF 7
ENDMDL