MODEL 2
REMARK VINA RESULT: -6.438720039      1.096      1.819
REMARK  8 active torsions:
REMARK  status: ('A' for Active; 'I' for Inactive)
REMARK    1  A    between atoms: C2_2  and  N2_6
REMARK       I    between atoms: N2_6  and  C5_8
REMARK       I    between atoms: C5_8  and  N3_10
REMARK    2  A    between atoms: N3_10  and  C6_12
REMARK    3  A    between atoms: C6_12  and  C7_13
REMARK    4  A    between atoms: C7_13  and  C8_14
REMARK    5  A    between atoms: C8_14  and  N4_15
REMARK    6  A    between atoms: N4_15  and  C9_17
REMARK    7  A    between atoms: C9_17  and  N5_19
REMARK    8  A    between atoms: N5_19  and  C10_21
ROOT
HETATM    1  C1  UNL     1      48.448  -2.361  36.330  1.00  0.00     0.055 C
HETATM    2  C2  UNL     1      48.904  -0.932  36.466  1.00  0.00     0.116 C
HETATM    3  C3  UNL     1      50.404  -0.800  36.362  1.00  0.00     0.055 C
HETATM    4  C4  UNL     1      48.441  -0.373  37.759  1.00  0.00     0.090 C
HETATM    5  N1  UNL     1      48.093   0.072  38.768  1.00  0.00    -0.195 NA
ENDROOT
BRANCH   2   6
HETATM    6  N2  UNL     1      48.326  -0.137  35.412  1.00  0.00    -0.322 N
HETATM    7  C5  UNL     1      46.893  -0.176  35.249  1.00  0.00     0.317 C
HETATM    8  O1  UNL     1      46.233  -0.902  36.037  1.00  0.00    -0.247 OA
HETATM    9  N3  UNL     1      46.341   0.607  34.216  1.00  0.00    -0.343 N
ATOM     10  H3  UNL     1      46.960   1.159  33.622  1.00  0.00     0.164 HD
ATOM     11  H2  UNL     1      48.910   0.435  34.802  1.00  0.00     0.166 HD
BRANCH   9  12
HETATM   12  C6  UNL     1      44.927   0.644  33.984  1.00  0.00     0.126 C
BRANCH  12  13
HETATM   13  C7  UNL     1      44.506  -0.519  33.151  1.00  0.00     0.039 C
BRANCH  13  14
HETATM   14  C8  UNL     1      43.025  -0.425  32.833  1.00  0.00     0.123 C
BRANCH  14  15
HETATM   15  N4  UNL     1      42.803  -0.531  31.396  1.00  0.00    -0.367 N
ATOM     16  H4  UNL     1      42.395   0.240  30.866  1.00  0.00     0.161 HD
BRANCH  15  17
HETATM   17  C9  UNL     1      43.174  -1.741  30.763  1.00  0.00     0.167 C
HETATM   18  S1  UNL     1      42.456  -3.107  31.295  1.00  0.00    -0.041 SA
BRANCH  17  19
HETATM   19  N5  UNL     1      44.129  -1.751  29.713  1.00  0.00    -0.363 N
ATOM     20  H5  UNL     1      45.088  -1.486  29.939  1.00  0.00     0.162 HD
BRANCH  19  21
HETATM   21  C10 UNL     1      43.837  -2.108  28.362  1.00  0.00     0.083 C
HETATM   22  C11 UNL     1      44.325  -3.491  28.060  1.00  0.00     0.025 C
HETATM   23  C12 UNL     1      43.906  -3.891  26.657  1.00  0.00     0.002 C
HETATM   24  C13 UNL     1      44.415  -2.915  25.627  1.00  0.00     0.000 C
HETATM   25  C14 UNL     1      45.107  -1.727  26.237  1.00  0.00     0.002 C
HETATM   26  C15 UNL     1      44.287  -1.090  27.350  1.00  0.00     0.025 C
ENDBRANCH  19  21
ENDBRANCH  17  19
ENDBRANCH  15  17
ENDBRANCH  14  15
ENDBRANCH  13  14
ENDBRANCH  12  13
ENDBRANCH   9  12
ENDBRANCH   2   6
TORSDOF 8
ENDMDL