MODEL 5
REMARK VINA RESULT: -6.480173966      1.182      1.890
REMARK  7 active torsions:
REMARK  status: ('A' for Active; 'I' for Inactive)
REMARK    1  A    between atoms: C2_2  and  C5_5
REMARK    2  A    between atoms: C5_5  and  N1_6
REMARK       I    between atoms: N1_6  and  C6_8
REMARK       I    between atoms: C6_8  and  N2_10
REMARK    3  A    between atoms: N2_10  and  N3_12
REMARK       I    between atoms: N3_12  and  C7_14
REMARK    4  A    between atoms: C7_14  and  C8_16
REMARK    5  A    between atoms: C8_16  and  N4_17
REMARK       I    between atoms: N4_17  and  C9_19
REMARK    6  A    between atoms: C9_19  and  C10_21
REMARK    7  A    between atoms: C10_21  and  C11_22
ROOT
HETATM    1  N3  UNL     1      44.891   0.637  34.995  1.00  0.00    -0.265 N
ATOM      2  H3  UNL     1      44.062   0.670  35.588  1.00  0.00     0.190 HD
HETATM    3  C7  UNL     1      44.772   0.263  33.639  1.00  0.00     0.253 C
HETATM    4  O2  UNL     1      45.839   0.222  32.940  1.00  0.00    -0.270 OA
ENDROOT
BRANCH   3   5
HETATM    5  C8  UNL     1      43.482  -0.077  33.033  1.00  0.00     0.227 C
BRANCH   5   6
HETATM    6  N4  UNL     1      43.622  -0.814  31.814  1.00  0.00    -0.352 N
HETATM    7  C9  UNL     1      42.582  -0.868  30.841  1.00  0.00     0.218 C
HETATM    8  O3  UNL     1      41.524  -0.234  31.081  1.00  0.00    -0.274 OA
ATOM      9  H4  UNL     1      44.492  -1.316  31.636  1.00  0.00     0.162 HD
BRANCH   7  10
HETATM   10  C10 UNL     1      42.830  -1.669  29.624  1.00  0.00     0.107 C
BRANCH  10  11
HETATM   11  C11 UNL     1      41.994  -2.904  29.476  1.00  0.00    -0.006 C
HETATM   12  C12 UNL     1      41.985  -3.663  30.790  1.00  0.00     0.005 C
HETATM   13  C13 UNL     1      43.244  -4.393  31.083  1.00  0.00     0.000 C
HETATM   14  C14 UNL     1      44.089  -4.806  29.942  1.00  0.00     0.000 C
HETATM   15  C15 UNL     1      43.980  -4.042  28.680  1.00  0.00     0.000 C
HETATM   16  C16 UNL     1      42.554  -3.763  28.374  1.00  0.00     0.005 C
ENDBRANCH  10  11
ENDBRANCH   7  10
ENDBRANCH   5   6
ENDBRANCH   3   5
BRANCH   1  17
HETATM   17  N2  UNL     1      46.157   0.967  35.533  1.00  0.00    -0.249 N
HETATM   18  C6  UNL     1      46.833  -0.029  36.328  1.00  0.00     0.338 C
HETATM   19  N1  UNL     1      48.087   0.265  36.877  1.00  0.00    -0.321 N
HETATM   20  O1  UNL     1      46.207  -1.117  36.459  1.00  0.00    -0.245 OA
ATOM     21  H1  UNL     1      48.456   1.196  36.683  1.00  0.00     0.169 HD
ATOM     22  H2  UNL     1      46.579   1.880  35.364  1.00  0.00     0.192 HD
BRANCH  19  23
HETATM   23  C5  UNL     1      48.893  -0.566  37.660  1.00  0.00     0.074 C
BRANCH  23  24
HETATM   24  C2  UNL     1      49.743  -1.607  37.051  1.00  0.00    -0.019 C
HETATM   25  C1  UNL     1      51.070  -1.750  37.792  1.00  0.00     0.020 C
HETATM   26  C3  UNL     1      49.968  -1.601  35.589  1.00  0.00     0.020 C
HETATM   27  C4  UNL     1      49.008  -2.955  37.364  1.00  0.00     0.020 C
ENDBRANCH  23  24
ENDBRANCH  19  23
ENDBRANCH   1  17
TORSDOF 7
ENDMDL