MODEL 2
REMARK VINA RESULT: -6.841979369      0.851      1.029
REMARK  5 active torsions:
REMARK  status: ('A' for Active; 'I' for Inactive)
REMARK    1  A    between atoms: C5_10  and  C6_11
REMARK    2  A    between atoms: C6_11  and  N3_12
REMARK       I    between atoms: N3_12  and  C7_14
REMARK    3  A    between atoms: C7_14  and  C8_16
REMARK    4  A    between atoms: C8_16  and  C9_17
REMARK    5  A    between atoms: N4_20  and  C12_21
ROOT
HETATM    1  C6  UNL     1      42.222  -2.799  32.164  1.00  0.00     0.068 C
ENDROOT
BRANCH   1   2
HETATM    2  C5  UNL     1      42.489  -3.224  30.779  1.00  0.00     0.024 C
HETATM    3  C4  UNL     1      42.284  -2.271  29.669  1.00  0.00     0.014 C
HETATM    4  C3  UNL     1      42.256  -3.127  28.372  1.00  0.00     0.054 C
HETATM    5  C2  UNL     1      43.616  -3.723  28.223  1.00  0.00     0.108 C
HETATM    6  N2  UNL     1      43.748  -4.380  26.938  1.00  0.00    -0.336 N
HETATM    7  C18 UNL     1      44.028  -4.573  29.401  1.00  0.00     0.054 C
HETATM    8  N5  UNL     1      44.610  -2.799  27.741  1.00  0.00    -0.336 N
HETATM    9  C1  UNL     1      44.257  -3.159  26.418  1.00  0.00     0.172 C
ATOM     10  H2  UNL     1      43.558  -5.312  26.568  1.00  0.00     0.165 HD
HETATM   11  N1  UNL     1      44.336  -2.643  25.224  1.00  0.00    -0.371 N
ATOM     12  H12 UNL     1      44.081  -2.902  24.270  1.00  0.00     0.159 HD
ATOM     13  H11 UNL     1      44.701  -1.766  24.852  1.00  0.00     0.159 HD
HETATM   14  C17 UNL     1      43.912  -3.774  30.654  1.00  0.00     0.014 C
ATOM     15  H5  UNL     1      45.280  -2.160  28.169  1.00  0.00     0.165 HD
ENDBRANCH   1   2
BRANCH   1  16
HETATM   16  N3  UNL     1      43.182  -2.076  32.900  1.00  0.00    -0.340 N
HETATM   17  C7  UNL     1      43.629  -0.770  32.795  1.00  0.00     0.221 C
HETATM   18  O1  UNL     1      43.215   0.054  31.971  1.00  0.00    -0.273 OA
ATOM     19  H3  UNL     1      43.627  -2.611  33.645  1.00  0.00     0.167 HD
BRANCH  17  20
HETATM   20  C8  UNL     1      44.701  -0.269  33.732  1.00  0.00     0.108 C
BRANCH  20  21
HETATM   21  C9  UNL     1      44.124   0.506  34.887  1.00  0.00     0.000 C
HETATM   22  C10 UNL     1      44.894   0.371  36.152  1.00  0.00     0.049 C
HETATM   23  C11 UNL     1      45.499   1.636  36.681  1.00  0.00     0.059 C
HETATM   24  N4  UNL     1      44.733   2.810  36.573  1.00  0.00    -0.389 N
HETATM   25  C15 UNL     1      43.683   2.838  35.616  1.00  0.00     0.122 C
HETATM   26  C16 UNL     1      43.991   1.941  34.436  1.00  0.00     0.025 C
BRANCH  24  27
HETATM   27  C12 UNL     1      44.487   3.580  37.736  1.00  0.00     0.083 A
HETATM   28  C13 UNL     1      43.210   3.513  38.483  1.00  0.00     0.027 A
HETATM   29  C14 UNL     1      43.668   4.808  37.797  1.00  0.00     0.027 A
ENDBRANCH  24  27
ENDBRANCH  20  21
ENDBRANCH  17  20
ENDBRANCH   1  16
TORSDOF 5
ENDMDL