MODEL 3
REMARK VINA RESULT: -6.331759283      1.052      1.649
REMARK  5 active torsions:
REMARK  status: ('A' for Active; 'I' for Inactive)
REMARK    1  A    between atoms: N1_2  and  N2_3
REMARK       I    between atoms: N2_3  and  C2_5
REMARK    2  A    between atoms: C2_5  and  C3_7
REMARK       I    between atoms: N3_13  and  C9_14
REMARK       I    between atoms: C9_14  and  N4_16
REMARK    3  A    between atoms: N4_16  and  C10_18
REMARK    4  A    between atoms: C10_18  and  C11_19
REMARK    5  A    between atoms: C11_19  and  C12_20
ROOT
HETATM    1  C3  UNL     1      41.802  -2.551  30.173  1.00  0.00     0.115 C
HETATM    2  C4  UNL     1      41.032  -1.272  29.918  1.00  0.00     0.049 C
HETATM    3  C5  UNL     1      40.789  -3.605  30.491  1.00  0.00     0.041 C
HETATM    4  C6  UNL     1      41.318  -4.822  31.183  1.00  0.00     0.004 C
HETATM    5  C7  UNL     1      42.379  -4.493  32.196  1.00  0.00     0.020 C
HETATM    6  C8  UNL     1      43.483  -3.634  31.577  1.00  0.00     0.129 C
HETATM    7  N3  UNL     1      42.826  -2.369  31.185  1.00  0.00    -0.316 N
HETATM    8  C9  UNL     1      43.204  -1.183  31.809  1.00  0.00     0.319 C
HETATM    9  O2  UNL     1      42.604  -0.109  31.610  1.00  0.00    -0.247 OA
HETATM   10  N4  UNL     1      44.304  -1.144  32.705  1.00  0.00    -0.343 N
ATOM     11  H4  UNL     1      44.840  -1.990  32.899  1.00  0.00     0.164 HD
ENDROOT
BRANCH   1  12
HETATM   12  C2  UNL     1      42.528  -2.828  28.882  1.00  0.00     0.261 C
HETATM   13  N2  UNL     1      43.643  -2.098  28.445  1.00  0.00    -0.272 N
ATOM     14  H2  UNL     1      44.017  -1.341  29.017  1.00  0.00     0.185 HD
HETATM   15  O1  UNL     1      42.104  -3.771  28.146  1.00  0.00    -0.269 OA
BRANCH  13  16
HETATM   16  N1  UNL     1      44.243  -2.416  27.209  1.00  0.00    -0.143 NA
HETATM   17  C1  UNL     1      44.437  -1.146  26.501  1.00  0.00     0.159 C
ENDBRANCH  13  16
ENDBRANCH   1  12
BRANCH  10  18
HETATM   18  C10 UNL     1      44.664   0.134  33.355  1.00  0.00     0.125 C
BRANCH  18  19
HETATM   19  C11 UNL     1      45.244  -0.198  34.703  1.00  0.00     0.024 C
BRANCH  19  20
HETATM   20  C12 UNL     1      44.653   0.648  35.830  1.00  0.00    -0.013 C
HETATM   21  C13 UNL     1      45.789   1.189  36.609  1.00  0.00     0.005 C
HETATM   22  C14 UNL     1      45.289   2.220  37.587  1.00  0.00     0.000 C
HETATM   23  C15 UNL     1      44.728   3.344  36.778  1.00  0.00     0.000 C
HETATM   24  C16 UNL     1      43.647   2.966  35.819  1.00  0.00     0.000 C
HETATM   25  C17 UNL     1      43.628   1.588  35.332  1.00  0.00     0.005 C
ENDBRANCH  19  20
ENDBRANCH  18  19
ENDBRANCH  10  18
TORSDOF 5
ENDMDL