MODEL 3
REMARK VINA RESULT: -5.689422245      1.247      1.420
REMARK  7 active torsions:
REMARK  status: ('A' for Active; 'I' for Inactive)
REMARK    1  A    between atoms: C2_2  and  C3_3
REMARK    2  A    between atoms: C3_3  and  C4_4
REMARK    3  A    between atoms: C4_4  and  N1_5
REMARK    4  A    between atoms: N1_5  and  C5_7
REMARK    5  A    between atoms: C5_7  and  N2_9
REMARK    6  A    between atoms: N2_9  and  C6_11
REMARK    7  A    between atoms: C6_11  and  C7_12
ROOT
HETATM    1  C7  UNL     1      43.964  -0.926  33.961  1.00  0.00     0.079 C
HETATM    2  N3  UNL     1      44.496   0.184  34.456  1.00  0.00    -0.380 N
HETATM    3  C8  UNL     1      43.917   1.453  34.643  1.00  0.00     0.090 C
HETATM    4  C9  UNL     1      42.554   1.488  35.156  1.00  0.00     0.026 C
HETATM    5  C10 UNL     1      42.342   2.169  36.489  1.00  0.00     0.002 C
HETATM    6  C11 UNL     1      42.512   1.133  37.571  1.00  0.00     0.001 C
HETATM    7  C12 UNL     1      43.898   0.546  37.497  1.00  0.00     0.010 C
HETATM    8  C13 UNL     1      44.928   1.475  36.989  1.00  0.00     0.032 C
HETATM    9  C14 UNL     1      46.263   1.099  37.619  1.00  0.00     0.060 C
HETATM   10  N4  UNL     1      47.193   0.516  36.737  1.00  0.00    -0.400 N
ATOM     11  H4  UNL     1      48.197   0.628  36.878  1.00  0.00     0.158 HD
HETATM   12  C15 UNL     1      46.677  -0.242  35.634  1.00  0.00     0.144 C
HETATM   13  C16 UNL     1      45.782   0.577  34.788  1.00  0.00     0.108 C
HETATM   14  C17 UNL     1      45.067   1.711  35.561  1.00  0.00     0.042 C
ENDROOT
BRANCH   1  15
HETATM   15  C6  UNL     1      43.656  -0.858  32.475  1.00  0.00     0.166 C
BRANCH  15  16
HETATM   16  N2  UNL     1      42.234  -0.730  32.296  1.00  0.00    -0.363 N
ATOM     17  H2  UNL     1      41.613  -0.703  33.105  1.00  0.00     0.162 HD
BRANCH  16  18
HETATM   18  C5  UNL     1      41.705  -0.644  30.984  1.00  0.00     0.167 C
HETATM   19  S1  UNL     1      40.086  -0.561  30.788  1.00  0.00    -0.041 SA
BRANCH  18  20
HETATM   20  N1  UNL     1      42.618  -0.607  29.901  1.00  0.00    -0.367 N
ATOM     21  H1  UNL     1      43.145   0.248  29.724  1.00  0.00     0.161 HD
BRANCH  20  22
HETATM   22  C4  UNL     1      42.820  -1.740  29.050  1.00  0.00     0.122 C
BRANCH  22  23
HETATM   23  C3  UNL     1      44.241  -1.793  28.591  1.00  0.00     0.019 C
BRANCH  23  24
HETATM   24  C2  UNL     1      44.379  -1.126  27.216  1.00  0.00    -0.003 C
HETATM   25  C1  UNL     1      44.805  -2.135  26.184  1.00  0.00     0.005 C
ENDBRANCH  23  24
ENDBRANCH  22  23
ENDBRANCH  20  22
ENDBRANCH  18  20
ENDBRANCH  16  18
ENDBRANCH  15  16
ENDBRANCH   1  15
TORSDOF 7
ENDMDL