MODEL 1
REMARK VINA RESULT: -6.762678043      0.000      0.000
REMARK  4 active torsions:
REMARK  status: ('A' for Active; 'I' for Inactive)
REMARK    1  A    between atoms: N1_2  and  C2_4
REMARK    2  A    between atoms: C7_13  and  C8_14
REMARK    3  A    between atoms: C8_14  and  N3_15
REMARK       I    between atoms: N3_15  and  C9_17
REMARK       I    between atoms: C9_17  and  N4_19
REMARK    4  A    between atoms: N4_19  and  C10_21
ROOT
HETATM    1  C2  UNL     1      44.027  -0.153  35.335  1.00  0.00     0.064 A
HETATM    2  C3  UNL     1      44.878   0.025  36.388  1.00  0.00     0.060 A
HETATM    3 BR1  UNL     1      44.261  -0.425  38.148  1.00  0.00    -0.047 Br
HETATM    4  C4  UNL     1      46.165   0.516  36.237  1.00  0.00     0.028 A
HETATM    5  C5  UNL     1      47.072   0.703  37.397  1.00  0.00     0.070 C
HETATM    6  N2  UNL     1      46.586   0.828  35.009  1.00  0.00    -0.325 N
ATOM      7  H2  UNL     1      47.529   1.192  34.871  1.00  0.00     0.169 HD
HETATM    8  C6  UNL     1      45.757   0.659  33.939  1.00  0.00     0.259 A
HETATM    9  O1  UNL     1      46.248   0.977  32.801  1.00  0.00    -0.267 OA
HETATM   10  C7  UNL     1      44.481   0.177  34.051  1.00  0.00     0.075 A
ENDROOT
BRANCH  10  11
HETATM   11  C8  UNL     1      43.531  -0.087  32.965  1.00  0.00     0.112 C
BRANCH  11  12
HETATM   12  N3  UNL     1      43.928  -0.878  31.868  1.00  0.00    -0.318 N
HETATM   13  C9  UNL     1      43.312  -0.952  30.593  1.00  0.00     0.320 C
HETATM   14  O2  UNL     1      42.273  -0.252  30.410  1.00  0.00    -0.247 OA
HETATM   15  N4  UNL     1      43.805  -1.763  29.536  1.00  0.00    -0.338 N
ATOM     16  H4  UNL     1      44.643  -2.324  29.688  1.00  0.00     0.164 HD
ATOM     17  H3  UNL     1      44.751  -1.465  32.007  1.00  0.00     0.170 HD
BRANCH  15  18
HETATM   18  C10 UNL     1      43.148  -1.812  28.247  1.00  0.00     0.086 C
HETATM   19  C11 UNL     1      42.900  -3.250  27.896  1.00  0.00     0.025 C
HETATM   20  C12 UNL     1      43.258  -3.544  26.463  1.00  0.00     0.002 C
HETATM   21  C13 UNL     1      44.738  -3.217  26.334  1.00  0.00     0.000 C
HETATM   22  C14 UNL     1      44.918  -1.732  26.454  1.00  0.00     0.002 C
HETATM   23  C15 UNL     1      43.863  -1.026  27.210  1.00  0.00     0.025 C
ENDBRANCH  15  18
ENDBRANCH  11  12
ENDBRANCH  10  11
BRANCH   1  24
HETATM   24  N1  UNL     1      42.716  -0.660  35.484  1.00  0.00    -0.392 N
HETATM   25  C1  UNL     1      41.628   0.222  35.802  1.00  0.00     0.146 C
ATOM     26  H1  UNL     1      42.542  -1.658  35.365  1.00  0.00     0.159 HD
ENDBRANCH   1  24
TORSDOF 4
ENDMDL