MODEL 2
REMARK VINA RESULT: -6.703046347      0.578      1.241
REMARK  5 active torsions:
REMARK  status: ('A' for Active; 'I' for Inactive)
REMARK    1  A    between atoms: C5_5  and  N1_6
REMARK    2  A    between atoms: N1_6  and  C6_8
REMARK    3  A    between atoms: C6_8  and  N2_10
REMARK    4  A    between atoms: N2_10  and  C7_12
REMARK    5  A    between atoms: C7_12  and  C8_13
ROOT
HETATM    1  N2  UNL     1      42.844  -0.874  29.386  1.00  0.00    -0.363 N
ATOM      2  H2  UNL     1      42.707  -0.197  28.635  1.00  0.00     0.162 HD
ENDROOT
BRANCH   1   3
HETATM    3  C6  UNL     1      42.264  -0.602  30.658  1.00  0.00     0.168 C
HETATM    4  S1  UNL     1      40.769  -1.218  31.007  1.00  0.00    -0.041 SA
BRANCH   3   5
HETATM    5  N1  UNL     1      42.878   0.183  31.653  1.00  0.00    -0.363 N
ATOM      6  H1  UNL     1      42.816   1.198  31.564  1.00  0.00     0.162 HD
BRANCH   5   7
HETATM    7  C5  UNL     1      43.586  -0.348  32.786  1.00  0.00     0.083 C
HETATM    8  C4  UNL     1      42.937   0.048  34.100  1.00  0.00     0.025 C
HETATM    9  C3  UNL     1      43.893  -0.386  35.218  1.00  0.00     0.006 C
HETATM   10  C2  UNL     1      44.979   0.658  35.277  1.00  0.00    -0.019 C
HETATM   11  C1  UNL     1      46.267   0.154  35.836  1.00  0.00     0.010 C
HETATM   12  C14 UNL     1      45.187   1.213  33.903  1.00  0.00     0.006 C
HETATM   13  C13 UNL     1      45.010   0.179  32.820  1.00  0.00     0.025 C
ENDBRANCH   5   7
ENDBRANCH   3   5
ENDBRANCH   1   3
BRANCH   1  14
HETATM   14  C7  UNL     1      43.613  -2.053  29.109  1.00  0.00     0.164 C
BRANCH  14  15
HETATM   15  C8  UNL     1      43.711  -2.394  27.669  1.00  0.00     0.004 A
HETATM   16  C9  UNL     1      43.800  -1.431  26.707  1.00  0.00     0.033 A
HETATM   17  C10 UNL     1      43.876  -1.824  25.379  1.00  0.00     0.027 A
HETATM   18 BR1  UNL     1      43.999  -0.484  24.055  1.00  0.00    -0.050 Br
HETATM   19  C11 UNL     1      43.857  -3.163  25.069  1.00  0.00     0.108 A
HETATM   20  N3  UNL     1      43.769  -4.123  25.991  1.00  0.00    -0.351 N
HETATM   21  C12 UNL     1      43.697  -3.742  27.289  1.00  0.00     0.106 A
ATOM     22  H3  UNL     1      43.756  -5.108  25.728  1.00  0.00     0.166 HD
HETATM   23  N4  UNL     1      43.602  -4.611  28.234  1.00  0.00    -0.385 N
ATOM     24  H42 UNL     1      43.547  -4.324  29.212  1.00  0.00     0.157 HD
ATOM     25  H41 UNL     1      43.591  -5.592  27.958  1.00  0.00     0.157 HD
ENDBRANCH  14  15
ENDBRANCH   1  14
TORSDOF 5
ENDMDL