MODEL 4
REMARK VINA RESULT: -6.540218693      0.952      1.437
REMARK  4 active torsions:
REMARK  status: ('A' for Active; 'I' for Inactive)
REMARK       I    between atoms: N1_5  and  C4_6
REMARK       I    between atoms: C4_6  and  N2_8
REMARK    1  A    between atoms: N2_8  and  C5_10
REMARK    2  A    between atoms: C5_10  and  C6_11
REMARK    3  A    between atoms: C5_10  and  C12_17
REMARK    4  A    between atoms: C18_27  and  N5_28
ROOT
HETATM    1  C1  UNL     1      42.463  -0.521  30.520  1.00  0.00     0.041 C
HETATM    2  C2  UNL     1      42.553  -1.883  29.912  1.00  0.00     0.094 C
HETATM    3 CL1  UNL     1      40.891  -2.489  29.663  1.00  0.00    -0.111 Cl
HETATM    4  C3  UNL     1      43.371  -2.847  30.748  1.00  0.00     0.159 C
HETATM    5  N1  UNL     1      43.157  -4.164  30.175  1.00  0.00    -0.328 N
HETATM    6  C4  UNL     1      42.736  -5.274  30.948  1.00  0.00     0.319 C
HETATM    7  O1  UNL     1      42.550  -5.088  32.169  1.00  0.00    -0.247 OA
HETATM    8  N2  UNL     1      42.517  -6.555  30.430  1.00  0.00    -0.338 N
ATOM      9  H2  UNL     1      42.671  -6.684  29.429  1.00  0.00     0.164 HD
HETATM   10  C15 UNL     1      43.391  -4.318  28.756  1.00  0.00     0.172 C
HETATM   11  C16 UNL     1      43.594  -3.055  28.044  1.00  0.00     0.031 A
HETATM   12  C17 UNL     1      43.198  -1.846  28.573  1.00  0.00     0.062 A
HETATM   13  N3  UNL     1      43.511  -0.896  27.706  1.00  0.00    -0.301 N
ATOM     14  H3  UNL     1      43.338   0.101  27.828  1.00  0.00     0.186 HD
HETATM   15  N4  UNL     1      44.079  -1.450  26.665  1.00  0.00    -0.285 N
ATOM     16  H4  UNL     1      44.415  -0.937  25.850  1.00  0.00     0.188 HD
HETATM   17  C18 UNL     1      44.159  -2.780  26.813  1.00  0.00     0.123 A
ENDROOT
BRANCH   8  18
HETATM   18  C5  UNL     1      42.082  -7.735  31.199  1.00  0.00     0.094 C
BRANCH  18  19
HETATM   19  C6  UNL     1      43.235  -8.623  31.304  1.00  0.00     0.009 C
HETATM   20  C7  UNL     1      42.635 -10.031  31.060  1.00  0.00     0.007 C
HETATM   21  C8  UNL     1      43.652 -11.073  30.842  1.00  0.00     0.000 C
HETATM   22  C9  UNL     1      44.978 -10.619  31.371  1.00  0.00     0.000 C
HETATM   23  C10 UNL     1      45.406  -9.518  30.416  1.00  0.00     0.000 C
HETATM   24  C11 UNL     1      44.395  -8.395  30.387  1.00  0.00     0.007 C
ENDBRANCH  18  19
BRANCH  18  25
HETATM   25  C12 UNL     1      40.779  -8.083  30.703  1.00  0.00     0.009 A
HETATM   26  C13 UNL     1      39.650  -7.240  30.338  1.00  0.00     0.007 A
HETATM   27  C14 UNL     1      39.560  -8.003  31.612  1.00  0.00     0.007 A
ENDBRANCH  18  25
ENDBRANCH   8  18
BRANCH  17  28
HETATM   28  N5  UNL     1      44.670  -3.587  25.952  1.00  0.00    -0.384 N
ATOM     29  H52 UNL     1      44.204  -4.413  25.579  1.00  0.00     0.157 HD
ATOM     30  H51 UNL     1      45.585  -3.558  25.502  1.00  0.00     0.157 HD
ENDBRANCH  17  28
TORSDOF 4
ENDMDL