MODEL 1
REMARK VINA RESULT: -6.854588618      0.000      0.000
REMARK  3 active torsions:
REMARK  status: ('A' for Active; 'I' for Inactive)
REMARK    1  A    between atoms: C6_12  and  C7_13
REMARK    2  A    between atoms: C7_13  and  N3_14
REMARK       I    between atoms: N3_14  and  C8_16
REMARK       I    between atoms: C8_16  and  N4_18
REMARK    3  A    between atoms: N4_18  and  C9_20
ROOT
HETATM    1  N3  UNL     1      42.851   0.074  31.068  1.00  0.00    -0.318 N
ATOM      2  H3  UNL     1      43.139   0.892  30.532  1.00  0.00     0.170 HD
HETATM    3  C8  UNL     1      43.192  -0.050  32.489  1.00  0.00     0.320 C
HETATM    4  O1  UNL     1      42.823  -1.068  33.122  1.00  0.00    -0.247 OA
HETATM    5  N4  UNL     1      43.923   0.950  33.150  1.00  0.00    -0.331 N
ATOM      6  H4  UNL     1      44.223   1.778  32.636  1.00  0.00     0.165 HD
ENDROOT
BRANCH   1   7
HETATM    7  C7  UNL     1      42.110  -0.973  30.456  1.00  0.00     0.108 C
BRANCH   7   8
HETATM    8  C6  UNL     1      42.711  -1.926  29.573  1.00  0.00     0.030 A
HETATM    9  C2  UNL     1      42.575  -3.276  29.979  1.00  0.00    -0.028 A
HETATM   10  C1  UNL     1      41.856  -3.549  31.220  1.00  0.00     0.050 C
HETATM   11  C3  UNL     1      43.094  -4.310  29.248  1.00  0.00     0.033 A
HETATM   12 BR1  UNL     1      42.899  -6.130  29.811  1.00  0.00    -0.049 Br
HETATM   13  C4  UNL     1      43.768  -4.015  28.082  1.00  0.00     0.109 A
HETATM   14  N1  UNL     1      43.913  -2.762  27.672  1.00  0.00    -0.351 N
HETATM   15  C5  UNL     1      43.387  -1.705  28.413  1.00  0.00     0.111 A
ATOM     16  H1  UNL     1      44.416  -2.570  26.806  1.00  0.00     0.166 HD
HETATM   17  N2  UNL     1      43.585  -0.604  27.939  1.00  0.00    -0.385 N
ATOM     18  H22 UNL     1      44.092  -0.438  27.069  1.00  0.00     0.157 HD
ATOM     19  H21 UNL     1      43.201   0.170  28.482  1.00  0.00     0.157 HD
ENDBRANCH   7   8
ENDBRANCH   1   7
BRANCH   5  20
HETATM   20  C9  UNL     1      44.250   0.820  34.534  1.00  0.00     0.156 C
HETATM   21  C10 UNL     1      43.835   2.015  35.359  1.00  0.00     0.033 C
HETATM   22  C11 UNL     1      44.990   2.662  36.079  1.00  0.00     0.007 C
HETATM   23  C12 UNL     1      45.831   1.709  36.861  1.00  0.00    -0.012 C
HETATM   24  C13 UNL     1      45.236   1.314  38.184  1.00  0.00     0.010 C
HETATM   25  C14 UNL     1      46.225   0.471  36.101  1.00  0.00     0.084 C
HETATM   26  C15 UNL     1      45.696   0.593  34.732  1.00  0.00     0.149 C
HETATM   27  O2  UNL     1      46.441   0.508  33.791  1.00  0.00    -0.296 OA
ENDBRANCH   5  20
TORSDOF 3
ENDMDL