MODEL 5
REMARK VINA RESULT: -6.433209753      2.632      3.571
REMARK  4 active torsions:
REMARK  status: ('A' for Active; 'I' for Inactive)
REMARK    1  A    between atoms: N1_1  and  C1_4
REMARK    2  A    between atoms: C3_8  and  C4_9
REMARK    3  A    between atoms: C7_12  and  C8_13
REMARK       I    between atoms: C8_13  and  N3_15
REMARK    4  A    between atoms: N3_15  and  C9_17
ROOT
HETATM    1  C4  UNL     1      42.135  -3.075  29.132  1.00  0.00     0.018 C
HETATM    2  C5  UNL     1      40.641  -3.099  28.800  1.00  0.00     0.018 C
HETATM    3  C6  UNL     1      40.084  -2.675  30.162  1.00  0.00     0.020 C
HETATM    4  C7  UNL     1      41.198  -2.030  30.912  1.00  0.00     0.043 C
HETATM    5  C14 UNL     1      41.998  -3.156  31.555  1.00  0.00     0.036 C
HETATM    6  C15 UNL     1      42.312  -3.979  30.290  1.00  0.00     0.073 C
HETATM    7 BR1  UNL     1      44.004  -4.827  30.469  1.00  0.00    -0.090 Br
HETATM    8  C16 UNL     1      42.179  -1.687  29.789  1.00  0.00     0.036 C
ENDROOT
BRANCH   1   9
HETATM    9  C3  UNL     1      42.974  -3.219  27.974  1.00  0.00     0.052 A
HETATM   10  C2  UNL     1      43.913  -2.252  27.568  1.00  0.00     0.132 A
HETATM   11  N2  UNL     1      44.522  -2.696  26.468  1.00  0.00    -0.200 N
HETATM   12  C1  UNL     1      43.999  -3.905  26.170  1.00  0.00     0.675 A
ATOM     13  H2  UNL     1      45.251  -2.209  25.947  1.00  0.00     0.183 HD
HETATM   14  N4  UNL     1      43.050  -4.208  27.108  1.00  0.00    -0.194 N
ATOM     15  H4  UNL     1      42.492  -5.062  27.132  1.00  0.00     0.184 HD
BRANCH  12  16
HETATM   16  N1  UNL     1      44.355  -4.611  25.171  1.00  0.00    -0.234 N
ATOM     17  H12 UNL     1      44.672  -4.280  24.259  1.00  0.00     0.174 HD
ATOM     18  H11 UNL     1      44.371  -5.631  25.168  1.00  0.00     0.174 HD
ENDBRANCH  12  16
ENDBRANCH   1   9
BRANCH   4  19
HETATM   19  C8  UNL     1      40.866  -0.948  31.794  1.00  0.00     0.226 C
HETATM   20  O1  UNL     1      41.743  -0.107  32.117  1.00  0.00    -0.273 OA
HETATM   21  N3  UNL     1      39.579  -0.785  32.321  1.00  0.00    -0.356 N
ATOM     22  H3  UNL     1      38.863  -1.466  32.065  1.00  0.00     0.162 HD
BRANCH  21  23
HETATM   23  C9  UNL     1      39.206   0.303  33.215  1.00  0.00     0.084 C
HETATM   24  C10 UNL     1      38.458  -0.159  34.419  1.00  0.00     0.025 C
HETATM   25  C11 UNL     1      37.001  -0.013  34.148  1.00  0.00     0.002 C
HETATM   26  C12 UNL     1      36.867   0.771  32.890  1.00  0.00     0.002 C
HETATM   27  C13 UNL     1      38.258   1.276  32.556  1.00  0.00     0.025 C
ENDBRANCH  21  23
ENDBRANCH   4  19
TORSDOF 4
ENDMDL