MODEL 1
REMARK VINA RESULT: -7.093515638      0.000      0.000
REMARK  6 active torsions:
REMARK  status: ('A' for Active; 'I' for Inactive)
REMARK    1  A    between atoms: N1_2  and  C2_4
REMARK    2  A    between atoms: C2_4  and  N2_6
REMARK    3  A    between atoms: N2_6  and  C3_8
REMARK    4  A    between atoms: C5_10  and  N3_11
REMARK       I    between atoms: N3_11  and  C6_13
REMARK       I    between atoms: C6_13  and  N5_19
REMARK    5  A    between atoms: N4_14  and  C7_16
REMARK    6  A    between atoms: N5_19  and  C10_21
ROOT
HETATM    1  N3  UNL     1      42.771  -0.402  29.753  1.00  0.00    -0.177 N
ATOM      2  H3  UNL     1      43.458   0.340  29.882  1.00  0.00     0.185 HD
HETATM    3  C6  UNL     1      41.618  -0.387  30.589  1.00  0.00     0.676 C
HETATM    4  N4  UNL     1      41.813  -0.612  31.823  1.00  0.00    -0.222 N
ATOM      5  H4  UNL     1      40.978  -0.597  32.409  1.00  0.00     0.178 HD
HETATM    6  N5  UNL     1      40.315  -0.130  30.075  1.00  0.00    -0.222 N
ATOM      7  H5  UNL     1      40.259   0.420  29.218  1.00  0.00     0.178 HD
ENDROOT
BRANCH   1   8
HETATM    8  C5  UNL     1      43.003  -1.268  28.865  1.00  0.00     0.123 A
HETATM    9  C4  UNL     1      42.640  -2.603  29.075  1.00  0.00     0.082 A
HETATM   10  C3  UNL     1      42.855  -3.607  28.167  1.00  0.00     0.078 A
HETATM   11  C17 UNL     1      43.482  -3.184  26.977  1.00  0.00     0.158 A
HETATM   12  C16 UNL     1      43.838  -1.873  26.770  1.00  0.00     0.134 A
HETATM   13  F1  UNL     1      43.738  -4.122  26.019  1.00  0.00    -0.202 F
HETATM   14  N6  UNL     1      43.595  -0.936  27.712  1.00  0.00    -0.349 N
ATOM     15  H6  UNL     1      43.865   0.033  27.543  1.00  0.00     0.167 HD
BRANCH  10  16
HETATM   16  N2  UNL     1      42.486  -4.955  28.287  1.00  0.00    -0.331 N
ATOM     17  H2  UNL     1      42.597  -5.469  27.413  1.00  0.00     0.168 HD
BRANCH  16  18
HETATM   18  C2  UNL     1      42.011  -5.747  29.308  1.00  0.00     0.171 C
HETATM   19  S1  UNL     1      43.199  -6.493  30.243  1.00  0.00    -0.041 SA
BRANCH  18  20
HETATM   20  N1  UNL     1      40.700  -6.018  29.675  1.00  0.00    -0.371 N
HETATM   21  C1  UNL     1      40.161  -5.423  30.929  1.00  0.00     0.148 C
ATOM     22  H1  UNL     1      40.113  -6.616  29.093  1.00  0.00     0.161 HD
ENDBRANCH  18  20
ENDBRANCH  16  18
ENDBRANCH  10  16
ENDBRANCH   1   8
BRANCH   4  23
HETATM   23  C7  UNL     1      43.034  -0.883  32.503  1.00  0.00     0.091 C
HETATM   24  C8  UNL     1      42.935  -2.077  33.436  1.00  0.00     0.032 C
HETATM   25  C9  UNL     1      43.641   0.301  33.205  1.00  0.00     0.032 C
ENDBRANCH   4  23
BRANCH   6  26
HETATM   26  C10 UNL     1      39.083  -0.567  30.643  1.00  0.00     0.099 C
HETATM   27  C11 UNL     1      38.655   0.453  31.710  1.00  0.00     0.026 C
HETATM   28  C12 UNL     1      37.267   0.206  32.201  1.00  0.00     0.002 C
HETATM   29  C13 UNL     1      37.252  -1.156  32.860  1.00  0.00     0.000 C
HETATM   30  C14 UNL     1      37.786  -2.197  31.941  1.00  0.00     0.002 C
HETATM   31  C15 UNL     1      39.157  -1.885  31.378  1.00  0.00     0.026 C
ENDBRANCH   6  26
TORSDOF 6
ENDMDL