MODEL 4
REMARK VINA RESULT: -6.272923432      4.139      5.599
REMARK  5 active torsions:
REMARK  status: ('A' for Active; 'I' for Inactive)
REMARK    1  A    between atoms: C2_2  and  N1_5
REMARK       I    between atoms: N1_5  and  C5_7
REMARK       I    between atoms: C5_7  and  N2_9
REMARK    2  A    between atoms: N2_9  and  C6_11
REMARK    3  A    between atoms: C7_16  and  N5_17
REMARK    4  A    between atoms: N5_17  and  C8_19
REMARK    5  A    between atoms: C8_19  and  C9_20
ROOT
HETATM    1  C6  UNL     1      42.114  -1.248  31.141  1.00  0.00     0.145 A
HETATM    2  N3  UNL     1      42.403  -0.185  30.365  1.00  0.00    -0.283 N
ATOM      3  H3  UNL     1      42.396   0.792  30.660  1.00  0.00     0.188 HD
HETATM    4  N4  UNL     1      42.698  -0.630  29.151  1.00  0.00    -0.283 N
ATOM      5  H4  UNL     1      42.956  -0.045  28.357  1.00  0.00     0.188 HD
HETATM    6  C7  UNL     1      42.604  -1.992  29.129  1.00  0.00     0.137 A
HETATM    7  C14 UNL     1      42.238  -2.385  30.377  1.00  0.00     0.101 A
HETATM    8 BR1  UNL     1      41.943  -4.174  30.978  1.00  0.00    -0.043 Br
ENDROOT
BRANCH   1   9
HETATM    9  N2  UNL     1      41.772  -1.259  32.404  1.00  0.00    -0.292 N
HETATM   10  C5  UNL     1      42.283  -0.304  33.319  1.00  0.00     0.322 C
HETATM   11  N1  UNL     1      43.668  -0.227  33.534  1.00  0.00    -0.335 N
HETATM   12  O1  UNL     1      41.466   0.444  33.909  1.00  0.00    -0.247 OA
ATOM     13  H1  UNL     1      44.273  -0.868  33.021  1.00  0.00     0.165 HD
ATOM     14  H2  UNL     1      41.124  -1.972  32.738  1.00  0.00     0.172 HD
BRANCH  11  15
HETATM   15  C2  UNL     1      44.283   0.717  34.452  1.00  0.00     0.023 C
HETATM   16  C1  UNL     1      45.788   0.634  34.187  1.00  0.00     0.037 C
HETATM   17  C3  UNL     1      43.843   2.130  34.217  1.00  0.00     0.037 C
HETATM   18  C4  UNL     1      44.084   0.267  35.880  1.00  0.00     0.037 C
ENDBRANCH  11  15
ENDBRANCH   1   9
BRANCH   6  19
HETATM   19  N5  UNL     1      42.848  -2.802  28.008  1.00  0.00    -0.373 N
ATOM     20  H5  UNL     1      42.064  -3.074  27.414  1.00  0.00     0.161 HD
BRANCH  19  21
HETATM   21  C8  UNL     1      44.152  -3.256  27.673  1.00  0.00     0.129 C
BRANCH  21  22
HETATM   22  C9  UNL     1      44.655  -2.766  26.358  1.00  0.00     0.026 C
HETATM   23  C10 UNL     1      44.149  -3.687  25.297  1.00  0.00    -0.024 C
HETATM   24  C11 UNL     1      43.825  -3.038  24.192  1.00  0.00    -0.030 C
HETATM   25  C12 UNL     1      44.088  -1.603  24.411  1.00  0.00     0.027 C
HETATM   26  C13 UNL     1      44.054  -1.448  25.911  1.00  0.00     0.014 C
ENDBRANCH  21  22
ENDBRANCH  19  21
ENDBRANCH   6  19
TORSDOF 5
ENDMDL