MODEL 5
REMARK VINA RESULT: -7.146599317      1.412      1.934
REMARK  5 active torsions:
REMARK  status: ('A' for Active; 'I' for Inactive)
REMARK    1  A    between atoms: C1_4  and  N2_5
REMARK    2  A    between atoms: C1_4  and  C17_26
REMARK    3  A    between atoms: N2_5  and  C2_7
REMARK    4  A    between atoms: C10_16  and  C11_17
REMARK    5  A    between atoms: C11_17  and  C12_18
ROOT
HETATM    1  C2  UNL     1      42.366  -2.283  30.115  1.00  0.00     0.099 C
HETATM    2  C3  UNL     1      40.882  -2.294  29.636  1.00  0.00     0.013 C
HETATM    3  C4  UNL     1      40.506  -0.898  30.067  1.00  0.00     0.012 C
HETATM    4  C5  UNL     1      41.151  -0.815  31.431  1.00  0.00    -0.000 C
HETATM    5  C6  UNL     1      40.130  -1.036  32.490  1.00  0.00     0.009 C
HETATM    6  C7  UNL     1      40.228  -2.458  32.943  1.00  0.00     0.045 C
HETATM    7  C8  UNL     1      41.065  -3.109  31.872  1.00  0.00     0.114 C
HETATM    8  F1  UNL     1      41.630  -4.285  32.285  1.00  0.00    -0.242 F
HETATM    9  C9  UNL     1      40.266  -3.242  30.592  1.00  0.00     0.051 C
HETATM   10  C10 UNL     1      42.066  -2.028  31.536  1.00  0.00     0.022 C
ENDROOT
BRANCH   1  11
HETATM   11  N2  UNL     1      42.954  -3.569  29.814  1.00  0.00    -0.369 N
ATOM     12  H2  UNL     1      43.398  -4.109  30.557  1.00  0.00     0.161 HD
BRANCH  11  13
HETATM   13  C1  UNL     1      42.917  -4.082  28.507  1.00  0.00     0.122 C
HETATM   14  N1  UNL     1      42.277  -5.176  28.288  1.00  0.00    -0.384 N
ATOM     15  H12 UNL     1      41.825  -5.613  29.090  1.00  0.00     0.157 HD
ATOM     16  H11 UNL     1      42.251  -5.549  27.339  1.00  0.00     0.157 HD
BRANCH  13  17
HETATM   17  C17 UNL     1      43.565  -3.456  27.359  1.00  0.00     0.075 A
HETATM   18  C18 UNL     1      44.244  -2.258  27.311  1.00  0.00     0.035 A
HETATM   19  C19 UNL     1      44.692  -2.063  26.005  1.00  0.00     0.019 A
HETATM   20  C20 UNL     1      44.274  -3.154  25.278  1.00  0.00     0.088 A
HETATM   21  N4  UNL     1      43.607  -3.960  26.115  1.00  0.00    -0.363 N
ATOM     22  H4  UNL     1      43.185  -4.847  25.841  1.00  0.00     0.165 HD
ENDBRANCH  13  17
ENDBRANCH  11  13
ENDBRANCH   1  11
BRANCH  10  23
HETATM   23  C11 UNL     1      43.090  -1.911  32.549  1.00  0.00     0.040 C
BRANCH  23  24
HETATM   24  C12 UNL     1      43.574  -0.620  33.039  1.00  0.00     0.085 C
HETATM   25  C13 UNL     1      43.647  -0.740  34.577  1.00  0.00     0.026 C
HETATM   26  C14 UNL     1      44.332   0.418  35.197  1.00  0.00     0.011 C
HETATM   27  C15 UNL     1      44.737   1.523  34.282  1.00  0.00     0.103 C
HETATM   28  C16 UNL     1      45.411   0.961  33.113  1.00  0.00     0.217 C
HETATM   29  O1  UNL     1      46.390   1.485  32.543  1.00  0.00    -0.274 OA
HETATM   30  N3  UNL     1      44.902  -0.281  32.590  1.00  0.00    -0.356 N
ATOM     31  H3  UNL     1      45.436  -0.872  31.955  1.00  0.00     0.162 HD
ENDBRANCH  23  24
ENDBRANCH  10  23
TORSDOF 5
ENDMDL