MODEL 2
REMARK VINA RESULT: -6.765150042      2.573      3.314
REMARK  4 active torsions:
REMARK  status: ('A' for Active; 'I' for Inactive)
REMARK    1  A    between atoms: N1_1  and  C1_4
REMARK    2  A    between atoms: C2_9  and  C3_10
REMARK    3  A    between atoms: N4_13  and  C6_14
REMARK    4  A    between atoms: C6_14  and  C7_15
ROOT
HETATM    1  C3  UNL     1      42.661  -1.721  30.402  1.00  0.00     0.042 C
HETATM    2  C4  UNL     1      43.756  -1.542  31.385  1.00  0.00     0.041 C
HETATM    3  C5  UNL     1      43.609  -0.585  32.482  1.00  0.00     0.273 C
HETATM    4  N4  UNL     1      42.357  -0.037  32.805  1.00  0.00     0.092 N
HETATM    5  C14 UNL     1      41.263  -0.506  31.974  1.00  0.00     0.273 C
HETATM    6  C15 UNL     1      41.650  -0.562  30.535  1.00  0.00     0.041 C
ENDROOT
BRANCH   1   7
HETATM    7  C2  UNL     1      43.096  -1.817  28.992  1.00  0.00     0.051 A
HETATM    8  N3  UNL     1      43.473  -0.843  28.156  1.00  0.00    -0.301 N
HETATM    9  N2  UNL     1      43.773  -1.312  26.948  1.00  0.00    -0.284 N
ATOM     10  H3  UNL     1      43.524   0.143  28.414  1.00  0.00     0.186 HD
HETATM   11  C1  UNL     1      43.582  -2.641  27.008  1.00  0.00     0.133 A
ATOM     12  H2  UNL     1      44.085  -0.773  26.140  1.00  0.00     0.188 HD
HETATM   13  C16 UNL     1      43.159  -2.998  28.265  1.00  0.00     0.080 A
HETATM   14 BR1  UNL     1      42.736  -4.719  28.971  1.00  0.00    -0.045 Br
BRANCH  11  15
HETATM   15  N1  UNL     1      43.768  -3.495  26.032  1.00  0.00    -0.383 N
ATOM     16  H12 UNL     1      44.611  -3.527  25.459  1.00  0.00     0.157 HD
ATOM     17  H11 UNL     1      43.111  -4.213  25.727  1.00  0.00     0.157 HD
ENDBRANCH  11  15
ENDBRANCH   1   7
BRANCH   4  18
HETATM   18  C6  UNL     1      41.907  -0.192  34.172  1.00  0.00     0.313 C
BRANCH  18  19
HETATM   19  C7  UNL     1      42.087   0.968  35.037  1.00  0.00    -0.006 A
HETATM   20  C8  UNL     1      41.010   1.782  35.408  1.00  0.00     0.097 A
HETATM   21  N5  UNL     1      41.431   2.802  36.123  1.00  0.00    -0.368 N
HETATM   22  C9  UNL     1      42.770   2.691  36.240  1.00  0.00     0.016 A
ATOM     23  H5  UNL     1      40.851   3.542  36.518  1.00  0.00     0.165 HD
HETATM   24  C10 UNL     1      43.197   1.568  35.580  1.00  0.00    -0.026 A
HETATM   25  C13 UNL     1      43.913   3.415  36.837  1.00  0.00     0.058 C
HETATM   26  C11 UNL     1      44.647   1.400  35.714  1.00  0.00     0.041 C
HETATM   27  C12 UNL     1      45.112   2.759  36.228  1.00  0.00     0.011 C
ENDBRANCH  18  19
ENDBRANCH   4  18
TORSDOF 4
ENDMDL