MODEL 5
REMARK VINA RESULT: -7.440876896      2.586      4.516
REMARK  5 active torsions:
REMARK  status: ('A' for Active; 'I' for Inactive)
REMARK    1  A    between atoms: C2_2  and  C3_3
REMARK    2  A    between atoms: C2_2  and  N1_5
REMARK    3  A    between atoms: C2_2  and  C9_22
REMARK       I    between atoms: N1_5  and  C4_7
REMARK       I    between atoms: C4_7  and  N2_9
REMARK    4  A    between atoms: N2_9  and  C5_11
REMARK    5  A    between atoms: C8_16  and  N4_17
ROOT
HETATM    1  N1  UNL     1      42.005  -3.654  29.914  1.00  0.00    -0.332 N
ATOM      2  H1  UNL     1      41.178  -3.573  29.324  1.00  0.00     0.165 HD
HETATM    3  C4  UNL     1      43.141  -4.089  29.259  1.00  0.00     0.322 C
HETATM    4  O1  UNL     1      44.272  -4.246  29.741  1.00  0.00    -0.247 OA
HETATM    5  N2  UNL     1      43.098  -4.426  27.836  1.00  0.00    -0.294 N
ATOM      6  H2  UNL     1      42.752  -5.331  27.516  1.00  0.00     0.172 HD
ENDROOT
BRANCH   1   7
HETATM    7  C2  UNL     1      41.793  -3.286  31.326  1.00  0.00     0.051 C
HETATM    8  C1  UNL     1      43.045  -2.396  31.663  1.00  0.00     0.040 C
BRANCH   7   9
HETATM    9  C3  UNL     1      41.970  -4.529  32.115  1.00  0.00     0.146 C
HETATM   10 CL1  UNL     1      42.864  -4.393  33.618  1.00  0.00    -0.128 Cl
ENDBRANCH   7   9
BRANCH   7  11
HETATM   11  C9  UNL     1      40.589  -2.440  31.559  1.00  0.00    -0.013 C
HETATM   12  C10 UNL     1      39.549  -3.014  32.470  1.00  0.00     0.017 C
HETATM   13  C11 UNL     1      38.409  -2.029  32.678  1.00  0.00    -0.013 C
HETATM   14  C12 UNL     1      37.765  -1.790  31.340  1.00  0.00     0.009 C
HETATM   15  C16 UNL     1      38.883  -0.798  33.365  1.00  0.00     0.009 C
HETATM   16  C13 UNL     1      38.757  -1.070  30.495  1.00  0.00    -0.013 C
HETATM   17  C14 UNL     1      39.276   0.195  31.168  1.00  0.00     0.009 C
HETATM   18  C18 UNL     1      39.999  -1.931  30.271  1.00  0.00     0.017 C
HETATM   19  C15 UNL     1      39.947  -0.186  32.445  1.00  0.00    -0.013 C
HETATM   20  C17 UNL     1      41.081  -1.163  32.288  1.00  0.00     0.017 C
ENDBRANCH   7  11
ENDBRANCH   1   7
BRANCH   5  21
HETATM   21  C5  UNL     1      43.515  -3.537  27.002  1.00  0.00     0.126 A
HETATM   22  C6  UNL     1      43.561  -2.186  27.293  1.00  0.00     0.067 A
HETATM   23  C7  UNL     1      44.013  -1.262  26.372  1.00  0.00     0.110 A
HETATM   24  N3  UNL     1      44.408  -1.753  25.177  1.00  0.00    -0.202 N
HETATM   25  C8  UNL     1      44.367  -3.065  24.886  1.00  0.00     0.677 A
ATOM     26  H3  UNL     1      44.750  -1.104  24.468  1.00  0.00     0.183 HD
HETATM   27  N5  UNL     1      43.922  -3.969  25.790  1.00  0.00    -0.177 N
ATOM     28  H5  UNL     1      43.894  -4.963  25.558  1.00  0.00     0.185 HD
BRANCH  25  29
HETATM   29  N4  UNL     1      44.742  -3.549  23.744  1.00  0.00    -0.234 N
ATOM     30  H42 UNL     1      45.119  -2.873  23.080  1.00  0.00     0.174 HD
ATOM     31  H41 UNL     1      44.672  -4.539  23.509  1.00  0.00     0.174 HD
ENDBRANCH  25  29
ENDBRANCH   5  21
TORSDOF 5
ENDMDL