MODEL 5
REMARK VINA RESULT: -6.081885500      5.411      7.699
REMARK  8 active torsions:
REMARK  status: ('A' for Active; 'I' for Inactive)
REMARK    1  A    between atoms: C1_2  and  C2_4
REMARK    2  A    between atoms: C6_8  and  C7_9
REMARK       I    between atoms: C7_9  and  N1_11
REMARK    3  A    between atoms: N1_11  and  N2_13
REMARK    4  A    between atoms: N2_13  and  C8_15
REMARK    5  A    between atoms: C8_15  and  N3_17
REMARK    6  A    between atoms: N3_17  and  C9_19
REMARK    7  A    between atoms: C9_19  and  C10_20
REMARK    8  A    between atoms: C10_20  and  C11_21
ROOT
HETATM    1  N2  UNL     1      43.724  -0.488  31.801  1.00  0.00    -0.274 N
ATOM      2  H2  UNL     1      44.534  -0.319  31.204  1.00  0.00     0.189 HD
ENDROOT
BRANCH   1   3
HETATM    3  N1  UNL     1      43.897  -0.313  33.162  1.00  0.00    -0.268 N
HETATM    4  C7  UNL     1      45.082   0.191  33.740  1.00  0.00     0.241 C
HETATM    5  O3  UNL     1      46.036   0.498  32.955  1.00  0.00    -0.271 OA
ATOM      6  H1  UNL     1      43.126  -0.561  33.783  1.00  0.00     0.190 HD
BRANCH   4   7
HETATM    7  C6  UNL     1      45.282   0.381  35.184  1.00  0.00     0.094 C
HETATM    8  C2  UNL     1      45.389   1.842  35.573  1.00  0.00     0.100 C
HETATM    9  C3  UNL     1      46.021   1.759  36.959  1.00  0.00     0.016 C
HETATM   10  C4  UNL     1      46.687   0.424  37.059  1.00  0.00     0.002 C
HETATM   11  C5  UNL     1      46.667  -0.106  35.626  1.00  0.00     0.015 C
BRANCH   8  12
HETATM   12  C1  UNL     1      44.064   2.459  35.749  1.00  0.00     0.177 C
HETATM   13  O1  UNL     1      43.973   3.584  36.274  1.00  0.00    -0.648 OA
HETATM   14  O2  UNL     1      42.936   1.792  35.334  1.00  0.00    -0.648 OA
ENDBRANCH   8  12
ENDBRANCH   4   7
ENDBRANCH   1   3
BRANCH   1  15
HETATM   15  C8  UNL     1      42.525  -0.881  31.165  1.00  0.00     0.186 C
HETATM   16  S1  UNL     1      41.266  -1.325  32.081  1.00  0.00    -0.040 SA
BRANCH  15  17
HETATM   17  N3  UNL     1      42.432  -0.868  29.765  1.00  0.00    -0.366 N
ATOM     18  H3  UNL     1      42.379   0.047  29.317  1.00  0.00     0.161 HD
BRANCH  17  19
HETATM   19  C9  UNL     1      42.402  -2.018  28.894  1.00  0.00     0.122 C
BRANCH  19  20
HETATM   20  C10 UNL     1      43.665  -2.783  28.992  1.00  0.00     0.024 C
BRANCH  20  21
HETATM   21  C11 UNL     1      44.390  -2.925  27.674  1.00  0.00    -0.013 C
HETATM   22  C12 UNL     1      44.720  -1.610  27.042  1.00  0.00     0.005 C
HETATM   23  C13 UNL     1      44.360  -1.739  25.573  1.00  0.00     0.000 C
HETATM   24  C14 UNL     1      44.328  -3.234  25.350  1.00  0.00     0.000 C
HETATM   25  C15 UNL     1      43.644  -3.703  26.643  1.00  0.00     0.005 C
ENDBRANCH  20  21
ENDBRANCH  19  20
ENDBRANCH  17  19
ENDBRANCH  15  17
ENDBRANCH   1  15
TORSDOF 8
ENDMDL