MODEL 2
REMARK VINA RESULT: -6.981719052      1.131      1.855
REMARK  5 active torsions:
REMARK  status: ('A' for Active; 'I' for Inactive)
REMARK       I    between atoms: C1_4  and  N3_6
REMARK       I    between atoms: N3_6  and  C2_7
REMARK    1  A    between atoms: C2_7  and  C3_9
REMARK    2  A    between atoms: C3_9  and  C4_10
REMARK    3  A    between atoms: C4_10  and  C5_11
REMARK       I    between atoms: C5_11  and  N4_13
REMARK    4  A    between atoms: N4_13  and  C6_15
REMARK    5  A    between atoms: C6_15  and  C7_16
ROOT
HETATM    1  C5  UNL     1      42.635  -5.708  29.268  1.00  0.00     0.218 C
HETATM    2  O2  UNL     1      41.683  -6.505  29.239  1.00  0.00    -0.274 OA
HETATM    3  N4  UNL     1      43.550  -5.660  30.374  1.00  0.00    -0.360 N
ATOM      4  H4  UNL     1      44.322  -4.994  30.409  1.00  0.00     0.162 HD
ENDROOT
BRANCH   3   5
HETATM    5  C6  UNL     1      43.311  -6.606  31.427  1.00  0.00     0.132 C
BRANCH   5   6
HETATM    6  C7  UNL     1      44.322  -7.706  31.538  1.00  0.00    -0.022 C
HETATM    7  C8  UNL     1      45.718  -7.172  31.211  1.00  0.00     0.016 C
HETATM    8  C9  UNL     1      46.737  -8.243  31.500  1.00  0.00    -0.012 C
HETATM    9  C10 UNL     1      46.553  -9.436  30.610  1.00  0.00     0.009 C
HETATM   10  C14 UNL     1      46.658  -8.703  32.937  1.00  0.00     0.030 C
HETATM   11  C11 UNL     1      45.120  -9.904  30.823  1.00  0.00    -0.012 C
HETATM   12  C12 UNL     1      44.942 -10.416  32.222  1.00  0.00     0.030 C
HETATM   13  C16 UNL     1      44.106  -8.839  30.548  1.00  0.00     0.016 C
HETATM   14  C13 UNL     1      45.302  -9.306  33.184  1.00  0.00     0.038 C
HETATM   15 CL1  UNL     1      45.223  -9.828  34.874  1.00  0.00    -0.119 Cl
HETATM   16  C15 UNL     1      44.293  -8.202  32.966  1.00  0.00     0.036 C
ENDBRANCH   5   6
ENDBRANCH   3   5
BRANCH   1  17
HETATM   17  C4  UNL     1      42.827  -4.780  28.131  1.00  0.00     0.113 C
BRANCH  17  18
HETATM   18  C3  UNL     1      43.765  -3.698  28.587  1.00  0.00     0.128 C
BRANCH  18  19
HETATM   19  C2  UNL     1      43.975  -2.633  27.509  1.00  0.00     0.294 C
HETATM   20  N3  UNL     1      44.204  -3.023  26.288  1.00  0.00    -0.338 NA
HETATM   21  C1  UNL     1      44.453  -3.446  24.962  1.00  0.00     0.264 C
HETATM   22  N1  UNL     1      44.515  -4.756  24.718  1.00  0.00    -0.362 N
HETATM   23  N2  UNL     1      44.616  -2.655  23.821  1.00  0.00    -0.049 NA
ATOM     24  H12 UNL     1      44.695  -5.062  23.762  1.00  0.00     0.159 HD
ATOM     25  H11 UNL     1      44.397  -5.334  25.551  1.00  0.00     0.159 HD
HETATM   26  O1  UNL     1      43.886  -1.449  28.020  1.00  0.00    -0.257 OA
ENDBRANCH  18  19
ENDBRANCH  17  18
ENDBRANCH   1  17
TORSDOF 5
ENDMDL