MODEL 3
REMARK VINA RESULT: -6.895648572      3.673      9.009
REMARK  7 active torsions:
REMARK  status: ('A' for Active; 'I' for Inactive)
REMARK       I    between atoms: C1_2  and  N1_3
REMARK       I    between atoms: C1_2  and  N5_21
REMARK    1  A    between atoms: N1_3  and  C2_5
REMARK    2  A    between atoms: C2_5  and  C3_6
REMARK    3  A    between atoms: N2_7  and  N3_9
REMARK    4  A    between atoms: N3_9  and  C4_11
REMARK    5  A    between atoms: C4_11  and  N4_13
REMARK    6  A    between atoms: N4_13  and  C5_15
REMARK    7  A    between atoms: N5_21  and  C11_23
ROOT
HETATM    1  C3  UNL     1      44.052   0.437  34.344  1.00  0.00     0.100 C
HETATM    2  N2  UNL     1      45.324   0.270  34.538  1.00  0.00    -0.312 N
ATOM      3  H2  UNL     1      45.805  -0.515  34.100  1.00  0.00     0.185 HD
ENDROOT
BRANCH   1   4
HETATM    4  C2  UNL     1      43.328  -0.538  33.475  1.00  0.00     0.170 C
BRANCH   4   5
HETATM    5  N1  UNL     1      43.961  -0.518  32.185  1.00  0.00    -0.338 N
HETATM    6  C1  UNL     1      43.440  -1.317  31.122  1.00  0.00     0.316 C
HETATM    7  O1  UNL     1      42.409  -2.037  31.358  1.00  0.00    -0.247 OA
HETATM    8  N5  UNL     1      44.064  -1.295  29.857  1.00  0.00    -0.338 N
ATOM      9  H5  UNL     1      44.884  -0.702  29.726  1.00  0.00     0.164 HD
ATOM     10  H1  UNL     1      44.783   0.066  32.029  1.00  0.00     0.164 HD
BRANCH   8  11
HETATM   11  C11 UNL     1      43.591  -2.077  28.744  1.00  0.00     0.088 C
HETATM   12  C12 UNL     1      43.934  -1.496  27.397  1.00  0.00     0.028 C
HETATM   13  C13 UNL     1      44.524  -2.622  26.570  1.00  0.00     0.039 C
HETATM   14  C14 UNL     1      43.995  -3.861  27.264  1.00  0.00     0.172 C
HETATM   15  F1  UNL     1      42.654  -3.973  27.011  1.00  0.00    -0.249 F
HETATM   16  C15 UNL     1      44.170  -3.487  28.719  1.00  0.00     0.062 C
ENDBRANCH   8  11
ENDBRANCH   4   5
ENDBRANCH   1   4
BRANCH   2  17
HETATM   17  N3  UNL     1      46.036   1.158  35.342  1.00  0.00    -0.277 N
ATOM     18  H3  UNL     1      46.151   2.133  35.063  1.00  0.00     0.189 HD
BRANCH  17  19
HETATM   19  C4  UNL     1      46.595   0.686  36.550  1.00  0.00     0.186 C
HETATM   20  S1  UNL     1      45.661   0.738  37.894  1.00  0.00    -0.040 SA
BRANCH  19  21
HETATM   21  N4  UNL     1      47.902   0.179  36.650  1.00  0.00    -0.361 N
ATOM     22  H4  UNL     1      48.671   0.791  36.924  1.00  0.00     0.162 HD
BRANCH  21  23
HETATM   23  C5  UNL     1      48.150  -1.217  36.364  1.00  0.00     0.083 C
HETATM   24  C6  UNL     1      48.648  -1.888  37.600  1.00  0.00     0.025 C
HETATM   25  C7  UNL     1      49.959  -2.614  37.395  1.00  0.00     0.002 C
HETATM   26  C8  UNL     1      51.010  -1.751  36.739  1.00  0.00     0.000 C
HETATM   27  C9  UNL     1      50.506  -1.015  35.545  1.00  0.00     0.002 C
HETATM   28  C10 UNL     1      49.084  -1.386  35.185  1.00  0.00     0.025 C
ENDBRANCH  21  23
ENDBRANCH  19  21
ENDBRANCH  17  19
ENDBRANCH   2  17
TORSDOF 7
ENDMDL