MODEL 4
REMARK VINA RESULT: -7.182772565      1.732      2.288
REMARK  5 active torsions:
REMARK  status: ('A' for Active; 'I' for Inactive)
REMARK    1  A    between atoms: C4_8  and  N3_9
REMARK       I    between atoms: N3_9  and  C5_11
REMARK       I    between atoms: C5_11  and  N4_13
REMARK    2  A    between atoms: N4_13  and  C6_15
REMARK    3  A    between atoms: C6_15  and  C7_16
REMARK    4  A    between atoms: C7_16  and  C8_17
REMARK       I    between atoms: C8_17  and  N5_19
REMARK    5  A    between atoms: N5_19  and  N6_20
ROOT
HETATM    1  N3  UNL     1      43.855  -1.476  30.105  1.00  0.00    -0.141 N
ATOM      2  H3  UNL     1      44.685  -1.664  30.668  1.00  0.00     0.189 HD
HETATM    3  C5  UNL     1      42.650  -1.138  30.765  1.00  0.00     0.334 C
HETATM    4  O1  UNL     1      41.625  -1.068  30.065  1.00  0.00    -0.247 OA
HETATM    5  N4  UNL     1      42.562  -0.868  32.176  1.00  0.00    -0.342 N
ATOM      6  H4  UNL     1      43.410  -0.913  32.741  1.00  0.00     0.164 HD
ENDROOT
BRANCH   5   7
HETATM    7  C6  UNL     1      41.310  -0.535  32.820  1.00  0.00     0.135 C
BRANCH   7   8
HETATM    8  C7  UNL     1      41.241  -1.034  34.207  1.00  0.00     0.140 C
BRANCH   8   9
HETATM    9  C8  UNL     1      42.468  -1.788  34.681  1.00  0.00     0.307 C
HETATM   10  O2  UNL     1      42.464  -3.032  34.588  1.00  0.00    -0.256 OA
HETATM   11  N5  UNL     1      43.537  -1.090  35.207  1.00  0.00    -0.312 NA
BRANCH  11  12
HETATM   12  N6  UNL     1      44.569  -0.428  35.714  1.00  0.00    -0.153 NA
HETATM   13  C9  UNL     1      44.237  -0.004  37.095  1.00  0.00     0.129 C
HETATM   14  C10 UNL     1      45.160   1.147  37.377  1.00  0.00     0.019 C
HETATM   15  C11 UNL     1      45.926   1.395  36.097  1.00  0.00     0.029 C
HETATM   16  C12 UNL     1      44.951   0.794  35.058  1.00  0.00     0.037 C
HETATM   17  C13 UNL     1      43.822   1.800  34.973  1.00  0.00     0.035 C
HETATM   18  C14 UNL     1      45.671   0.639  33.771  1.00  0.00     0.035 C
ENDBRANCH  11  12
ENDBRANCH   8   9
ENDBRANCH   7   8
ENDBRANCH   5   7
BRANCH   1  19
HETATM   19  C4  UNL     1      43.955  -1.564  28.707  1.00  0.00     0.689 A
HETATM   20  N1  UNL     1      44.046  -2.703  27.962  1.00  0.00    -0.175 N
HETATM   21  C1  UNL     1      43.882  -4.060  28.493  1.00  0.00     0.176 C
HETATM   22  C2  UNL     1      44.267  -2.445  26.703  1.00  0.00     0.137 A
HETATM   23 CL1  UNL     1      44.451  -3.527  25.344  1.00  0.00    -0.062 Cl
HETATM   24  C3  UNL     1      44.318  -1.041  26.609  1.00  0.00     0.149 A
HETATM   25  N2  UNL     1      44.124  -0.561  27.852  1.00  0.00    -0.198 N
ATOM     26  H2  UNL     1      44.109   0.428  28.101  1.00  0.00     0.183 HD
ENDBRANCH   1  19
TORSDOF 5
ENDMDL