MODEL 3
REMARK VINA RESULT: -6.189648865      6.315      7.887
REMARK  8 active torsions:
REMARK  status: ('A' for Active; 'I' for Inactive)
REMARK    1  A    between atoms: N1_1  and  S1_4
REMARK    2  A    between atoms: C4_10  and  C5_11
REMARK    3  A    between atoms: C5_11  and  N2_12
REMARK    4  A    between atoms: N2_12  and  C6_14
REMARK    5  A    between atoms: C6_14  and  N3_16
REMARK    6  A    between atoms: N3_16  and  C7_18
REMARK    7  A    between atoms: C7_18  and  C8_19
REMARK    8  A    between atoms: C8_19  and  C9_20
ROOT
HETATM    1  N2  UNL     1      42.009  -0.737  29.722  1.00  0.00    -0.365 N
ATOM      2  H2  UNL     1      42.059   0.163  29.244  1.00  0.00     0.161 HD
ENDROOT
BRANCH   1   3
HETATM    3  C5  UNL     1      43.221  -1.389  30.157  1.00  0.00     0.147 C
BRANCH   3   4
HETATM    4  C4  UNL     1      44.111  -1.741  28.965  1.00  0.00     0.112 C
HETATM    5  C3  UNL     1      44.013  -3.199  28.707  1.00  0.00     0.065 C
HETATM    6  C2  UNL     1      43.227  -3.552  27.470  1.00  0.00     0.186 C
HETATM    7  C1  UNL     1      43.938  -3.142  26.206  1.00  0.00     0.176 C
HETATM    8  F1  UNL     1      43.095  -4.927  27.440  1.00  0.00    -0.248 F
HETATM    9  S1  UNL     1      44.384  -1.434  26.383  1.00  0.00     0.103 S
HETATM   10  O1  UNL     1      43.825  -0.600  25.263  1.00  0.00    -0.229 OA
HETATM   11  N4  UNL     1      43.783  -0.879  27.879  1.00  0.00    -0.330 N
ATOM     12  H4  UNL     1      43.244  -0.020  27.985  1.00  0.00     0.171 HD
BRANCH   9  13
HETATM   13  N1  UNL     1      45.947  -1.296  26.277  1.00  0.00    -0.345 N
ATOM     14  H12 UNL     1      46.483  -0.429  26.317  1.00  0.00     0.167 HD
ATOM     15  H11 UNL     1      46.301  -2.246  26.163  1.00  0.00     0.167 HD
ENDBRANCH   9  13
ENDBRANCH   3   4
ENDBRANCH   1   3
BRANCH   1  16
HETATM   16  C6  UNL     1      40.769  -1.335  29.954  1.00  0.00     0.167 C
HETATM   17  S2  UNL     1      39.651  -0.483  30.841  1.00  0.00    -0.041 SA
BRANCH  16  18
HETATM   18  N3  UNL     1      40.346  -2.610  29.507  1.00  0.00    -0.367 N
ATOM     19  H3  UNL     1      40.447  -2.821  28.514  1.00  0.00     0.161 HD
BRANCH  18  20
HETATM   20  C7  UNL     1      39.783  -3.634  30.355  1.00  0.00     0.122 C
BRANCH  20  21
HETATM   21  C8  UNL     1      40.806  -4.089  31.341  1.00  0.00     0.024 C
BRANCH  21  22
HETATM   22  C9  UNL     1      41.886  -4.946  30.707  1.00  0.00    -0.013 C
HETATM   23  C10 UNL     1      42.918  -5.340  31.712  1.00  0.00     0.005 C
HETATM   24  C11 UNL     1      44.060  -6.065  31.008  1.00  0.00     0.000 C
HETATM   25  C12 UNL     1      43.545  -7.111  30.054  1.00  0.00     0.000 C
HETATM   26  C13 UNL     1      42.097  -7.402  30.369  1.00  0.00     0.000 C
HETATM   27  C14 UNL     1      41.319  -6.135  29.994  1.00  0.00     0.005 C
ENDBRANCH  21  22
ENDBRANCH  20  21
ENDBRANCH  18  20
ENDBRANCH  16  18
ENDBRANCH   1  16
TORSDOF 8
ENDMDL