MODEL 3
REMARK VINA RESULT: -7.003606060      1.352      1.906
REMARK  5 active torsions:
REMARK  status: ('A' for Active; 'I' for Inactive)
REMARK    1  A    between atoms: C2_2  and  N1_4
REMARK       I    between atoms: N1_4  and  C4_6
REMARK    2  A    between atoms: C4_6  and  C5_8
REMARK    3  A    between atoms: C5_8  and  N2_10
REMARK    4  A    between atoms: N2_10  and  N3_11
REMARK       I    between atoms: N3_11  and  C7_13
REMARK       I    between atoms: C7_13  and  N4_15
REMARK    5  A    between atoms: N4_15  and  C8_17
ROOT
HETATM    1  N3  UNL     1      43.014  -0.913  32.211  1.00  0.00    -0.255 N
ATOM      2  H3  UNL     1      42.534  -1.774  32.472  1.00  0.00     0.187 HD
HETATM    3  C7  UNL     1      43.634  -0.125  33.215  1.00  0.00     0.332 C
HETATM    4  O2  UNL     1      44.223   0.948  32.883  1.00  0.00    -0.246 OA
HETATM    5  N4  UNL     1      43.570  -0.581  34.561  1.00  0.00    -0.333 N
ATOM      6  H4  UNL     1      43.081  -1.458  34.742  1.00  0.00     0.165 HD
ENDROOT
BRANCH   1   7
HETATM    7  N2  UNL     1      43.051  -0.528  30.879  1.00  0.00    -0.123 NA
BRANCH   7   8
HETATM    8  C5  UNL     1      42.809  -1.675  30.038  1.00  0.00     0.187 C
HETATM    9  C6  UNL     1      42.826  -2.971  30.845  1.00  0.00     0.040 C
BRANCH   8  10
HETATM   10  C4  UNL     1      43.809  -1.711  28.963  1.00  0.00     0.238 C
HETATM   11  N1  UNL     1      43.504  -2.346  27.738  1.00  0.00    -0.356 N
ATOM     12  H1  UNL     1      42.589  -2.778  27.613  1.00  0.00     0.162 HD
HETATM   13  O1  UNL     1      44.923  -1.186  29.116  1.00  0.00    -0.272 OA
BRANCH  11  14
HETATM   14  C2  UNL     1      44.470  -2.395  26.657  1.00  0.00     0.076 C
HETATM   15  C1  UNL     1      44.280  -1.268  25.683  1.00  0.00     0.032 C
HETATM   16  C3  UNL     1      44.277  -3.748  25.973  1.00  0.00     0.032 C
ENDBRANCH  11  14
ENDBRANCH   8  10
ENDBRANCH   7   8
ENDBRANCH   1   7
BRANCH   5  17
HETATM   17  C8  UNL     1      44.147   0.109  35.686  1.00  0.00     0.038 C
HETATM   18  C9  UNL     1      43.617   1.513  35.861  1.00  0.00     0.036 C
HETATM   19  C10 UNL     1      44.197   2.118  37.097  1.00  0.00    -0.009 C
HETATM   20  C11 UNL     1      45.698   2.282  36.886  1.00  0.00     0.009 C
HETATM   21  C15 UNL     1      44.017   1.294  38.338  1.00  0.00     0.048 C
HETATM   22  C12 UNL     1      46.281   0.939  36.582  1.00  0.00    -0.009 C
HETATM   23  C13 UNL     1      46.079   0.079  37.828  1.00  0.00     0.048 C
HETATM   24  C17 UNL     1      45.644   0.216  35.445  1.00  0.00     0.036 C
HETATM   25  C14 UNL     1      44.607  -0.080  38.099  1.00  0.00     0.106 C
HETATM   26  F1  UNL     1      44.439  -0.924  39.173  1.00  0.00    -0.243 F
HETATM   27  C16 UNL     1      43.854  -0.675  36.927  1.00  0.00     0.074 C
ENDBRANCH   5  17
TORSDOF 5
ENDMDL