MODEL 1
REMARK VINA RESULT: -7.153556963      0.000      0.000
REMARK  7 active torsions:
REMARK  status: ('A' for Active; 'I' for Inactive)
REMARK       I    between atoms: C1_2  and  N1_3
REMARK       I    between atoms: C1_2  and  N5_21
REMARK    1  A    between atoms: N1_3  and  N2_5
REMARK    2  A    between atoms: N2_5  and  C2_7
REMARK    3  A    between atoms: C2_7  and  N3_9
REMARK    4  A    between atoms: N3_9  and  C3_11
REMARK    5  A    between atoms: C3_11  and  C4_12
REMARK    6  A    between atoms: C4_12  and  N4_13
REMARK    7  A    between atoms: N5_21  and  C11_23
ROOT
HETATM    1  C2  UNL     1      43.745   0.100  33.416  1.00  0.00     0.186 C
HETATM    2  S1  UNL     1      42.379  -0.265  34.263  1.00  0.00    -0.040 SA
ENDROOT
BRANCH   1   3
HETATM    3  N2  UNL     1      44.590   1.080  34.006  1.00  0.00    -0.272 N
ATOM      4  H2  UNL     1      44.184   1.939  34.377  1.00  0.00     0.189 HD
BRANCH   3   5
HETATM    5  N1  UNL     1      45.990   0.874  34.083  1.00  0.00    -0.249 N
HETATM    6  C1  UNL     1      46.448   0.029  35.132  1.00  0.00     0.335 C
HETATM    7  O1  UNL     1      45.669  -0.508  35.947  1.00  0.00    -0.246 OA
HETATM    8  N5  UNL     1      47.874  -0.177  35.204  1.00  0.00    -0.337 N
ATOM      9  H5  UNL     1      48.503   0.264  34.534  1.00  0.00     0.164 HD
ATOM     10  H1  UNL     1      46.635   1.309  33.423  1.00  0.00     0.192 HD
BRANCH   8  11
HETATM   11  C11 UNL     1      48.377  -1.021  36.243  1.00  0.00     0.086 C
HETATM   12  C12 UNL     1      49.730  -1.551  35.750  1.00  0.00     0.025 C
HETATM   13  C13 UNL     1      50.291  -2.117  37.037  1.00  0.00     0.002 C
HETATM   14  C14 UNL     1      50.045  -0.939  37.985  1.00  0.00     0.002 C
HETATM   15  C15 UNL     1      48.795  -0.269  37.476  1.00  0.00     0.025 C
ENDBRANCH   8  11
ENDBRANCH   3   5
ENDBRANCH   1   3
BRANCH   1  16
HETATM   16  N3  UNL     1      44.061  -0.503  32.192  1.00  0.00    -0.364 N
ATOM     17  H3  UNL     1      45.036  -0.481  31.891  1.00  0.00     0.162 HD
BRANCH  16  18
HETATM   18  C3  UNL     1      43.103  -1.155  31.324  1.00  0.00     0.152 C
BRANCH  18  19
HETATM   19  C4  UNL     1      43.630  -2.456  30.793  1.00  0.00     0.292 C
BRANCH  19  20
HETATM   20  N4  UNL     1      43.438  -2.625  29.372  1.00  0.00     0.092 N
HETATM   21  C5  UNL     1      43.765  -3.912  28.856  1.00  0.00     0.272 C
HETATM   22  C6  UNL     1      43.089  -4.192  27.531  1.00  0.00     0.030 C
HETATM   23  C7  UNL     1      43.901  -3.773  26.356  1.00  0.00     0.004 C
HETATM   24  C8  UNL     1      44.700  -2.530  26.552  1.00  0.00     0.039 C
HETATM   25  C9  UNL     1      43.843  -1.496  27.235  1.00  0.00     0.198 C
HETATM   26  F1  UNL     1      44.194  -0.244  26.785  1.00  0.00    -0.248 F
HETATM   27  C10 UNL     1      44.159  -1.547  28.715  1.00  0.00     0.309 C
ENDBRANCH  19  20
ENDBRANCH  18  19
ENDBRANCH  16  18
ENDBRANCH   1  16
TORSDOF 7
ENDMDL