MODEL 4
REMARK VINA RESULT: -6.486701049      6.025      8.304
REMARK  7 active torsions:
REMARK  status: ('A' for Active; 'I' for Inactive)
REMARK       I    between atoms: N1_2  and  C2_4
REMARK    1  A    between atoms: C2_4  and  C3_6
REMARK    2  A    between atoms: C5_13  and  N4_14
REMARK    3  A    between atoms: N4_14  and  C6_16
REMARK    4  A    between atoms: C6_16  and  C7_17
REMARK    5  A    between atoms: C7_17  and  C8_18
REMARK    6  A    between atoms: C8_18  and  N5_20
REMARK    7  A    between atoms: N5_20  and  C9_22
ROOT
HETATM    1  N4  UNL     1      44.255   0.857  33.736  1.00  0.00    -0.374 N
ATOM      2  H4  UNL     1      45.061   0.920  33.115  1.00  0.00     0.161 HD
ENDROOT
BRANCH   1   3
HETATM    3  C5  UNL     1      44.242   1.657  34.700  1.00  0.00     0.135 A
HETATM    4  C3  UNL     1      45.018   1.532  35.864  1.00  0.00     0.116 A
HETATM    5  C4  UNL     1      44.698   2.607  36.646  1.00  0.00     0.137 A
HETATM    6 CL1  UNL     1      45.345   3.006  38.236  1.00  0.00    -0.062 Cl
HETATM    7  N2  UNL     1      43.776   3.344  35.987  1.00  0.00    -0.287 N
HETATM    8  N3  UNL     1      43.520   2.760  34.833  1.00  0.00    -0.284 N
ATOM      9  H2  UNL     1      43.350   4.207  36.326  1.00  0.00     0.188 HD
ATOM     10  H3  UNL     1      42.859   3.108  34.139  1.00  0.00     0.188 HD
BRANCH   4  11
HETATM   11  C2  UNL     1      45.959   0.442  36.121  1.00  0.00     0.258 C
HETATM   12  N1  UNL     1      47.326   0.552  36.349  1.00  0.00    -0.361 N
HETATM   13  C1  UNL     1      48.157  -0.624  36.594  1.00  0.00     0.149 C
ATOM     14  H1  UNL     1      47.759   1.475  36.344  1.00  0.00     0.162 HD
HETATM   15  O1  UNL     1      45.481  -0.753  36.141  1.00  0.00    -0.267 OA
ENDBRANCH   4  11
ENDBRANCH   1   3
BRANCH   1  16
HETATM   16  C6  UNL     1      43.284  -0.129  33.400  1.00  0.00     0.128 C
BRANCH  16  17
HETATM   17  C7  UNL     1      43.697  -1.005  32.239  1.00  0.00     0.089 C
BRANCH  17  18
HETATM   18  C8  UNL     1      42.715  -0.888  31.135  1.00  0.00     0.075 C
HETATM   19  S1  UNL     1      41.117  -1.009  31.555  1.00  0.00    -0.066 SA
BRANCH  18  20
HETATM   20  N5  UNL     1      43.052  -0.684  29.782  1.00  0.00    -0.380 N
ATOM     21  H5  UNL     1      42.842   0.225  29.371  1.00  0.00     0.160 HD
BRANCH  20  22
HETATM   22  C9  UNL     1      43.678  -1.680  28.935  1.00  0.00     0.082 C
HETATM   23  C10 UNL     1      42.601  -2.581  28.365  1.00  0.00     0.025 C
HETATM   24  C11 UNL     1      43.149  -3.765  27.622  1.00  0.00     0.002 C
HETATM   25  C12 UNL     1      44.323  -3.308  26.761  1.00  0.00     0.000 C
HETATM   26  C13 UNL     1      44.167  -1.829  26.535  1.00  0.00     0.002 C
HETATM   27  C14 UNL     1      44.460  -1.086  27.814  1.00  0.00     0.025 C
ENDBRANCH  20  22
ENDBRANCH  18  20
ENDBRANCH  17  18
ENDBRANCH  16  17
ENDBRANCH   1  16
TORSDOF 7
ENDMDL