MODEL 3
REMARK VINA RESULT: -6.880254819      0.713      1.218
REMARK  6 active torsions:
REMARK  status: ('A' for Active; 'I' for Inactive)
REMARK    1  A    between atoms: C5_5  and  N1_6
REMARK    2  A    between atoms: N1_6  and  C6_8
REMARK    3  A    between atoms: C6_8  and  C7_9
REMARK       I    between atoms: C7_9  and  N2_11
REMARK    4  A    between atoms: N2_11  and  C8_12
REMARK    5  A    between atoms: C10_14  and  N3_15
REMARK       I    between atoms: N3_15  and  C11_17
REMARK    6  A    between atoms: C11_17  and  C12_19
ROOT
HETATM    1  C8  UNL     1      43.276  -1.561  30.842  1.00  0.00     0.201 A
HETATM    2  C9  UNL     1      43.926  -2.415  29.927  1.00  0.00     0.115 A
HETATM    3  C10 UNL     1      43.985  -1.834  28.688  1.00  0.00     0.127 A
HETATM    4  N4  UNL     1      43.367  -0.627  28.860  1.00  0.00    -0.283 N
ATOM      5  H4  UNL     1      43.238   0.061  28.119  1.00  0.00     0.188 HD
HETATM    6  N5  UNL     1      42.963  -0.466  30.084  1.00  0.00    -0.272 N
ATOM      7  H5  UNL     1      42.479   0.362  30.432  1.00  0.00     0.189 HD
ENDROOT
BRANCH   1   8
HETATM    8  N2  UNL     1      43.039  -1.719  32.005  1.00  0.00    -0.349 NA
HETATM    9  C7  UNL     1      42.737  -1.874  33.260  1.00  0.00     0.310 C
HETATM   10  O1  UNL     1      42.655  -3.058  33.778  1.00  0.00    -0.255 OA
BRANCH   9  11
HETATM   11  C6  UNL     1      42.452  -0.774  34.271  1.00  0.00     0.234 C
BRANCH  11  12
HETATM   12  N1  UNL     1      43.348   0.315  34.111  1.00  0.00    -0.408 N
ATOM     13  H1  UNL     1      43.593   0.694  33.197  1.00  0.00     0.154 HD
BRANCH  12  14
HETATM   14  C5  UNL     1      43.884   0.841  35.338  1.00  0.00     0.077 C
HETATM   15  C4  UNL     1      45.278   1.416  35.068  1.00  0.00     0.025 C
HETATM   16  C3  UNL     1      45.659   2.096  36.375  1.00  0.00     0.006 C
HETATM   17  C2  UNL     1      46.002   0.951  37.306  1.00  0.00    -0.019 C
HETATM   18  C1  UNL     1      47.267   0.291  36.752  1.00  0.00     0.010 C
HETATM   19  C16 UNL     1      44.896  -0.015  37.501  1.00  0.00     0.006 C
HETATM   20  C15 UNL     1      43.838  -0.104  36.481  1.00  0.00     0.025 C
ENDBRANCH  12  14
ENDBRANCH  11  12
ENDBRANCH   9  11
ENDBRANCH   1   8
BRANCH   3  21
HETATM   21  N3  UNL     1      44.550  -2.331  27.490  1.00  0.00    -0.312 N
HETATM   22  C11 UNL     1      43.955  -3.354  26.731  1.00  0.00     0.227 C
HETATM   23  O2  UNL     1      42.884  -3.943  27.010  1.00  0.00    -0.273 OA
ATOM     24  H3  UNL     1      45.428  -1.929  27.161  1.00  0.00     0.170 HD
BRANCH  22  25
HETATM   25  C12 UNL     1      44.622  -3.825  25.460  1.00  0.00     0.078 A
HETATM   26  C13 UNL     1      44.395  -2.892  24.271  1.00  0.00     0.015 A
HETATM   27  C14 UNL     1      43.760  -4.218  24.313  1.00  0.00     0.015 A
ENDBRANCH  22  25
ENDBRANCH   3  21
TORSDOF 6
ENDMDL