MODEL 5
REMARK VINA RESULT: -6.873586315      4.825      6.505
REMARK  5 active torsions:
REMARK  status: ('A' for Active; 'I' for Inactive)
REMARK    1  A    between atoms: C1_2  and  C2_3
REMARK       I    between atoms: C1_2  and  N2_12
REMARK    2  A    between atoms: C2_3  and  N1_4
REMARK    3  A    between atoms: N1_4  and  C3_6
REMARK    4  A    between atoms: C3_6  and  C4_7
REMARK    5  A    between atoms: C16_26  and  C17_27
ROOT
HETATM    1  O1  UNL     1      42.286  -3.437  27.742  1.00  0.00    -0.271 OA
HETATM    2  C1  UNL     1      42.375  -4.061  28.831  1.00  0.00     0.240 C
HETATM    3  N2  UNL     1      41.332  -3.878  29.781  1.00  0.00    -0.313 N
ATOM      4  H2  UNL     1      40.760  -4.681  30.043  1.00  0.00     0.170 HD
HETATM    5  C9  UNL     1      41.080  -2.719  30.329  1.00  0.00     0.123 C
HETATM    6  N3  UNL     1      40.075  -2.413  31.277  1.00  0.00    -0.345 N
ATOM      7  H3  UNL     1      39.679  -3.050  31.969  1.00  0.00     0.163 HD
HETATM    8  C10 UNL     1      39.708  -1.004  31.075  1.00  0.00     0.200 C
HETATM    9  C11 UNL     1      38.398  -1.019  30.298  1.00  0.00     0.061 C
HETATM   10  C12 UNL     1      37.249  -1.080  31.282  1.00  0.00     0.004 C
HETATM   11  C13 UNL     1      37.191   0.085  32.226  1.00  0.00     0.000 C
HETATM   12  C14 UNL     1      38.516   0.823  32.140  1.00  0.00     0.004 C
HETATM   13  C15 UNL     1      39.575  -0.273  32.364  1.00  0.00     0.061 C
HETATM   14  N4  UNL     1      40.741  -0.445  30.265  1.00  0.00    -0.028 N
ATOM     15  H41 UNL     1      41.098   0.435  30.636  1.00  0.00     0.281 HD
ATOM     16  H42 UNL     1      40.391  -0.090  29.375  1.00  0.00     0.281 HD
HETATM   17  C16 UNL     1      41.777  -1.440  30.097  1.00  0.00     0.355 C
ENDROOT
BRANCH  17  18
HETATM   18  C17 UNL     1      42.860  -1.286  31.094  1.00  0.00     0.212 C
HETATM   19  O2  UNL     1      43.365  -2.345  31.606  1.00  0.00    -0.646 OA
HETATM   20  O3  UNL     1      43.396  -0.099  31.533  1.00  0.00    -0.646 OA
ENDBRANCH  17  18
BRANCH   2  21
HETATM   21  C2  UNL     1      43.557  -4.952  29.072  1.00  0.00     0.221 C
BRANCH  21  22
HETATM   22  N1  UNL     1      43.931  -4.982  30.440  1.00  0.00    -0.393 N
ATOM     23  H1  UNL     1      44.146  -4.115  30.931  1.00  0.00     0.159 HD
BRANCH  22  24
HETATM   24  C3  UNL     1      44.005  -6.216  31.115  1.00  0.00     0.060 C
BRANCH  24  25
HETATM   25  C4  UNL     1      44.831  -7.318  30.659  1.00  0.00     0.024 C
HETATM   26  C5  UNL     1      44.258  -8.691  30.467  1.00  0.00     0.010 C
HETATM   27  C6  UNL     1      45.578  -9.354  29.945  1.00  0.00     0.001 C
HETATM   28  C7  UNL     1      46.526  -8.996  31.061  1.00  0.00     0.001 C
HETATM   29  C8  UNL     1      46.095  -7.602  31.479  1.00  0.00     0.010 C
ENDBRANCH  24  25
ENDBRANCH  22  24
ENDBRANCH  21  22
ENDBRANCH   2  21
TORSDOF 5
ENDMDL