MODEL 3
REMARK VINA RESULT: -7.230657216      1.987      2.828
REMARK  6 active torsions:
REMARK  status: ('A' for Active; 'I' for Inactive)
REMARK    1  A    between atoms: C2_2  and  C3_3
REMARK    2  A    between atoms: C3_3  and  C4_4
REMARK    3  A    between atoms: C4_4  and  N1_5
REMARK       I    between atoms: N1_5  and  C5_7
REMARK       I    between atoms: C5_7  and  N2_9
REMARK    4  A    between atoms: N2_9  and  C6_11
REMARK    5  A    between atoms: C12_17  and  N3_18
REMARK    6  A    between atoms: N3_18  and  C13_20
ROOT
HETATM    1  C6  UNL     1      42.716  -0.782  32.353  1.00  0.00     0.095 C
HETATM    2  C7  UNL     1      41.291  -0.758  31.864  1.00  0.00     0.011 C
HETATM    3  C8  UNL     1      40.409  -1.770  32.542  1.00  0.00     0.011 C
HETATM    4  C9  UNL     1      41.023  -3.119  32.679  1.00  0.00    -0.013 C
HETATM    5  C10 UNL     1      41.495  -3.741  31.406  1.00  0.00     0.011 C
HETATM    6  C11 UNL     1      42.751  -2.931  31.084  1.00  0.00     0.015 C
HETATM    7  C12 UNL     1      42.364  -2.004  29.967  1.00  0.00     0.088 C
HETATM    8  C17 UNL     1      41.349  -0.970  30.364  1.00  0.00     0.032 C
HETATM    9  C18 UNL     1      43.152  -2.226  32.353  1.00  0.00     0.015 C
HETATM   10  C19 UNL     1      42.362  -2.948  33.414  1.00  0.00     0.011 C
ENDROOT
BRANCH   7  11
HETATM   11  N3  UNL     1      43.502  -1.450  29.262  1.00  0.00    -0.370 N
ATOM     12  H3  UNL     1      44.237  -1.003  29.811  1.00  0.00     0.161 HD
BRANCH  11  13
HETATM   13  C13 UNL     1      43.638  -1.490  27.996  1.00  0.00     0.125 A
HETATM   14  N4  UNL     1      43.804  -0.445  27.178  1.00  0.00    -0.284 N
HETATM   15  N5  UNL     1      43.911  -0.876  25.916  1.00  0.00    -0.288 N
ATOM     16  H4  UNL     1      43.842   0.531  27.470  1.00  0.00     0.188 HD
HETATM   17  C14 UNL     1      43.819  -2.214  25.871  1.00  0.00     0.127 A
ATOM     18  H5  UNL     1      44.043  -0.273  25.104  1.00  0.00     0.188 HD
HETATM   19 CL1  UNL     1      43.900  -3.225  24.459  1.00  0.00    -0.062 Cl
HETATM   20  C15 UNL     1      43.644  -2.609  27.202  1.00  0.00     0.023 A
HETATM   21  C16 UNL     1      43.498  -4.020  27.605  1.00  0.00     0.056 C
ENDBRANCH  11  13
ENDBRANCH   7  11
BRANCH   1  22
HETATM   22  N2  UNL     1      42.833  -0.106  33.603  1.00  0.00    -0.338 N
HETATM   23  C5  UNL     1      44.014   0.552  34.031  1.00  0.00     0.316 C
HETATM   24  N1  UNL     1      44.108   1.215  35.272  1.00  0.00    -0.343 N
HETATM   25  O1  UNL     1      45.005   0.537  33.270  1.00  0.00    -0.247 OA
ATOM     26  H1  UNL     1      43.278   1.209  35.865  1.00  0.00     0.164 HD
ATOM     27  H2  UNL     1      42.023  -0.095  34.223  1.00  0.00     0.164 HD
BRANCH  24  28
HETATM   28  C4  UNL     1      45.262   1.895  35.774  1.00  0.00     0.124 C
BRANCH  28  29
HETATM   29  C3  UNL     1      44.936   2.838  36.912  1.00  0.00     0.019 C
BRANCH  29  30
HETATM   30  C2  UNL     1      44.025   3.960  36.392  1.00  0.00    -0.003 C
HETATM   31  C1  UNL     1      43.669   4.895  37.509  1.00  0.00     0.005 C
ENDBRANCH  29  30
ENDBRANCH  28  29
ENDBRANCH  24  28
ENDBRANCH   1  22
TORSDOF 6
ENDMDL