MODEL 1
REMARK VINA RESULT: -6.345092515      0.000      0.000
REMARK  6 active torsions:
REMARK  status: ('A' for Active; 'I' for Inactive)
REMARK       I    between atoms: N1_3  and  C3_5
REMARK       I    between atoms: C3_5  and  N3_9
REMARK    1  A    between atoms: N3_9  and  C4_11
REMARK    2  A    between atoms: C4_11  and  N4_13
REMARK    3  A    between atoms: N4_13  and  C5_15
REMARK    4  A    between atoms: C10_21  and  N5_22
REMARK       I    between atoms: N5_22  and  C11_24
REMARK    5  A    between atoms: C11_24  and  C12_26
REMARK    6  A    between atoms: C12_26  and  S2_27
ROOT
HETATM    1  C1  UNL     1      37.012  -4.994  29.525  1.00  0.00     0.037 C
HETATM    2  C2  UNL     1      38.140  -5.414  29.577  1.00  0.00     0.015 C
HETATM    3  N1  UNL     1      39.452  -5.925  29.637  1.00  0.00    -0.150 N
ATOM      4  H1  UNL     1      39.615  -6.924  29.513  1.00  0.00     0.195 HD
HETATM    5  C3  UNL     1      40.544  -5.053  29.868  1.00  0.00     0.685 C
HETATM    6  N2  UNL     1      40.604  -4.404  30.971  1.00  0.00    -0.234 N
ATOM      7  H21 UNL     1      41.390  -3.777  31.138  1.00  0.00     0.174 HD
ATOM      8  H22 UNL     1      39.883  -4.502  31.686  1.00  0.00     0.174 HD
HETATM    9  N3  UNL     1      41.537  -4.917  28.884  1.00  0.00    -0.166 N
ATOM     10  H3  UNL     1      41.281  -4.721  27.916  1.00  0.00     0.186 HD
ENDROOT
BRANCH   9  11
HETATM   11  C4  UNL     1      42.930  -5.059  29.262  1.00  0.00     0.191 C
HETATM   12  S1  UNL     1      43.296  -6.421  30.031  1.00  0.00    -0.040 SA
BRANCH  11  13
HETATM   13  N4  UNL     1      43.856  -4.062  28.906  1.00  0.00    -0.331 N
ATOM     14  H4  UNL     1      44.630  -3.896  29.548  1.00  0.00     0.168 HD
BRANCH  13  15
HETATM   15  C5  UNL     1      43.807  -3.276  27.743  1.00  0.00     0.061 A
HETATM   16  C6  UNL     1      43.980  -3.712  26.462  1.00  0.00     0.033 A
HETATM   17  C7  UNL     1      44.022  -2.838  25.372  1.00  0.00     0.026 A
HETATM   18  C8  UNL     1      43.890  -1.502  25.552  1.00  0.00     0.036 A
HETATM   19 CL1  UNL     1      43.941  -0.410  24.211  1.00  0.00    -0.084 Cl
HETATM   20  C9  UNL     1      43.711  -1.009  26.846  1.00  0.00     0.055 A
HETATM   21  C10 UNL     1      43.667  -1.866  27.924  1.00  0.00     0.063 A
BRANCH  21  22
HETATM   22  N5  UNL     1      43.398  -1.420  29.235  1.00  0.00    -0.325 N
HETATM   23  C11 UNL     1      42.126  -1.384  29.819  1.00  0.00     0.230 C
HETATM   24  O1  UNL     1      41.087  -1.729  29.256  1.00  0.00    -0.272 OA
ATOM     25  H5  UNL     1      44.186  -1.100  29.797  1.00  0.00     0.169 HD
BRANCH  23  26
HETATM   26  C12 UNL     1      41.944  -0.898  31.238  1.00  0.00     0.165 C
BRANCH  26  27
HETATM   27  S2  UNL     1      43.187  -1.543  32.322  1.00  0.00    -0.219 SA
HETATM   28  C13 UNL     1      42.556  -2.738  33.441  1.00  0.00     0.078 C
HETATM   29  C14 UNL     1      43.930  -0.157  33.162  1.00  0.00     0.078 C
ENDBRANCH  26  27
ENDBRANCH  23  26
ENDBRANCH  21  22
ENDBRANCH  13  15
ENDBRANCH  11  13
ENDBRANCH   9  11
TORSDOF 6
ENDMDL