MODEL 4
REMARK VINA RESULT: -5.447477725     10.710     12.755
REMARK  3 active torsions:
REMARK  status: ('A' for Active; 'I' for Inactive)
REMARK    1  A    between atoms: C5_7  and  C6_8
REMARK       I    between atoms: C6_8  and  N2_10
REMARK    2  A    between atoms: N2_10  and  C7_12
REMARK    3  A    between atoms: C7_12  and  C12_22
ROOT
HETATM    1  C6  UNL     1      43.379  -5.072  29.594  1.00  0.00     0.259 C
HETATM    2  O1  UNL     1      44.150  -4.336  30.297  1.00  0.00    -0.267 OA
HETATM    3  N2  UNL     1      43.028  -4.557  28.301  1.00  0.00    -0.325 N
ATOM      4  H2  UNL     1      42.407  -5.078  27.682  1.00  0.00     0.169 HD
ENDROOT
BRANCH   3   5
HETATM    5  C7  UNL     1      43.585  -3.265  27.892  1.00  0.00     0.033 C
HETATM    6  C8  UNL     1      43.081  -2.057  28.498  1.00  0.00     0.080 A
HETATM    7  C9  UNL     1      41.845  -1.878  29.137  1.00  0.00     0.039 A
HETATM    8  C11 UNL     1      43.778  -0.865  28.792  1.00  0.00     0.274 A
HETATM    9  C10 UNL     1      40.674  -2.806  29.082  1.00  0.00     0.071 C
HETATM   10  N3  UNL     1      41.849  -0.687  29.737  1.00  0.00    -0.301 N
HETATM   11  N4  UNL     1      42.977  -0.069  29.547  1.00  0.00    -0.266 N
ATOM     12  H3  UNL     1      41.069  -0.311  30.276  1.00  0.00     0.186 HD
ATOM     13  H4  UNL     1      43.219   0.856  29.903  1.00  0.00     0.190 HD
HETATM   14  O2  UNL     1      44.940  -0.522  28.465  1.00  0.00    -0.266 OA
BRANCH   5  15
HETATM   15  C12 UNL     1      44.156  -3.286  26.549  1.00  0.00     0.028 C
HETATM   16  C13 UNL     1      43.801  -2.006  25.755  1.00  0.00     0.016 C
HETATM   17  C14 UNL     1      43.850  -4.391  25.594  1.00  0.00     0.016 C
ENDBRANCH   5  15
ENDBRANCH   3   5
BRANCH   1  18
HETATM   18  C5  UNL     1      42.945  -6.334  30.138  1.00  0.00     0.073 A
HETATM   19  C3  UNL     1      41.598  -6.764  30.047  1.00  0.00     0.022 A
HETATM   20  N1  UNL     1      41.482  -7.973  30.590  1.00  0.00    -0.361 N
HETATM   21  C4  UNL     1      40.490  -5.948  29.466  1.00  0.00     0.069 C
HETATM   22  C2  UNL     1      42.678  -8.387  31.047  1.00  0.00     0.024 A
ATOM     23  H1  UNL     1      40.616  -8.507  30.649  1.00  0.00     0.165 HD
HETATM   24  C1  UNL     1      42.898  -9.716  31.712  1.00  0.00     0.069 C
HETATM   25  C15 UNL     1      43.577  -7.371  30.766  1.00  0.00     0.050 A
HETATM   26 BR1  UNL     1      45.400  -7.469  31.229  1.00  0.00    -0.048 Br
ENDBRANCH   1  18
TORSDOF 3
ENDMDL