MODEL 5
REMARK VINA RESULT: -5.300571962      4.363      7.338
REMARK  7 active torsions:
REMARK  status: ('A' for Active; 'I' for Inactive)
REMARK    1  A    between atoms: C2_2  and  C3_3
REMARK    2  A    between atoms: C3_3  and  C4_4
REMARK    3  A    between atoms: C4_4  and  N1_5
REMARK    4  A    between atoms: N1_5  and  C5_7
REMARK    5  A    between atoms: C5_7  and  N2_9
REMARK    6  A    between atoms: N2_9  and  N3_11
REMARK    7  A    between atoms: N3_11  and  C6_13
ROOT
HETATM    1  C6  UNL     1      43.270  -1.034  30.430  1.00  0.00     0.698 A
HETATM    2  N4  UNL     1      43.505  -0.229  29.382  1.00  0.00    -0.188 N
ATOM      3  H4  UNL     1      43.599   0.786  29.444  1.00  0.00     0.184 HD
HETATM    4  C7  UNL     1      43.602  -0.933  28.237  1.00  0.00     0.078 A
HETATM    5  C8  UNL     1      43.832  -0.578  26.906  1.00  0.00     0.052 A
HETATM    6  C9  UNL     1      43.876  -1.551  25.930  1.00  0.00     0.019 A
HETATM    7 BR1  UNL     1      44.186  -1.113  24.086  1.00  0.00    -0.050 Br
HETATM    8  C10 UNL     1      43.695  -2.881  26.248  1.00  0.00    -0.036 A
HETATM    9  C11 UNL     1      43.746  -3.945  25.185  1.00  0.00     0.050 C
HETATM   10  C12 UNL     1      43.469  -3.209  27.575  1.00  0.00    -0.025 A
HETATM   11  C13 UNL     1      43.273  -4.616  27.946  1.00  0.00     0.051 C
HETATM   12  C14 UNL     1      43.419  -2.252  28.579  1.00  0.00     0.083 A
HETATM   13  N5  UNL     1      43.221  -2.286  29.908  1.00  0.00    -0.188 N
ATOM     14  H5  UNL     1      43.055  -3.134  30.449  1.00  0.00     0.184 HD
ENDROOT
BRANCH   1  15
HETATM   15  N3  UNL     1      43.115  -0.723  31.692  1.00  0.00    -0.130 N
ATOM     16  H3  UNL     1      42.202  -0.729  32.145  1.00  0.00     0.205 HD
BRANCH  15  17
HETATM   17  N2  UNL     1      44.309  -0.375  32.389  1.00  0.00    -0.262 N
ATOM     18  H2  UNL     1      45.232  -0.558  31.995  1.00  0.00     0.190 HD
BRANCH  17  19
HETATM   19  C5  UNL     1      44.147   0.234  33.650  1.00  0.00     0.186 C
HETATM   20  S1  UNL     1      42.693   0.194  34.416  1.00  0.00    -0.040 SA
BRANCH  19  21
HETATM   21  N1  UNL     1      45.216   0.886  34.290  1.00  0.00    -0.366 N
ATOM     22  H1  UNL     1      45.527   1.793  33.940  1.00  0.00     0.161 HD
BRANCH  21  23
HETATM   23  C4  UNL     1      45.877   0.309  35.416  1.00  0.00     0.122 C
BRANCH  23  24
HETATM   24  C3  UNL     1      45.913   1.221  36.602  1.00  0.00     0.019 C
BRANCH  24  25
HETATM   25  C2  UNL     1      45.193   2.527  36.277  1.00  0.00    -0.003 C
HETATM   26  C1  UNL     1      44.810   3.193  37.578  1.00  0.00     0.005 C
ENDBRANCH  24  25
ENDBRANCH  23  24
ENDBRANCH  21  23
ENDBRANCH  19  21
ENDBRANCH  17  19
ENDBRANCH  15  17
ENDBRANCH   1  15
TORSDOF 7
ENDMDL