MODEL 5
REMARK VINA RESULT: -5.053653288      6.478      8.576
REMARK  6 active torsions:
REMARK  status: ('A' for Active; 'I' for Inactive)
REMARK    1  A    between atoms: C2_2  and  C3_3
REMARK    2  A    between atoms: C3_3  and  C4_4
REMARK       I    between atoms: N2_8  and  C6_10
REMARK    3  A    between atoms: N4_12  and  N5_14
REMARK    4  A    between atoms: C7_17  and  N6_18
REMARK    5  A    between atoms: N6_18  and  C8_20
REMARK    6  A    between atoms: C12_24  and  C13_25
ROOT
HETATM    1  C4  UNL     1      42.436  -0.415  33.150  1.00  0.00     0.029 A
HETATM    2  N1  UNL     1      42.631  -0.767  31.870  1.00  0.00    -0.343 N
ATOM      3  H1  UNL     1      43.587  -0.894  31.538  1.00  0.00     0.167 HD
HETATM    4  C5  UNL     1      41.621  -0.960  31.010  1.00  0.00     0.135 A
HETATM    5  N2  UNL     1      41.865  -1.295  29.781  1.00  0.00    -0.314 N
ATOM      6  H2  UNL     1      41.061  -1.428  29.168  1.00  0.00     0.170 HD
HETATM    7  C6  UNL     1      43.132  -1.489  29.221  1.00  0.00     0.208 C
HETATM    8  N3  UNL     1      43.920  -2.594  29.636  1.00  0.00    -0.062 NA
HETATM    9  N4  UNL     1      43.551  -0.652  28.336  1.00  0.00    -0.280 N
ATOM     10  H4  UNL     1      42.945   0.125  28.073  1.00  0.00     0.189 HD
HETATM   11  C7  UNL     1      40.311  -0.807  31.387  1.00  0.00     0.081 A
HETATM   12  C12 UNL     1      40.035  -0.445  32.687  1.00  0.00    -0.009 A
HETATM   13  C15 UNL     1      41.133  -0.258  33.541  1.00  0.00     0.042 A
HETATM   14 BR1  UNL     1      40.816   0.245  35.367  1.00  0.00    -0.048 Br
ENDROOT
BRANCH  11  15
HETATM   15  N6  UNL     1      39.229  -0.952  30.488  1.00  0.00    -0.378 N
ATOM     16  H6  UNL     1      39.046  -0.133  29.909  1.00  0.00     0.160 HD
BRANCH  15  17
HETATM   17  C8  UNL     1      38.360  -2.039  30.257  1.00  0.00     0.019 C
HETATM   18  C9  UNL     1      38.745  -2.742  28.937  1.00  0.00     0.037 C
HETATM   19  C10 UNL     1      38.304  -3.103  31.322  1.00  0.00     0.037 C
HETATM   20  C11 UNL     1      36.950  -1.519  30.083  1.00  0.00     0.037 C
ENDBRANCH  15  17
ENDBRANCH  11  15
BRANCH   1  21
HETATM   21  C3  UNL     1      43.542  -0.195  34.120  1.00  0.00     0.058 C
BRANCH  21  22
HETATM   22  C2  UNL     1      44.329   1.042  33.821  1.00  0.00     0.002 C
HETATM   23  C1  UNL     1      45.792   0.732  34.153  1.00  0.00     0.005 C
ENDBRANCH  21  22
ENDBRANCH   1  21
BRANCH  12  24
HETATM   24  C13 UNL     1      38.695  -0.209  33.254  1.00  0.00     0.038 C
HETATM   25  C14 UNL     1      38.037   1.076  32.898  1.00  0.00     0.010 C
ENDBRANCH  12  24
BRANCH   9  26
HETATM   26  N5  UNL     1      44.788  -0.761  27.726  1.00  0.00    -0.343 N
ATOM     27  H52 UNL     1      45.068  -0.012  27.092  1.00  0.00     0.176 HD
ATOM     28  H51 UNL     1      45.416  -1.549  27.884  1.00  0.00     0.176 HD
ENDBRANCH   9  26
TORSDOF 6
ENDMDL