MODEL 5
REMARK VINA RESULT: -6.335490424      1.800      3.423
REMARK  8 active torsions:
REMARK  status: ('A' for Active; 'I' for Inactive)
REMARK    1  A    between atoms: C2_2  and  C3_3
REMARK    2  A    between atoms: C4_4  and  C5_5
REMARK    3  A    between atoms: C7_7  and  C8_8
REMARK    4  A    between atoms: C9_9  and  C10_10
REMARK    5  A    between atoms: C13_16  and  C14_17
REMARK    6  A    between atoms: C14_17  and  C15_18
REMARK    7  A    between atoms: C16_19  and  O1_20
REMARK    8  A    between atoms: C17_26  and  N4_27
ROOT
HETATM    1  C10 UNL     1      40.727  -2.695  29.844  1.00  0.00     0.040 A
HETATM    2  N1  UNL     1      39.773  -3.590  30.070  1.00  0.00    -0.364 N
ATOM      3  H1  UNL     1      38.784  -3.373  30.195  1.00  0.00     0.165 HD
HETATM    4  C11 UNL     1      40.301  -4.816  30.109  1.00  0.00     0.108 A
HETATM    5  C12 UNL     1      41.634  -4.743  29.904  1.00  0.00     0.035 A
HETATM    6 BR1  UNL     1      42.899  -6.194  29.795  1.00  0.00    -0.049 Br
HETATM    7  C13 UNL     1      41.938  -3.391  29.734  1.00  0.00    -0.008 A
ENDROOT
BRANCH   7   8
HETATM    8  C14 UNL     1      43.305  -2.853  29.488  1.00  0.00     0.089 C
BRANCH   8   9
HETATM    9  C15 UNL     1      43.561  -2.360  28.124  1.00  0.00     0.043 A
HETATM   10  C16 UNL     1      43.568  -3.039  26.904  1.00  0.00     0.165 A
HETATM   11  N2  UNL     1      43.783  -2.155  25.883  1.00  0.00    -0.278 N
HETATM   12  N3  UNL     1      43.906  -0.975  26.417  1.00  0.00    -0.283 N
ATOM     13  H2  UNL     1      43.837  -2.378  24.889  1.00  0.00     0.189 HD
HETATM   14  C17 UNL     1      43.781  -1.037  27.753  1.00  0.00     0.124 A
ATOM     15  H3  UNL     1      44.074  -0.118  25.891  1.00  0.00     0.188 HD
BRANCH  10  16
HETATM   16  O1  UNL     1      43.389  -4.388  26.756  1.00  0.00    -0.345 OA
ATOM     17  H1  UNL     1      42.567  -4.806  26.526  1.00  0.00     0.219 HD
ENDBRANCH  10  16
BRANCH  14  18
HETATM   18  N4  UNL     1      43.837   0.002  28.491  1.00  0.00    -0.384 N
ATOM     19  H42 UNL     1      43.036   0.620  28.623  1.00  0.00     0.157 HD
ATOM     20  H41 UNL     1      44.616   0.350  29.049  1.00  0.00     0.157 HD
ENDBRANCH  14  18
ENDBRANCH   8   9
ENDBRANCH   7   8
BRANCH   1  21
HETATM   21  C9  UNL     1      40.575  -1.260  29.738  1.00  0.00     0.030 C
HETATM   22  C8  UNL     1      39.981  -0.392  30.464  1.00  0.00     0.003 C
BRANCH  22  23
HETATM   23  C7  UNL     1      39.227  -0.456  31.674  1.00  0.00     0.016 C
HETATM   24  C5  UNL     1      39.795  -0.532  32.885  1.00  0.00    -0.009 C
HETATM   25  C6  UNL     1      38.908  -0.594  34.065  1.00  0.00     0.058 C
BRANCH  24  26
HETATM   26  C4  UNL     1      41.228  -0.549  32.951  1.00  0.00    -0.072 C
HETATM   27  C3  UNL     1      42.440  -0.542  33.016  1.00  0.00    -0.102 C
BRANCH  27  28
HETATM   28  C2  UNL     1      43.915  -0.536  33.077  1.00  0.00     0.090 C
HETATM   29  C1  UNL     1      44.432   0.706  33.784  1.00  0.00     0.018 C
ENDBRANCH  27  28
ENDBRANCH  24  26
ENDBRANCH  22  23
ENDBRANCH   1  21
TORSDOF 8
ENDMDL