MODEL 5
REMARK VINA RESULT: -6.439081770      4.011      5.948
REMARK  6 active torsions:
REMARK  status: ('A' for Active; 'I' for Inactive)
REMARK    1  A    between atoms: C1_2  and  N1_3
REMARK    2  A    between atoms: C1_2  and  N4_17
REMARK    3  A    between atoms: C2_5  and  C3_6
REMARK    4  A    between atoms: N4_17  and  C9_19
REMARK    5  A    between atoms: C9_19  and  C10_20
REMARK    6  A    between atoms: C10_20  and  C11_21
ROOT
HETATM    1  N1  UNL     1      41.310  -1.141  29.696  1.00  0.00    -0.343 N
ATOM      2  H1  UNL     1      40.912  -0.933  28.779  1.00  0.00     0.167 HD
HETATM    3  C2  UNL     1      40.574  -1.671  30.612  1.00  0.00     0.104 C
ENDROOT
BRANCH   1   4
HETATM    4  C1  UNL     1      42.669  -0.849  29.960  1.00  0.00     0.171 C
HETATM    5  S1  UNL     1      43.239  -1.088  31.461  1.00  0.00    -0.041 SA
BRANCH   4   6
HETATM    6  N4  UNL     1      43.532  -0.362  28.963  1.00  0.00    -0.367 N
ATOM      7  H4  UNL     1      43.658   0.648  28.911  1.00  0.00     0.161 HD
BRANCH   6   8
HETATM    8  C9  UNL     1      44.245  -1.156  28.020  1.00  0.00     0.128 C
BRANCH   8   9
HETATM    9  C10 UNL     1      43.895  -0.882  26.581  1.00  0.00     0.078 C
BRANCH   9  10
HETATM   10  C11 UNL     1      44.084  -2.177  25.838  1.00  0.00     0.027 A
HETATM   11  C12 UNL     1      44.269  -3.431  26.375  1.00  0.00     0.114 A
HETATM   12  N5  UNL     1      44.389  -4.257  25.327  1.00  0.00    -0.360 N
HETATM   13  C13 UNL     1      44.288  -3.577  24.187  1.00  0.00     0.180 A
ATOM     14  H5  UNL     1      44.536  -5.264  25.394  1.00  0.00     0.166 HD
HETATM   15  N6  UNL     1      44.100  -2.288  24.516  1.00  0.00    -0.355 N
ATOM     16  H6  UNL     1      43.987  -1.519  23.855  1.00  0.00     0.166 HD
ENDBRANCH   9  10
ENDBRANCH   8   9
ENDBRANCH   6   8
ENDBRANCH   4   6
ENDBRANCH   1   4
BRANCH   3  17
HETATM   17  C3  UNL     1      39.160  -2.002  30.417  1.00  0.00     0.010 A
HETATM   18  C4  UNL     1      38.052  -1.189  30.449  1.00  0.00     0.103 A
HETATM   19  N2  UNL     1      36.944  -1.944  30.209  1.00  0.00    -0.351 N
HETATM   20  C5  UNL     1      37.320  -3.235  30.022  1.00  0.00     0.117 A
ATOM     21  H2  UNL     1      35.986  -1.596  30.175  1.00  0.00     0.166 HD
HETATM   22  N3  UNL     1      36.884  -4.494  29.760  1.00  0.00    -0.350 N
HETATM   23  C8  UNL     1      38.697  -3.276  30.151  1.00  0.00     0.040 A
HETATM   24  C6  UNL     1      37.937  -5.340  29.717  1.00  0.00     0.110 A
ATOM     25  H3  UNL     1      35.909  -4.761  29.618  1.00  0.00     0.166 HD
HETATM   26  C7  UNL     1      39.061  -4.593  29.959  1.00  0.00     0.041 A
HETATM   27 BR1  UNL     1      40.886  -5.203  30.034  1.00  0.00    -0.049 Br
ENDBRANCH   3  17
TORSDOF 6
ENDMDL