MODEL 4
REMARK VINA RESULT: -6.262175486      3.880      8.996
REMARK  7 active torsions:
REMARK  status: ('A' for Active; 'I' for Inactive)
REMARK    1  A    between atoms: C2_2  and  C3_3
REMARK    2  A    between atoms: C3_3  and  C4_4
REMARK    3  A    between atoms: C4_4  and  N1_5
REMARK    4  A    between atoms: N1_5  and  C5_7
REMARK    5  A    between atoms: C5_7  and  N2_9
REMARK    6  A    between atoms: N2_9  and  N3_11
REMARK       I    between atoms: N3_11  and  C6_13
REMARK       I    between atoms: C6_13  and  N4_15
REMARK    7  A    between atoms: N4_15  and  C7_17
ROOT
HETATM    1  N3  UNL     1      43.095  -0.608  31.533  1.00  0.00    -0.249 N
ATOM      2  H3  UNL     1      44.042  -0.353  31.815  1.00  0.00     0.192 HD
HETATM    3  C6  UNL     1      42.876  -1.122  30.234  1.00  0.00     0.339 C
HETATM    4  O1  UNL     1      41.715  -1.420  29.925  1.00  0.00    -0.245 OA
HETATM    5  N4  UNL     1      43.946  -1.279  29.346  1.00  0.00    -0.307 N
ATOM      6  H4  UNL     1      44.859  -1.001  29.706  1.00  0.00     0.170 HD
ENDROOT
BRANCH   1   7
HETATM    7  N2  UNL     1      42.048  -0.443  32.433  1.00  0.00    -0.272 N
ATOM      8  H2  UNL     1      41.114  -0.284  32.057  1.00  0.00     0.189 HD
BRANCH   7   9
HETATM    9  C5  UNL     1      42.199  -0.483  33.832  1.00  0.00     0.186 C
HETATM   10  S1  UNL     1      42.379  -1.941  34.557  1.00  0.00    -0.040 SA
BRANCH   9  11
HETATM   11  N1  UNL     1      42.198   0.700  34.613  1.00  0.00    -0.366 N
ATOM     12  H1  UNL     1      41.316   1.193  34.758  1.00  0.00     0.161 HD
BRANCH  11  13
HETATM   13  C4  UNL     1      43.398   1.230  35.209  1.00  0.00     0.122 C
BRANCH  13  14
HETATM   14  C3  UNL     1      44.360   1.697  34.155  1.00  0.00     0.019 C
BRANCH  14  15
HETATM   15  C2  UNL     1      45.555   0.791  34.024  1.00  0.00    -0.003 C
HETATM   16  C1  UNL     1      45.905   0.224  35.401  1.00  0.00     0.005 C
ENDBRANCH  14  15
ENDBRANCH  13  14
ENDBRANCH  11  13
ENDBRANCH   9  11
ENDBRANCH   7   9
ENDBRANCH   1   7
BRANCH   5  17
HETATM   17  C7  UNL     1      43.940  -1.767  28.025  1.00  0.00     0.043 A
HETATM   18  C8  UNL     1      43.925  -1.005  26.889  1.00  0.00     0.049 A
HETATM   19  C9  UNL     1      43.919  -1.563  25.601  1.00  0.00     0.019 A
HETATM   20 BR1  UNL     1      43.899  -0.429  24.080  1.00  0.00    -0.051 Br
HETATM   21  C10 UNL     1      43.931  -2.931  25.448  1.00  0.00    -0.044 A
HETATM   22  C11 UNL     1      43.926  -3.539  24.091  1.00  0.00     0.049 C
HETATM   23  C12 UNL     1      43.946  -3.719  26.573  1.00  0.00     0.017 A
HETATM   24  C13 UNL     1      43.950  -3.145  27.829  1.00  0.00    -0.035 A
HETATM   25  C14 UNL     1      43.968  -4.017  29.017  1.00  0.00     0.050 C
ENDBRANCH   5  17
TORSDOF 7
ENDMDL