MODEL 4
REMARK VINA RESULT: -5.734523380      2.943      5.380
REMARK  5 active torsions:
REMARK  status: ('A' for Active; 'I' for Inactive)
REMARK    1  A    between atoms: C2_2  and  N1_4
REMARK       I    between atoms: N1_4  and  C4_6
REMARK    2  A    between atoms: C4_6  and  C5_8
REMARK    3  A    between atoms: C5_8  and  N2_9
REMARK    4  A    between atoms: C5_8  and  C7_16
REMARK       I    between atoms: N2_9  and  C6_11
REMARK    5  A    between atoms: C12_22  and  C13_23
ROOT
HETATM    1  C5  UNL     1      43.157  -3.180  29.891  1.00  0.00     0.114 C
ENDROOT
BRANCH   1   2
HETATM    2  C4  UNL     1      42.856  -3.227  28.419  1.00  0.00     0.269 C
HETATM    3  N1  UNL     1      43.868  -2.905  27.502  1.00  0.00    -0.352 N
ATOM      4  H1  UNL     1      44.790  -2.648  27.854  1.00  0.00     0.163 HD
HETATM    5  O1  UNL     1      41.740  -3.546  27.972  1.00  0.00    -0.266 OA
BRANCH   3   6
HETATM    6  C2  UNL     1      43.642  -2.926  26.058  1.00  0.00     0.076 C
HETATM    7  C1  UNL     1      44.030  -1.620  25.417  1.00  0.00     0.032 C
HETATM    8  C3  UNL     1      44.492  -4.016  25.442  1.00  0.00     0.032 C
ENDBRANCH   3   6
ENDBRANCH   1   2
BRANCH   1   9
HETATM    9  N2  UNL     1      43.393  -1.906  30.438  1.00  0.00    -0.326 N
HETATM   10  C6  UNL     1      42.698  -0.753  30.144  1.00  0.00     0.186 C
HETATM   11  N3  UNL     1      43.325   0.148  29.422  1.00  0.00    -0.373 N
HETATM   12  N4  UNL     1      41.407  -0.438  30.540  1.00  0.00    -0.064 NA
ATOM     13  H32 UNL     1      44.275  -0.084  29.131  1.00  0.00     0.158 HD
ATOM     14  H31 UNL     1      42.810   1.002  29.205  1.00  0.00     0.158 HD
ATOM     15  H2  UNL     1      44.152  -1.828  31.116  1.00  0.00     0.169 HD
ENDBRANCH   1   9
BRANCH   1  16
HETATM   16  C7  UNL     1      43.210  -4.426  30.604  1.00  0.00     0.003 A
HETATM   17  C8  UNL     1      44.225  -5.366  30.306  1.00  0.00     0.016 A
HETATM   18  C9  UNL     1      44.435  -6.554  30.950  1.00  0.00     0.020 A
HETATM   19  C10 UNL     1      43.606  -6.884  31.972  1.00  0.00     0.011 A
HETATM   20 BR1  UNL     1      43.815  -8.518  32.937  1.00  0.00    -0.051 Br
HETATM   21  C11 UNL     1      42.606  -5.994  32.290  1.00  0.00     0.027 A
HETATM   22  C12 UNL     1      42.369  -4.769  31.641  1.00  0.00    -0.037 A
BRANCH  22  23
HETATM   23  C13 UNL     1      41.233  -3.977  32.039  1.00  0.00    -0.023 C
HETATM   24  C14 UNL     1      40.193  -3.694  30.984  1.00  0.00     0.019 C
HETATM   25  C15 UNL     1      41.450  -2.850  33.011  1.00  0.00     0.019 C
HETATM   26  C16 UNL     1      40.363  -4.950  32.920  1.00  0.00     0.019 C
ENDBRANCH  22  23
ENDBRANCH   1  16
TORSDOF 5
ENDMDL