MODEL 5
REMARK VINA RESULT: -7.258540204      4.541      9.395
REMARK  4 active torsions:
REMARK  status: ('A' for Active; 'I' for Inactive)
REMARK    1  A    between atoms: C3_3  and  N1_4
REMARK       I    between atoms: N1_4  and  C4_6
REMARK       I    between atoms: C4_6  and  N2_8
REMARK    2  A    between atoms: N2_8  and  C5_10
REMARK    3  A    between atoms: C8_13  and  N3_14
REMARK       I    between atoms: N3_14  and  C9_16
REMARK       I    between atoms: C9_16  and  N5_22
REMARK       I    between atoms: N4_17  and  C10_19
REMARK    4  A    between atoms: N5_22  and  C12_24
ROOT
HETATM    1  C1  UNL     1      44.344  -1.529  26.473  1.00  0.00     0.014 C
HETATM    2  C2  UNL     1      43.529  -1.986  27.245  1.00  0.00    -0.098 C
HETATM    3  C3  UNL     1      42.529  -2.519  28.172  1.00  0.00     0.217 C
ENDROOT
BRANCH   3   4
HETATM    4  N1  UNL     1      42.190  -1.532  29.174  1.00  0.00    -0.333 N
HETATM    5  C4  UNL     1      42.735  -1.604  30.507  1.00  0.00     0.321 C
HETATM    6  O1  UNL     1      43.511  -2.543  30.781  1.00  0.00    -0.247 OA
HETATM    7  N2  UNL     1      42.398  -0.643  31.461  1.00  0.00    -0.309 N
ATOM      8  H2  UNL     1      41.750   0.092  31.178  1.00  0.00     0.170 HD
ATOM      9  H1  UNL     1      41.554  -0.772  28.934  1.00  0.00     0.165 HD
BRANCH   7  10
HETATM   10  C5  UNL     1      42.880  -0.609  32.781  1.00  0.00     0.036 A
HETATM   11  C6  UNL     1      42.335  -1.253  33.843  1.00  0.00     0.032 A
HETATM   12  C7  UNL     1      42.887  -1.132  35.126  1.00  0.00     0.032 A
HETATM   13  C8  UNL     1      43.998  -0.351  35.324  1.00  0.00     0.049 A
HETATM   14  C18 UNL     1      44.576   0.319  34.253  1.00  0.00     0.032 A
HETATM   15  C19 UNL     1      44.014   0.179  33.024  1.00  0.00     0.032 A
BRANCH  13  16
HETATM   16  N3  UNL     1      44.553  -0.235  36.639  1.00  0.00    -0.192 N
HETATM   17  C9  UNL     1      45.346   0.880  37.003  1.00  0.00     0.685 C
HETATM   18  N4  UNL     1      44.853   1.734  37.830  1.00  0.00    -0.160 N
HETATM   19  N5  UNL     1      46.649   1.099  36.501  1.00  0.00    -0.192 N
HETATM   20  C10 UNL     1      43.566   1.594  38.376  1.00  0.00     0.231 C
ATOM     21  H4  UNL     1      45.417   2.541  38.099  1.00  0.00     0.187 HD
HETATM   22  C11 UNL     1      43.144   2.488  39.489  1.00  0.00     0.118 C
HETATM   23  O2  UNL     1      42.726   0.740  37.975  1.00  0.00    -0.273 OA
ATOM     24  H5  UNL     1      46.808   1.950  35.962  1.00  0.00     0.184 HD
ATOM     25  H3  UNL     1      44.374  -0.968  37.325  1.00  0.00     0.184 HD
BRANCH  19  26
HETATM   26  C12 UNL     1      47.755   0.226  36.690  1.00  0.00     0.049 A
HETATM   27  C13 UNL     1      48.316   0.040  37.932  1.00  0.00     0.033 A
HETATM   28  C14 UNL     1      49.397  -0.822  38.080  1.00  0.00     0.044 A
HETATM   29  C15 UNL     1      49.923  -1.504  36.990  1.00  0.00     0.116 A
HETATM   30  F1  UNL     1      50.992  -2.348  37.175  1.00  0.00    -0.206 F
HETATM   31  C16 UNL     1      49.344  -1.299  35.768  1.00  0.00     0.044 A
HETATM   32  C17 UNL     1      48.283  -0.457  35.606  1.00  0.00     0.033 A
ENDBRANCH  19  26
ENDBRANCH  13  16
ENDBRANCH   7  10
ENDBRANCH   3   4
TORSDOF 4
ENDMDL