MODEL 1
REMARK VINA RESULT: -6.601102905      0.000      0.000
REMARK  8 active torsions:
REMARK  status: ('A' for Active; 'I' for Inactive)
REMARK    1  A    between atoms: C2_2  and  C3_3
REMARK    2  A    between atoms: C4_4  and  C5_5
REMARK    3  A    between atoms: C5_5  and  N1_6
REMARK       I    between atoms: N1_6  and  C6_7
REMARK    4  A    between atoms: C6_7  and  C7_9
REMARK    5  A    between atoms: C8_10  and  C9_11
REMARK       I    between atoms: C9_11  and  N2_13
REMARK    6  A    between atoms: N2_13  and  C10_15
REMARK    7  A    between atoms: C10_15  and  C11_16
REMARK    8  A    between atoms: C20_28  and  N5_29
ROOT
HETATM    1  C7  UNL     1      43.707  -2.367  27.531  1.00  0.00     0.125 A
HETATM    2  C8  UNL     1      43.446  -3.654  27.887  1.00  0.00     0.137 A
HETATM    3  N3  UNL     1      43.472  -4.417  26.752  1.00  0.00    -0.291 N
ATOM      4  H3  UNL     1      43.314  -5.423  26.710  1.00  0.00     0.187 HD
HETATM    5  N4  UNL     1      43.732  -3.645  25.733  1.00  0.00    -0.280 N
HETATM    6  C19 UNL     1      43.851  -4.008  24.313  1.00  0.00     0.179 C
HETATM    7  C20 UNL     1      43.886  -2.352  26.178  1.00  0.00     0.135 A
ENDROOT
BRANCH   2   8
HETATM    8  C9  UNL     1      43.058  -4.204  29.214  1.00  0.00     0.271 C
HETATM    9  O2  UNL     1      43.856  -3.930  30.130  1.00  0.00    -0.266 OA
HETATM   10  N2  UNL     1      41.892  -4.943  29.303  1.00  0.00    -0.345 N
ATOM     11  H2  UNL     1      41.393  -5.068  28.422  1.00  0.00     0.163 HD
BRANCH  10  12
HETATM   12  C10 UNL     1      41.267  -5.572  30.465  1.00  0.00     0.047 A
HETATM   13  C15 UNL     1      39.854  -6.045  30.092  1.00  0.00     0.043 A
HETATM   14  C16 UNL     1      40.134  -4.809  30.994  1.00  0.00    -0.019 A
HETATM   15  C17 UNL     1      39.463  -4.938  32.305  1.00  0.00     0.017 C
HETATM   16  C18 UNL     1      39.787  -3.479  30.303  1.00  0.00     0.017 C
BRANCH  12  17
HETATM   17  C11 UNL     1      42.093  -6.570  31.127  1.00  0.00    -0.025 C
HETATM   18  C12 UNL     1      42.729  -6.129  32.410  1.00  0.00     0.017 C
HETATM   19  C13 UNL     1      41.169  -7.764  31.475  1.00  0.00     0.017 C
HETATM   20  C14 UNL     1      43.199  -7.195  30.321  1.00  0.00     0.017 C
ENDBRANCH  12  17
ENDBRANCH  10  12
ENDBRANCH   2   8
BRANCH   1  21
HETATM   21  C6  UNL     1      43.880  -1.230  28.496  1.00  0.00     0.332 C
HETATM   22  N1  UNL     1      42.998  -0.901  29.442  1.00  0.00    -0.370 NA
HETATM   23  O1  UNL     1      44.997  -0.619  28.285  1.00  0.00    -0.251 OA
BRANCH  22  24
HETATM   24  C5  UNL     1      42.070  -0.554  30.437  1.00  0.00     0.250 C
BRANCH  24  25
HETATM   25  C4  UNL     1      42.241  -1.374  31.669  1.00  0.00    -0.047 C
HETATM   26  C3  UNL     1      42.347  -2.037  32.673  1.00  0.00    -0.100 C
BRANCH  26  27
HETATM   27  C2  UNL     1      42.442  -2.829  33.878  1.00  0.00     0.090 C
HETATM   28  C1  UNL     1      41.221  -2.736  34.772  1.00  0.00     0.018 C
ENDBRANCH  26  27
ENDBRANCH  24  25
ENDBRANCH  22  24
ENDBRANCH   1  21
BRANCH   7  29
HETATM   29  N5  UNL     1      44.164  -1.352  25.429  1.00  0.00    -0.383 N
ATOM     30  H52 UNL     1      43.534  -0.572  25.242  1.00  0.00     0.157 HD
ATOM     31  H51 UNL     1      45.020  -1.179  24.901  1.00  0.00     0.157 HD
ENDBRANCH   7  29
TORSDOF 8
ENDMDL