MODEL 1
REMARK VINA RESULT: -7.022063453      0.000      0.000
REMARK  5 active torsions:
REMARK  status: ('A' for Active; 'I' for Inactive)
REMARK       I    between atoms: C1_4  and  N2_5
REMARK       I    between atoms: C1_4  and  N6_23
REMARK       I    between atoms: C2_7  and  N3_8
REMARK       I    between atoms: C2_7  and  N5_14
REMARK    1  A    between atoms: N3_8  and  N4_10
REMARK    2  A    between atoms: N4_10  and  C3_12
REMARK    3  A    between atoms: N5_14  and  C4_16
REMARK    4  A    between atoms: N6_23  and  C10_25
REMARK    5  A    between atoms: C10_25  and  C11_26
ROOT
HETATM    1  N1  UNL     1      42.754  -0.250  30.094  1.00  0.00    -0.234 N
ATOM      2  H11 UNL     1      43.765  -0.387  30.071  1.00  0.00     0.174 HD
ATOM      3  H12 UNL     1      42.335   0.657  30.300  1.00  0.00     0.174 HD
HETATM    4  C1  UNL     1      42.030  -1.285  29.850  1.00  0.00     0.686 C
HETATM    5  N2  UNL     1      40.617  -1.093  29.882  1.00  0.00    -0.021 N
ATOM      6  H2  UNL     1      40.206  -0.462  29.195  1.00  0.00     0.203 HD
HETATM    7  C2  UNL     1      39.838  -1.657  30.710  1.00  0.00     0.712 C
HETATM    8  N3  UNL     1      40.346  -2.546  31.691  1.00  0.00    -0.129 N
ATOM      9  H3  UNL     1      39.886  -3.451  31.795  1.00  0.00     0.205 HD
HETATM   10  N5  UNL     1      38.450  -1.387  30.644  1.00  0.00    -0.189 N
ATOM     11  H5  UNL     1      37.894  -1.905  29.964  1.00  0.00     0.184 HD
HETATM   12  N6  UNL     1      42.612  -2.545  29.566  1.00  0.00    -0.222 N
ATOM     13  H6  UNL     1      42.099  -3.397  29.792  1.00  0.00     0.178 HD
ENDROOT
BRANCH   8  14
HETATM   14  N4  UNL     1      41.432  -2.266  32.523  1.00  0.00    -0.263 N
ATOM     15  H4  UNL     1      42.323  -2.750  32.409  1.00  0.00     0.190 HD
BRANCH  14  16
HETATM   16  C3  UNL     1      41.271  -1.393  33.422  1.00  0.00     0.369 C
HETATM   17  O1  UNL     1      41.192  -0.351  34.082  1.00  0.00    -0.282 OA
ENDBRANCH  14  16
ENDBRANCH   8  14
BRANCH  10  18
HETATM   18  C4  UNL     1      37.789  -0.451  31.455  1.00  0.00     0.066 A
HETATM   19  C5  UNL     1      38.460   0.596  32.049  1.00  0.00     0.031 A
HETATM   20  C6  UNL     1      37.789   1.506  32.845  1.00  0.00     0.002 A
HETATM   21  C7  UNL     1      36.422   1.400  33.073  1.00  0.00     0.002 A
HETATM   22  C8  UNL     1      35.761   0.360  32.482  1.00  0.00     0.021 A
HETATM   23  C9  UNL     1      36.435  -0.557  31.682  1.00  0.00     0.038 A
HETATM   24 BR1  UNL     1      35.400  -1.968  30.910  1.00  0.00    -0.049 Br
ENDBRANCH  10  18
BRANCH  12  25
HETATM   25  C10 UNL     1      43.913  -2.641  28.966  1.00  0.00     0.176 C
BRANCH  25  26
HETATM   26  C11 UNL     1      43.927  -2.579  27.497  1.00  0.00    -0.040 A
HETATM   27  C12 UNL     1      43.966  -1.445  26.744  1.00  0.00     0.009 A
HETATM   28  C13 UNL     1      43.979  -1.533  25.365  1.00  0.00     0.001 A
HETATM   29  C14 UNL     1      43.954  -2.729  24.680  1.00  0.00     0.000 A
HETATM   30  C15 UNL     1      43.915  -3.874  25.448  1.00  0.00     0.001 A
HETATM   31  C16 UNL     1      43.901  -3.800  26.825  1.00  0.00     0.009 A
ENDBRANCH  25  26
ENDBRANCH  12  25
TORSDOF 5
ENDMDL