MODEL 1
REMARK VINA RESULT: -6.895348029      0.000      0.000
REMARK  8 active torsions:
REMARK  status: ('A' for Active; 'I' for Inactive)
REMARK       I    between atoms: C2_4  and  N2_5
REMARK       I    between atoms: C2_4  and  N3_16
REMARK    1  A    between atoms: N2_5  and  C3_7
REMARK    2  A    between atoms: C3_7  and  C4_8
REMARK    3  A    between atoms: C4_8  and  C5_9
REMARK    4  A    between atoms: C5_9  and  C6_10
REMARK    5  A    between atoms: N3_16  and  N4_18
REMARK    6  A    between atoms: N4_18  and  C12_20
REMARK    7  A    between atoms: C12_20  and  N5_22
REMARK       I    between atoms: N5_22  and  C13_24
REMARK    8  A    between atoms: C13_24  and  C14_26
ROOT
HETATM    1  C1  UNL     1      40.739  -0.546  33.057  1.00  0.00     0.165 C
HETATM    2  N1  UNL     1      42.077  -0.310  33.554  1.00  0.00    -0.229 N
ATOM      3  H1  UNL     1      42.188  -0.137  34.553  1.00  0.00     0.177 HD
HETATM    4  C2  UNL     1      43.124  -0.304  32.830  1.00  0.00     0.688 C
HETATM    5  N2  UNL     1      43.026  -0.538  31.443  1.00  0.00    -0.225 N
ATOM      6  H2  UNL     1      42.852   0.223  30.785  1.00  0.00     0.177 HD
HETATM    7  N3  UNL     1      44.380  -0.065  33.412  1.00  0.00    -0.130 N
ATOM      8  H3  UNL     1      44.958  -0.860  33.683  1.00  0.00     0.205 HD
ENDROOT
BRANCH   5   9
HETATM    9  C3  UNL     1      43.181  -1.900  30.994  1.00  0.00     0.138 C
BRANCH   9  10
HETATM   10  C4  UNL     1      42.839  -1.992  29.547  1.00  0.00     0.025 C
BRANCH  10  11
HETATM   11  C5  UNL     1      43.945  -1.332  28.745  1.00  0.00     0.040 C
BRANCH  11  12
HETATM   12  C6  UNL     1      43.951  -1.987  27.413  1.00  0.00    -0.058 A
HETATM   13  C7  UNL     1      43.944  -3.361  27.334  1.00  0.00     0.007 A
HETATM   14  C8  UNL     1      43.950  -3.920  26.078  1.00  0.00     0.001 A
HETATM   15  C9  UNL     1      43.960  -3.136  24.953  1.00  0.00     0.000 A
HETATM   16  C10 UNL     1      43.966  -1.761  25.047  1.00  0.00     0.001 A
HETATM   17  C11 UNL     1      43.961  -1.181  26.297  1.00  0.00     0.007 A
ENDBRANCH  11  12
ENDBRANCH  10  11
ENDBRANCH   9  10
ENDBRANCH   5   9
BRANCH   7  18
HETATM   18  N4  UNL     1      44.857   1.221  33.628  1.00  0.00    -0.262 N
ATOM     19  H4  UNL     1      45.220   1.776  32.854  1.00  0.00     0.190 HD
BRANCH  18  20
HETATM   20  C12 UNL     1      44.831   1.745  34.937  1.00  0.00     0.193 C
HETATM   21  S1  UNL     1      43.549   2.647  35.377  1.00  0.00    -0.039 SA
BRANCH  20  22
HETATM   22  N5  UNL     1      45.870   1.511  35.868  1.00  0.00    -0.302 N
HETATM   23  C13 UNL     1      46.099   0.264  36.500  1.00  0.00     0.231 C
HETATM   24  O1  UNL     1      45.340  -0.697  36.219  1.00  0.00    -0.272 OA
ATOM     25  H5  UNL     1      46.491   2.287  36.098  1.00  0.00     0.171 HD
BRANCH  23  26
HETATM   26  C14 UNL     1      47.194   0.049  37.473  1.00  0.00     0.030 C
HETATM   27  C15 UNL     1      47.104  -1.354  38.036  1.00  0.00     0.025 C
HETATM   28  C16 UNL     1      47.076   1.018  38.630  1.00  0.00     0.025 C
HETATM   29  C17 UNL     1      48.551   0.173  36.815  1.00  0.00     0.025 C
ENDBRANCH  23  26
ENDBRANCH  20  22
ENDBRANCH  18  20
ENDBRANCH   7  18
TORSDOF 8
ENDMDL