MODEL 1
REMARK VINA RESULT: -6.694508576      0.000      0.000
REMARK  8 active torsions:
REMARK  status: ('A' for Active; 'I' for Inactive)
REMARK    1  A    between atoms: C2_2  and  C3_3
REMARK    2  A    between atoms: C3_3  and  C4_4
REMARK    3  A    between atoms: N1_11  and  C10_13
REMARK    4  A    between atoms: N2_15  and  N3_17
REMARK       I    between atoms: N3_17  and  C12_19
REMARK       I    between atoms: C12_19  and  N4_21
REMARK    5  A    between atoms: N4_21  and  N5_23
REMARK    6  A    between atoms: N5_23  and  C13_25
REMARK    7  A    between atoms: C13_25  and  N6_27
REMARK    8  A    between atoms: N6_27  and  C14_29
ROOT
HETATM    1  C10 UNL     1      43.613  -0.161  33.668  1.00  0.00     0.091 C
HETATM    2  C11 UNL     1      43.042  -1.283  34.439  1.00  0.00     0.090 C
HETATM    3  N2  UNL     1      43.325  -0.045  32.427  1.00  0.00    -0.285 N
ATOM      4  H2  UNL     1      43.721   0.733  31.898  1.00  0.00     0.188 HD
ENDROOT
BRANCH   3   5
HETATM    5  N3  UNL     1      42.479  -0.954  31.769  1.00  0.00    -0.249 N
HETATM    6  C12 UNL     1      42.731  -1.407  30.449  1.00  0.00     0.353 C
HETATM    7  O1  UNL     1      43.740  -0.989  29.836  1.00  0.00    -0.244 OA
HETATM    8  N4  UNL     1      41.851  -2.325  29.824  1.00  0.00    -0.248 N
ATOM      9  H4  UNL     1      41.028  -2.670  30.317  1.00  0.00     0.192 HD
ATOM     10  H3  UNL     1      41.655  -1.302  32.259  1.00  0.00     0.192 HD
BRANCH   8  11
HETATM   11  N5  UNL     1      42.127  -2.747  28.531  1.00  0.00    -0.272 N
ATOM     12  H5  UNL     1      41.826  -2.175  27.741  1.00  0.00     0.189 HD
BRANCH  11  13
HETATM   13  C13 UNL     1      42.812  -3.944  28.292  1.00  0.00     0.186 C
HETATM   14  S1  UNL     1      42.669  -5.176  29.349  1.00  0.00    -0.040 SA
BRANCH  13  15
HETATM   15  N6  UNL     1      43.634  -4.126  27.156  1.00  0.00    -0.362 N
ATOM     16  H6  UNL     1      44.227  -4.954  27.088  1.00  0.00     0.162 HD
BRANCH  15  17
HETATM   17  C14 UNL     1      43.641  -3.137  26.079  1.00  0.00     0.076 C
HETATM   18  C15 UNL     1      43.917  -3.846  24.787  1.00  0.00     0.032 C
HETATM   19  C16 UNL     1      44.759  -2.151  26.378  1.00  0.00     0.032 C
ENDBRANCH  15  17
ENDBRANCH  13  15
ENDBRANCH  11  13
ENDBRANCH   8  11
ENDBRANCH   3   5
BRANCH   1  20
HETATM   20  N1  UNL     1      44.460   0.760  34.301  1.00  0.00    -0.352 N
HETATM   21  C2  UNL     1      44.062   1.701  35.081  1.00  0.00    -0.012 C
HETATM   22  C1  UNL     1      42.625   1.859  35.356  1.00  0.00     0.063 C
ATOM     23  H1  UNL     1      45.462   0.678  34.130  1.00  0.00     0.166 HD
BRANCH  21  24
HETATM   24  C3  UNL     1      45.062   2.610  35.682  1.00  0.00     0.092 C
BRANCH  24  25
HETATM   25  C4  UNL     1      45.394   2.286  37.080  1.00  0.00    -0.031 A
HETATM   26  C5  UNL     1      46.159   1.185  37.395  1.00  0.00     0.009 A
HETATM   27  C6  UNL     1      46.487   0.861  38.690  1.00  0.00     0.001 A
HETATM   28  C7  UNL     1      46.057   1.635  39.758  1.00  0.00     0.002 A
HETATM   29  C8  UNL     1      45.291   2.737  39.452  1.00  0.00     0.024 A
HETATM   30  C9  UNL     1      44.969   3.053  38.150  1.00  0.00     0.040 A
HETATM   31 CL1  UNL     1      43.986   4.468  37.780  1.00  0.00    -0.084 Cl
ENDBRANCH  24  25
ENDBRANCH  21  24
ENDBRANCH   1  20
TORSDOF 8
ENDMDL