MODEL 5
REMARK VINA RESULT: -5.664667740      3.223      4.204
REMARK  6 active torsions:
REMARK  status: ('A' for Active; 'I' for Inactive)
REMARK    1  A    between atoms: C2_2  and  N1_3
REMARK    2  A    between atoms: C2_2  and  C13_22
REMARK       I    between atoms: N1_3  and  C3_5
REMARK       I    between atoms: C3_5  and  N2_7
REMARK    3  A    between atoms: N2_7  and  C4_9
REMARK    4  A    between atoms: C8_16  and  C9_17
REMARK    5  A    between atoms: C9_17  and  C12_20
REMARK    6  A    between atoms: C13_22  and  O2_25
ROOT
HETATM    1  C4  UNL     1      42.912  -1.141  30.136  1.00  0.00     0.116 A
HETATM    2  N3  UNL     1      44.068  -1.072  29.469  1.00  0.00    -0.350 N
ATOM      3  H3  UNL     1      44.796  -0.452  29.825  1.00  0.00     0.166 HD
HETATM    4  C5  UNL     1      44.328  -1.788  28.337  1.00  0.00     0.108 A
HETATM    5  C6  UNL     1      43.382  -2.635  27.824  1.00  0.00     0.027 A
HETATM    6 BR1  UNL     1      43.708  -3.655  26.253  1.00  0.00    -0.050 Br
HETATM    7  C7  UNL     1      42.151  -2.757  28.469  1.00  0.00     0.032 A
HETATM    8  C8  UNL     1      41.937  -2.015  29.604  1.00  0.00    -0.004 A
ENDROOT
BRANCH   1   9
HETATM    9  N2  UNL     1      42.602  -0.514  31.205  1.00  0.00    -0.294 N
HETATM   10  C3  UNL     1      43.187  -0.783  32.453  1.00  0.00     0.322 C
HETATM   11  N1  UNL     1      43.641   0.308  33.306  1.00  0.00    -0.336 N
HETATM   12  O1  UNL     1      43.371  -1.938  32.944  1.00  0.00    -0.247 OA
ATOM     13  H1  UNL     1      43.530   1.273  32.996  1.00  0.00     0.164 HD
ATOM     14  H2  UNL     1      41.894   0.218  31.149  1.00  0.00     0.172 HD
BRANCH  11  15
HETATM   15  C2  UNL     1      44.239   0.035  34.575  1.00  0.00     0.115 C
HETATM   16  C1  UNL     1      43.249   0.272  35.725  1.00  0.00     0.035 C
BRANCH  15  17
HETATM   17  C13 UNL     1      45.464   0.862  34.837  1.00  0.00     0.070 C
HETATM   18  C14 UNL     1      45.095   2.154  35.557  1.00  0.00     0.047 C
HETATM   19  C15 UNL     1      46.505   0.155  35.647  1.00  0.00     0.047 C
BRANCH  17  20
HETATM   20  O2  UNL     1      46.041   1.162  33.588  1.00  0.00    -0.389 OA
ATOM     21  H2  UNL     1      46.703   1.827  33.734  1.00  0.00     0.210 HD
ENDBRANCH  17  20
ENDBRANCH  15  17
ENDBRANCH  11  15
ENDBRANCH   1   9
BRANCH   8  22
HETATM   22  C9  UNL     1      40.640  -2.075  30.342  1.00  0.00    -0.008 C
HETATM   23  C10 UNL     1      40.101  -0.729  30.690  1.00  0.00     0.021 C
HETATM   24  C11 UNL     1      40.783  -2.978  31.569  1.00  0.00     0.021 C
BRANCH  22  25
HETATM   25  C12 UNL     1      39.634  -2.759  29.444  1.00  0.00     0.099 C
HETATM   26  S1  UNL     1      37.940  -2.572  30.079  1.00  0.00    -0.097 SA
ENDBRANCH  22  25
ENDBRANCH   8  22
TORSDOF 6
ENDMDL