MODEL 5
REMARK VINA RESULT: -6.504136093      1.225      1.512
REMARK  8 active torsions:
REMARK  status: ('A' for Active; 'I' for Inactive)
REMARK    1  A    between atoms: C2_2  and  C4_4
REMARK    2  A    between atoms: C4_4  and  N1_6
REMARK    3  A    between atoms: N1_6  and  N2_8
REMARK       I    between atoms: N2_8  and  C5_10
REMARK    4  A    between atoms: C5_10  and  C6_12
REMARK    5  A    between atoms: C6_12  and  N3_13
REMARK    6  A    between atoms: N3_13  and  C7_15
REMARK    7  A    between atoms: C7_15  and  N4_17
REMARK    8  A    between atoms: N4_17  and  C8_19
ROOT
HETATM    1  N3  UNL     1      43.523  -1.227  31.787  1.00  0.00    -0.358 N
ATOM      2  H3  UNL     1      44.389  -1.718  31.563  1.00  0.00     0.162 HD
ENDROOT
BRANCH   1   3
HETATM    3  C6  UNL     1      43.222  -0.919  33.154  1.00  0.00     0.226 C
BRANCH   3   4
HETATM    4  C5  UNL     1      43.821   0.328  33.657  1.00  0.00     0.253 C
HETATM    5  N2  UNL     1      43.045   1.215  34.423  1.00  0.00    -0.268 N
ATOM      6  H2  UNL     1      42.068   1.005  34.631  1.00  0.00     0.190 HD
HETATM    7  O1  UNL     1      45.006   0.587  33.399  1.00  0.00    -0.270 OA
BRANCH   5   8
HETATM    8  N1  UNL     1      43.640   2.388  34.891  1.00  0.00    -0.291 N
ATOM      9  H1  UNL     1      44.037   3.028  34.203  1.00  0.00     0.187 HD
BRANCH   8  10
HETATM   10  C4  UNL     1      43.730   2.746  36.249  1.00  0.00     0.095 C
HETATM   11  S1  UNL     1      42.374   2.965  37.130  1.00  0.00    -0.064 SA
BRANCH  10  12
HETATM   12  C2  UNL     1      45.042   2.927  36.890  1.00  0.00     0.040 C
HETATM   13  C1  UNL     1      44.855   3.318  38.368  1.00  0.00     0.017 C
HETATM   14  C3  UNL     1      45.893   1.662  36.813  1.00  0.00     0.017 C
ENDBRANCH  10  12
ENDBRANCH   8  10
ENDBRANCH   5   8
ENDBRANCH   3   4
ENDBRANCH   1   3
BRANCH   1  15
HETATM   15  C7  UNL     1      42.623  -0.856  30.718  1.00  0.00     0.172 C
HETATM   16  S2  UNL     1      41.036  -0.836  31.030  1.00  0.00    -0.041 SA
BRANCH  15  17
HETATM   17  N4  UNL     1      43.141  -0.504  29.482  1.00  0.00    -0.333 N
ATOM     18  H4  UNL     1      43.399   0.473  29.339  1.00  0.00     0.168 HD
BRANCH  17  19
HETATM   19  C8  UNL     1      43.338  -1.396  28.408  1.00  0.00     0.034 A
HETATM   20  C9  UNL     1      43.027  -2.724  28.459  1.00  0.00     0.031 A
HETATM   21  C10 UNL     1      43.225  -3.517  27.341  1.00  0.00     0.021 A
HETATM   22  C11 UNL     1      43.728  -3.020  26.162  1.00  0.00     0.011 A
HETATM   23 BR1  UNL     1      43.995  -4.127  24.629  1.00  0.00    -0.051 Br
HETATM   24  C12 UNL     1      44.037  -1.666  26.133  1.00  0.00     0.021 A
HETATM   25  C13 UNL     1      43.853  -0.863  27.216  1.00  0.00     0.031 A
ENDBRANCH  17  19
ENDBRANCH  15  17
ENDBRANCH   1  15
TORSDOF 8
ENDMDL