MODEL 5
REMARK VINA RESULT: -7.111582842      1.591      2.259
REMARK  12 active torsions:
REMARK  status: ('A' for Active; 'I' for Inactive)
REMARK    1  A    between atoms: O1_1  and  C1_3
REMARK    2  A    between atoms: C1_3  and  N1_4
REMARK    3  A    between atoms: C1_3  and  N4_21
REMARK    4  A    between atoms: N1_4  and  N2_6
REMARK    5  A    between atoms: N2_6  and  C2_8
REMARK    6  A    between atoms: C2_8  and  N3_10
REMARK    7  A    between atoms: N3_10  and  C3_12
REMARK    8  A    between atoms: C3_12  and  C4_13
REMARK    9  A    between atoms: C4_13  and  C5_14
REMARK   10  A    between atoms: N4_21  and  C11_23
REMARK   11  A    between atoms: C11_23  and  O2_24
REMARK   12  A    between atoms: C11_23  and  C12_26
ROOT
HETATM    1  N1  UNL     1      43.496  -1.071  31.310  1.00  0.00    -0.263 N
ATOM      2  H1  UNL     1      44.000  -1.955  31.253  1.00  0.00     0.190 HD
ENDROOT
BRANCH   1   3
HETATM    3  C1  UNL     1      42.652  -0.680  30.269  1.00  0.00     0.238 C
BRANCH   3   4
HETATM    4  O1  UNL     1      41.471  -0.283  30.667  1.00  0.00    -0.331 OA
ATOM      5  H1  UNL     1      41.053   0.331  30.075  1.00  0.00     0.221 HD
ENDBRANCH   3   4
BRANCH   3   6
HETATM    6  N4  UNL     1      42.920  -0.668  28.893  1.00  0.00    -0.301 N
ATOM      7  H4  UNL     1      42.134  -0.340  28.333  1.00  0.00     0.171 HD
BRANCH   6   8
HETATM    8  C11 UNL     1      44.017  -1.005  28.139  1.00  0.00     0.153 C
BRANCH   8   9
HETATM    9  O2  UNL     1      45.185  -0.514  28.445  1.00  0.00    -0.345 OA
ATOM     10  H2  UNL     1      45.528   0.222  27.953  1.00  0.00     0.219 HD
ENDBRANCH   8   9
BRANCH   8  11
HETATM   11  C12 UNL     1      44.031  -1.886  26.995  1.00  0.00     0.015 A
HETATM   12  C13 UNL     1      43.995  -1.327  25.715  1.00  0.00     0.016 A
HETATM   13  C14 UNL     1      43.987  -2.116  24.604  1.00  0.00     0.001 A
HETATM   14  C15 UNL     1      44.016  -3.486  24.702  1.00  0.00     0.000 A
HETATM   15  C16 UNL     1      44.051  -4.073  25.966  1.00  0.00     0.001 A
HETATM   16  C17 UNL     1      44.058  -3.255  27.069  1.00  0.00     0.016 A
ENDBRANCH   8  11
ENDBRANCH   6   8
ENDBRANCH   3   6
ENDBRANCH   1   3
BRANCH   1  17
HETATM   17  N2  UNL     1      43.650  -0.251  32.430  1.00  0.00    -0.273 N
ATOM     18  H2  UNL     1      44.009   0.696  32.307  1.00  0.00     0.189 HD
BRANCH  17  19
HETATM   19  C2  UNL     1      43.325  -0.695  33.715  1.00  0.00     0.186 C
HETATM   20  S1  UNL     1      42.407  -2.064  33.913  1.00  0.00    -0.040 SA
BRANCH  19  21
HETATM   21  N3  UNL     1      43.748  -0.030  34.888  1.00  0.00    -0.366 N
ATOM     22  H3  UNL     1      43.085   0.149  35.641  1.00  0.00     0.161 HD
BRANCH  21  23
HETATM   23  C3  UNL     1      45.120   0.393  35.013  1.00  0.00     0.126 C
BRANCH  23  24
HETATM   24  C4  UNL     1      45.215   1.836  35.392  1.00  0.00     0.060 C
BRANCH  24  25
HETATM   25  C5  UNL     1      45.477   1.998  36.847  1.00  0.00    -0.035 A
HETATM   26  C6  UNL     1      46.255   1.123  37.562  1.00  0.00     0.009 A
HETATM   27  C7  UNL     1      46.477   1.276  38.921  1.00  0.00     0.001 A
HETATM   28  C8  UNL     1      45.898   2.346  39.589  1.00  0.00     0.002 A
HETATM   29  C9  UNL     1      45.120   3.210  38.844  1.00  0.00     0.024 A
HETATM   30  C10 UNL     1      44.895   3.065  37.489  1.00  0.00     0.040 A
HETATM   31 CL1  UNL     1      43.884   4.233  36.618  1.00  0.00    -0.084 Cl
ENDBRANCH  24  25
ENDBRANCH  23  24
ENDBRANCH  21  23
ENDBRANCH  19  21
ENDBRANCH  17  19
ENDBRANCH   1  17
TORSDOF 12
ENDMDL