MODEL 2
REMARK VINA RESULT: -6.137481591      6.370      9.663
REMARK  6 active torsions:
REMARK  status: ('A' for Active; 'I' for Inactive)
REMARK    1  A    between atoms: C3_3  and  N1_4
REMARK       I    between atoms: N1_4  and  C4_6
REMARK       I    between atoms: C4_6  and  N2_8
REMARK    2  A    between atoms: N2_8  and  C5_10
REMARK    3  A    between atoms: C5_10  and  C6_11
REMARK    4  A    between atoms: C6_11  and  C7_12
REMARK    5  A    between atoms: C15_21  and  O2_22
REMARK    6  A    between atoms: C18_26  and  O3_27
ROOT
HETATM    1  C1  UNL     1      39.960  -1.594  30.653  1.00  0.00     0.012 C
HETATM    2  C2  UNL     1      40.905  -2.316  31.565  1.00  0.00     0.009 C
HETATM    3  C3  UNL     1      42.335  -2.245  31.085  1.00  0.00     0.090 C
HETATM    4  C8  UNL     1      43.082  -1.551  32.222  1.00  0.00     0.031 C
HETATM    5  C9  UNL     1      42.309  -1.938  33.454  1.00  0.00    -0.001 C
HETATM    6  C10 UNL     1      40.889  -1.777  32.974  1.00  0.00    -0.004 C
HETATM    7  C11 UNL     1      40.529  -0.331  32.993  1.00  0.00     0.006 C
HETATM    8  C12 UNL     1      40.504   0.147  34.400  1.00  0.00     0.012 C
HETATM    9  C13 UNL     1      41.524  -0.414  35.318  1.00  0.00    -0.012 C
HETATM   10  C14 UNL     1      40.794  -1.295  36.347  1.00  0.00     0.018 C
HETATM   11  C15 UNL     1      42.087   0.745  36.143  1.00  0.00     0.127 C
HETATM   12  C16 UNL     1      42.821   1.751  35.325  1.00  0.00     0.035 C
HETATM   13  C17 UNL     1      43.755   1.090  34.366  1.00  0.00     0.034 C
HETATM   14  C18 UNL     1      43.926  -0.374  34.573  1.00  0.00     0.123 C
HETATM   15  C19 UNL     1      42.648  -1.173  34.684  1.00  0.00     0.029 C
ENDROOT
BRANCH   3  16
HETATM   16  N1  UNL     1      42.473  -1.461  29.889  1.00  0.00    -0.338 N
HETATM   17  C4  UNL     1      43.460  -1.812  28.946  1.00  0.00     0.316 C
HETATM   18  O1  UNL     1      44.231  -2.808  29.134  1.00  0.00    -0.247 OA
HETATM   19  N2  UNL     1      43.602  -1.056  27.774  1.00  0.00    -0.343 N
ATOM     20  H2  UNL     1      42.995  -0.254  27.606  1.00  0.00     0.164 HD
ATOM     21  H1  UNL     1      41.864  -0.660  29.724  1.00  0.00     0.164 HD
BRANCH  19  22
HETATM   22  C5  UNL     1      44.611  -1.416  26.809  1.00  0.00     0.125 C
BRANCH  22  23
HETATM   23  C6  UNL     1      43.987  -2.002  25.548  1.00  0.00     0.034 C
BRANCH  23  24
HETATM   24  C7  UNL     1      44.087  -3.524  25.722  1.00  0.00     0.116 C
HETATM   25 CL1  UNL     1      43.560  -4.379  24.280  1.00  0.00    -0.130 Cl
ENDBRANCH  23  24
ENDBRANCH  22  23
ENDBRANCH  19  22
ENDBRANCH   3  16
BRANCH  14  26
HETATM   26  O3  UNL     1      44.743  -0.523  35.723  1.00  0.00    -0.395 OA
ATOM     27  H3  UNL     1      44.595   0.248  36.258  1.00  0.00     0.210 HD
ENDBRANCH  14  26
BRANCH  11  28
HETATM   28  O2  UNL     1      40.948   1.400  36.668  1.00  0.00    -0.395 OA
ATOM     29  H2  UNL     1      41.188   1.623  37.560  1.00  0.00     0.210 HD
ENDBRANCH  11  28
TORSDOF 6
ENDMDL