MODEL 4
REMARK VINA RESULT: -5.522790683      3.813      6.639
REMARK  8 active torsions:
REMARK  status: ('A' for Active; 'I' for Inactive)
REMARK    1  A    between atoms: C4_4  and  N1_5
REMARK    2  A    between atoms: C7_8  and  C8_9
REMARK    3  A    between atoms: C7_8  and  C10_11
REMARK    4  A    between atoms: C14_17  and  N3_18
REMARK    5  A    between atoms: C15_23  and  N5_24
REMARK    6  A    between atoms: N5_24  and  C16_26
REMARK    7  A    between atoms: C16_26  and  N6_28
REMARK    8  A    between atoms: N6_28  and  C17_30
ROOT
HETATM    1  C1  UNL     1      45.367   0.505  33.779  1.00  0.00     0.103 C
HETATM    2  C2  UNL     1      44.181   0.237  33.616  1.00  0.00    -0.141 C
HETATM    3  C3  UNL     1      42.790  -0.053  33.446  1.00  0.00     0.093 A
HETATM    4  C4  UNL     1      41.842   0.260  34.395  1.00  0.00     0.141 A
HETATM    5  N2  UNL     1      40.564  -0.062  34.106  1.00  0.00    -0.175 N
ATOM      6  H2  UNL     1      39.835   0.154  34.787  1.00  0.00     0.186 HD
HETATM    7  C14 UNL     1      40.218  -0.657  32.954  1.00  0.00     0.679 A
HETATM    8  N4  UNL     1      41.130  -0.976  32.003  1.00  0.00    -0.175 N
ATOM      9  H4  UNL     1      40.850  -1.430  31.134  1.00  0.00     0.186 HD
HETATM   10  C15 UNL     1      42.409  -0.676  32.247  1.00  0.00     0.144 A
ENDROOT
BRANCH   4  11
HETATM   11  N1  UNL     1      42.242   0.885  35.586  1.00  0.00    -0.365 N
HETATM   12  C5  UNL     1      42.404   0.106  36.801  1.00  0.00     0.125 C
HETATM   13  C6  UNL     1      43.845   0.315  37.218  1.00  0.00     0.029 C
HETATM   14  C7  UNL     1      44.108   1.779  37.618  1.00  0.00    -0.038 C
HETATM   15  C12 UNL     1      43.003   2.613  37.097  1.00  0.00     0.029 C
HETATM   16  C13 UNL     1      42.541   2.290  35.694  1.00  0.00     0.125 C
BRANCH  14  17
HETATM   17  C8  UNL     1      45.458   2.108  37.086  1.00  0.00     0.005 C
HETATM   18  C9  UNL     1      46.543   1.122  37.270  1.00  0.00     0.006 C
ENDBRANCH  14  17
BRANCH  14  19
HETATM   19  C10 UNL     1      44.068   1.754  39.128  1.00  0.00     0.005 C
HETATM   20  C11 UNL     1      44.064   3.077  39.799  1.00  0.00     0.006 C
ENDBRANCH  14  19
ENDBRANCH   4  11
BRANCH  10  21
HETATM   21  N5  UNL     1      43.331  -0.931  31.425  1.00  0.00    -0.318 N
ATOM     22  H5  UNL     1      44.261  -0.676  31.761  1.00  0.00     0.170 HD
BRANCH  21  23
HETATM   23  C16 UNL     1      43.333  -1.489  30.156  1.00  0.00     0.173 C
HETATM   24  S1  UNL     1      43.223  -3.106  29.856  1.00  0.00    -0.041 SA
BRANCH  23  25
HETATM   25  N6  UNL     1      43.448  -0.640  29.006  1.00  0.00    -0.367 N
ATOM     26  H6  UNL     1      42.837   0.168  28.890  1.00  0.00     0.161 HD
BRANCH  25  27
HETATM   27  C17 UNL     1      44.461  -0.961  28.007  1.00  0.00     0.117 C
HETATM   28  C18 UNL     1      43.826  -1.215  26.662  1.00  0.00     0.026 C
ENDBRANCH  25  27
ENDBRANCH  23  25
ENDBRANCH  21  23
ENDBRANCH  10  21
BRANCH   7  29
HETATM   29  N3  UNL     1      38.984  -0.947  32.732  1.00  0.00    -0.234 N
ATOM     30  H32 UNL     1      38.779  -1.728  32.107  1.00  0.00     0.174 HD
ATOM     31  H31 UNL     1      38.248  -0.404  33.182  1.00  0.00     0.174 HD
ENDBRANCH   7  29
TORSDOF 8
ENDMDL