MODEL 2
REMARK VINA RESULT: -7.628249865      1.442      1.939
REMARK  8 active torsions:
REMARK  status: ('A' for Active; 'I' for Inactive)
REMARK    1  A    between atoms: C1_2  and  C2_3
REMARK       I    between atoms: C1_2  and  N1_11
REMARK    2  A    between atoms: C2_3  and  C3_4
REMARK    3  A    between atoms: C3_4  and  C4_5
REMARK    4  A    between atoms: N1_11  and  N2_12
REMARK    5  A    between atoms: N2_12  and  C10_13
REMARK    6  A    between atoms: C10_13  and  N3_15
REMARK    7  A    between atoms: N3_15  and  N4_17
REMARK       I    between atoms: N4_17  and  C11_19
REMARK    8  A    between atoms: C11_19  and  C12_21
ROOT
HETATM    1  C10 UNL     1      43.398   0.761  33.885  1.00  0.00     0.302 C
HETATM    2  S1  UNL     1      42.283   0.723  35.156  1.00  0.00    -0.020 SA
ENDROOT
BRANCH   1   3
HETATM    3  N2  UNL     1      43.160   0.183  32.751  1.00  0.00    -0.213 NA
BRANCH   3   4
HETATM    4  N1  UNL     1      42.914  -0.384  31.628  1.00  0.00    -0.207 NA
HETATM    5  C1  UNL     1      42.577  -0.944  30.451  1.00  0.00     0.331 C
HETATM    6  O1  UNL     1      41.537  -0.993  29.824  1.00  0.00    -0.254 OA
BRANCH   5   7
HETATM    7  C2  UNL     1      43.782  -1.664  29.691  1.00  0.00     0.150 C
BRANCH   7   8
HETATM    8  C3  UNL     1      43.926  -1.005  28.409  1.00  0.00    -0.005 C
BRANCH   8   9
HETATM    9  C4  UNL     1      43.846  -1.742  27.164  1.00  0.00    -0.040 A
HETATM   10  C5  UNL     1      43.813  -3.161  27.343  1.00  0.00     0.011 A
HETATM   11  C6  UNL     1      43.842  -3.987  26.301  1.00  0.00     0.001 A
HETATM   12  C7  UNL     1      43.905  -3.583  24.972  1.00  0.00     0.000 A
HETATM   13  C8  UNL     1      43.934  -2.212  24.767  1.00  0.00     0.001 A
HETATM   14  C9  UNL     1      43.905  -1.313  25.886  1.00  0.00     0.011 A
ENDBRANCH   8   9
ENDBRANCH   7   8
ENDBRANCH   5   7
ENDBRANCH   3   4
ENDBRANCH   1   3
BRANCH   1  15
HETATM   15  N3  UNL     1      44.547   1.589  34.132  1.00  0.00    -0.259 N
ATOM     16  H3  UNL     1      44.534   2.609  34.136  1.00  0.00     0.190 HD
BRANCH  15  17
HETATM   17  N4  UNL     1      45.731   0.782  34.374  1.00  0.00    -0.263 N
HETATM   18  C11 UNL     1      46.112   1.133  35.785  1.00  0.00     0.270 C
HETATM   19  O2  UNL     1      45.407   1.948  36.315  1.00  0.00    -0.266 OA
ATOM     20  H4  UNL     1      46.193   0.132  33.739  1.00  0.00     0.190 HD
BRANCH  18  21
HETATM   21  C12 UNL     1      47.259   0.495  36.360  1.00  0.00     0.033 A
HETATM   22  C13 UNL     1      48.051  -0.265  35.453  1.00  0.00     0.019 A
HETATM   23  C14 UNL     1      49.163  -0.942  35.901  1.00  0.00     0.025 A
HETATM   24  C15 UNL     1      49.547  -0.907  37.222  1.00  0.00     0.034 A
HETATM   25 CL1  UNL     1      50.968  -1.827  37.762  1.00  0.00    -0.084 Cl
HETATM   26  C16 UNL     1      48.800  -0.176  38.109  1.00  0.00     0.025 A
HETATM   27  C17 UNL     1      47.667   0.506  37.645  1.00  0.00     0.019 A
ENDBRANCH  18  21
ENDBRANCH  15  17
ENDBRANCH   1  15
TORSDOF 8
ENDMDL