MODEL 5
REMARK VINA RESULT: -6.164436681      2.144      2.401
REMARK  13 active torsions:
REMARK  status: ('A' for Active; 'I' for Inactive)
REMARK    1  A    between atoms: C2_2  and  C4_4
REMARK    2  A    between atoms: C2_2  and  N4_20
REMARK    3  A    between atoms: C4_4  and  O1_5
REMARK    4  A    between atoms: O1_5  and  C5_6
REMARK       I    between atoms: C5_6  and  N1_8
REMARK    5  A    between atoms: N1_8  and  N2_10
REMARK    6  A    between atoms: N2_10  and  C6_12
REMARK    7  A    between atoms: C6_12  and  N3_14
REMARK    8  A    between atoms: N3_14  and  C7_16
REMARK    9  A    between atoms: C7_16  and  C8_17
REMARK   10  A    between atoms: C8_17  and  C9_18
REMARK   11  A    between atoms: N4_20  and  C10_22
REMARK   12  A    between atoms: C10_22  and  N5_24
REMARK   13  A    between atoms: N5_24  and  C11_26
ROOT
HETATM    1  C1  UNL     1      39.504  -2.151  30.006  1.00  0.00     0.040 C
HETATM    2  C2  UNL     1      40.429  -3.292  30.355  1.00  0.00     0.047 C
HETATM    3  C3  UNL     1      39.491  -4.399  30.871  1.00  0.00     0.040 C
ENDROOT
BRANCH   2   4
HETATM    4  C4  UNL     1      41.414  -2.882  31.395  1.00  0.00     0.210 C
BRANCH   4   5
HETATM    5  O1  UNL     1      41.950  -1.652  31.336  1.00  0.00    -0.300 OA
BRANCH   5   6
HETATM    6  C5  UNL     1      43.105  -1.051  31.431  1.00  0.00     0.379 C
HETATM    7  O2  UNL     1      43.949  -1.122  30.495  1.00  0.00    -0.237 OA
HETATM    8  N1  UNL     1      43.441  -0.292  32.618  1.00  0.00    -0.243 N
ATOM      9  H1  UNL     1      42.782  -0.195  33.391  1.00  0.00     0.192 HD
BRANCH   8  10
HETATM   10  N2  UNL     1      44.685   0.292  32.660  1.00  0.00    -0.272 N
ATOM     11  H2  UNL     1      45.334   0.199  31.879  1.00  0.00     0.189 HD
BRANCH  10  12
HETATM   12  C6  UNL     1      45.044   1.039  33.837  1.00  0.00     0.186 C
HETATM   13  S1  UNL     1      43.906   1.994  34.455  1.00  0.00    -0.040 SA
BRANCH  12  14
HETATM   14  N3  UNL     1      46.292   0.869  34.431  1.00  0.00    -0.366 N
ATOM     15  H3  UNL     1      47.093   1.290  33.961  1.00  0.00     0.161 HD
BRANCH  14  16
HETATM   16  C7  UNL     1      46.545   0.161  35.631  1.00  0.00     0.123 C
BRANCH  16  17
HETATM   17  C8  UNL     1      46.634   0.954  36.872  1.00  0.00     0.030 C
BRANCH  17  18
HETATM   18  C9  UNL     1      45.551   1.005  37.857  1.00  0.00     0.086 C
HETATM   19 BR1  UNL     1      45.097   2.908  38.091  1.00  0.00    -0.096 Br
ENDBRANCH  17  18
ENDBRANCH  16  17
ENDBRANCH  14  16
ENDBRANCH  12  14
ENDBRANCH  10  12
ENDBRANCH   8  10
ENDBRANCH   5   6
ENDBRANCH   4   5
ENDBRANCH   2   4
BRANCH   2  20
HETATM   20  N4  UNL     1      41.121  -3.837  29.193  1.00  0.00    -0.356 N
ATOM     21  H4  UNL     1      40.618  -3.799  28.306  1.00  0.00     0.162 HD
BRANCH  20  22
HETATM   22  C10 UNL     1      42.399  -4.408  29.161  1.00  0.00     0.173 C
HETATM   23  S2  UNL     1      42.623  -5.942  29.661  1.00  0.00    -0.041 SA
BRANCH  22  24
HETATM   24  N5  UNL     1      43.534  -3.709  28.713  1.00  0.00    -0.318 N
ATOM     25  H5  UNL     1      44.220  -3.477  29.432  1.00  0.00     0.170 HD
BRANCH  24  26
HETATM   26  C11 UNL     1      43.822  -3.330  27.543  1.00  0.00     0.123 A
HETATM   27  C12 UNL     1      44.063  -2.059  27.086  1.00  0.00     0.068 A
HETATM   28  C13 UNL     1      44.354  -2.110  25.721  1.00  0.00     0.111 A
HETATM   29  N6  UNL     1      44.276  -3.418  25.408  1.00  0.00    -0.310 N
HETATM   30  N7  UNL     1      43.962  -4.144  26.478  1.00  0.00    -0.286 N
ATOM     31  H6  UNL     1      44.437  -3.801  24.476  1.00  0.00     0.186 HD
ATOM     32  H7  UNL     1      43.845  -5.157  26.491  1.00  0.00     0.188 HD
ENDBRANCH  24  26
ENDBRANCH  22  24
ENDBRANCH  20  22
ENDBRANCH   2  20
TORSDOF 13
ENDMDL