MODEL 4
REMARK VINA RESULT: -6.191999341      6.495      9.338
REMARK  9 active torsions:
REMARK  status: ('A' for Active; 'I' for Inactive)
REMARK    1  A    between atoms: C3_3  and  C4_4
REMARK    2  A    between atoms: C5_7  and  N2_8
REMARK       I    between atoms: N2_8  and  C6_10
REMARK       I    between atoms: C6_10  and  N3_12
REMARK    3  A    between atoms: N3_12  and  C7_14
REMARK    4  A    between atoms: C7_14  and  C8_15
REMARK    5  A    between atoms: C8_15  and  C9_16
REMARK    6  A    between atoms: C9_16  and  N5_20
REMARK    7  A    between atoms: N5_20  and  C10_22
REMARK    8  A    between atoms: C10_22  and  C11_23
REMARK    9  A    between atoms: C11_23  and  N6_24
ROOT
HETATM    1  C1  UNL     1      34.190  -0.654  27.564  1.00  0.00     0.112 C
HETATM    2  C2  UNL     1      34.972  -1.852  27.873  1.00  0.00    -0.104 C
HETATM    3  C3  UNL     1      35.623  -2.849  28.113  1.00  0.00    -0.046 C
ENDROOT
BRANCH   3   4
HETATM    4  C4  UNL     1      36.400  -4.040  28.384  1.00  0.00     0.137 A
HETATM    5  N1  UNL     1      37.452  -4.176  29.195  1.00  0.00    -0.181 N
HETATM    6  C5  UNL     1      37.921  -5.459  29.182  1.00  0.00     0.688 A
ATOM      7  H1  UNL     1      37.852  -3.421  29.751  1.00  0.00     0.185 HD
HETATM    8  N8  UNL     1      37.129  -6.133  28.334  1.00  0.00    -0.182 N
HETATM    9  C18 UNL     1      36.186  -5.282  27.830  1.00  0.00     0.132 A
ATOM     10  H8  UNL     1      37.218  -7.122  28.104  1.00  0.00     0.185 HD
HETATM   11 BR1  UNL     1      34.814  -5.715  26.588  1.00  0.00    -0.028 Br
BRANCH   6  12
HETATM   12  N2  UNL     1      38.923  -5.886  29.864  1.00  0.00    -0.141 N
HETATM   13  C6  UNL     1      39.741  -5.031  30.644  1.00  0.00     0.335 C
HETATM   14  O1  UNL     1      39.279  -4.703  31.765  1.00  0.00    -0.246 OA
HETATM   15  N3  UNL     1      40.986  -4.611  30.141  1.00  0.00    -0.331 N
ATOM     16  H3  UNL     1      41.245  -4.939  29.210  1.00  0.00     0.165 HD
ATOM     17  H2  UNL     1      39.138  -6.883  29.844  1.00  0.00     0.189 HD
BRANCH  15  18
HETATM   18  C7  UNL     1      41.939  -3.751  30.827  1.00  0.00     0.065 C
HETATM   19  C14 UNL     1      41.810  -3.993  32.323  1.00  0.00     0.035 C
HETATM   20  C15 UNL     1      42.791  -5.051  32.781  1.00  0.00     0.030 C
HETATM   21  C16 UNL     1      43.047  -6.031  31.660  1.00  0.00     0.232 C
HETATM   22  N7  UNL     1      43.678  -5.444  30.518  1.00  0.00    -0.073 N
HETATM   23  C17 UNL     1      43.352  -4.032  30.368  1.00  0.00     0.263 C
ATOM     24  H72 UNL     1      44.688  -5.588  30.541  1.00  0.00     0.277 HD
ATOM     25  H71 UNL     1      43.459  -5.965  29.669  1.00  0.00     0.277 HD
BRANCH  18  26
HETATM   26  C8  UNL     1      41.592  -2.327  30.491  1.00  0.00     0.108 C
BRANCH  26  27
HETATM   27  C9  UNL     1      42.717  -1.456  30.138  1.00  0.00     0.072 C
HETATM   28  N4  UNL     1      43.502  -1.050  31.104  1.00  0.00    -0.389 N
ATOM     29  H42 UNL     1      43.278  -1.369  32.046  1.00  0.00     0.157 HD
ATOM     30  H41 UNL     1      44.284  -0.443  30.858  1.00  0.00     0.157 HD
BRANCH  27  31
HETATM   31  N5  UNL     1      43.025  -1.016  28.837  1.00  0.00    -0.378 N
ATOM     32  H5  UNL     1      42.332  -0.459  28.339  1.00  0.00     0.160 HD
BRANCH  31  33
HETATM   33  C10 UNL     1      44.272  -1.312  28.170  1.00  0.00     0.151 C
BRANCH  33  34
HETATM   34  C11 UNL     1      44.157  -2.622  27.386  1.00  0.00     0.290 C
BRANCH  34  35
HETATM   35  N6  UNL     1      43.831  -2.313  26.039  1.00  0.00     0.081 N
HETATM   36  C12 UNL     1      44.246  -1.033  25.563  1.00  0.00     0.309 C
HETATM   37  C13 UNL     1      44.102  -3.317  25.065  1.00  0.00     0.309 C
ENDBRANCH  34  35
ENDBRANCH  33  34
ENDBRANCH  31  33
ENDBRANCH  27  31
ENDBRANCH  26  27
ENDBRANCH  18  26
ENDBRANCH  15  18
ENDBRANCH   6  12
ENDBRANCH   3   4
TORSDOF 9
ENDMDL