MODEL 2
REMARK VINA RESULT: -7.250555394      0.123      1.418
REMARK  8 active torsions:
REMARK  status: ('A' for Active; 'I' for Inactive)
REMARK    1  A    between atoms: N1_1  and  C1_4
REMARK    2  A    between atoms: N4_9  and  N5_10
REMARK       I    between atoms: N5_10  and  C3_12
REMARK       I    between atoms: C3_12  and  N7_21
REMARK    3  A    between atoms: N6_13  and  C4_15
REMARK    4  A    between atoms: C4_15  and  C5_16
REMARK    5  A    between atoms: C5_16  and  O1_17
REMARK    6  A    between atoms: O1_17  and  C6_18
REMARK    7  A    between atoms: C6_18  and  C7_19
REMARK    8  A    between atoms: N7_21  and  C8_23
ROOT
HETATM    1  N5  UNL     1      43.027  -2.984  29.072  1.00  0.00    -0.108 N
ATOM      2  H5  UNL     1      43.613  -2.676  29.848  1.00  0.00     0.208 HD
HETATM    3  C3  UNL     1      41.740  -3.466  29.350  1.00  0.00     0.691 C
HETATM    4  N6  UNL     1      40.806  -2.604  29.625  1.00  0.00    -0.223 N
ATOM      5  H6  UNL     1      39.870  -2.956  29.826  1.00  0.00     0.177 HD
HETATM    6  N7  UNL     1      41.371  -4.842  29.353  1.00  0.00    -0.216 N
ATOM      7  H7  UNL     1      40.731  -5.168  28.630  1.00  0.00     0.178 HD
ENDROOT
BRANCH   1   8
HETATM    8  N4  UNL     1      43.543  -2.908  27.762  1.00  0.00    -0.136 N
HETATM    9  C2  UNL     1      44.160  -1.871  27.221  1.00  0.00     0.245 A
HETATM   10  N2  UNL     1      44.512  -2.157  25.960  1.00  0.00    -0.159 N
HETATM   11  N3  UNL     1      44.415  -0.616  27.888  1.00  0.00    -0.060 NA
HETATM   12  C1  UNL     1      44.097  -3.412  25.726  1.00  0.00     0.694 A
ATOM     13  H2  UNL     1      44.999  -1.543  25.306  1.00  0.00     0.187 HD
HETATM   14  N8  UNL     1      43.502  -3.849  26.853  1.00  0.00    -0.108 N
ATOM     15  H8  UNL     1      43.085  -4.771  26.979  1.00  0.00     0.208 HD
BRANCH  12  16
HETATM   16  N1  UNL     1      44.250  -4.064  24.607  1.00  0.00    -0.233 N
ATOM     17  H12 UNL     1      44.870  -3.828  23.832  1.00  0.00     0.174 HD
ATOM     18  H11 UNL     1      43.758  -4.919  24.348  1.00  0.00     0.174 HD
ENDBRANCH  12  16
ENDBRANCH   1   8
BRANCH   4  19
HETATM   19  C4  UNL     1      41.018  -1.192  29.662  1.00  0.00     0.164 C
BRANCH  19  20
HETATM   20  C5  UNL     1      41.427  -0.707  31.064  1.00  0.00     0.187 C
BRANCH  20  21
HETATM   21  O1  UNL     1      42.734  -0.405  31.132  1.00  0.00    -0.389 OA
BRANCH  21  22
HETATM   22  C6  UNL     1      43.517  -0.784  32.156  1.00  0.00     0.178 C
BRANCH  22  23
HETATM   23  C7  UNL     1      43.625   0.059  33.372  1.00  0.00     0.111 C
HETATM   24 BR1  UNL     1      45.268   0.992  33.614  1.00  0.00    -0.094 Br
ENDBRANCH  22  23
ENDBRANCH  21  22
ENDBRANCH  20  21
ENDBRANCH  19  20
ENDBRANCH   4  19
BRANCH   6  25
HETATM   25  C8  UNL     1      41.846  -5.791  30.308  1.00  0.00     0.048 C
HETATM   26  C9  UNL     1      40.800  -6.897  30.472  1.00  0.00     0.036 C
HETATM   27  C10 UNL     1      41.189  -7.836  31.606  1.00  0.00    -0.012 C
HETATM   28  C11 UNL     1      41.405  -7.096  32.888  1.00  0.00     0.009 C
HETATM   29  C15 UNL     1      42.460  -8.541  31.150  1.00  0.00     0.009 C
HETATM   30  C12 UNL     1      42.543  -6.124  32.680  1.00  0.00    -0.012 C
HETATM   31  C13 UNL     1      43.805  -6.834  32.246  1.00  0.00     0.009 C
HETATM   32  C17 UNL     1      42.099  -5.136  31.624  1.00  0.00     0.036 C
HETATM   33  C14 UNL     1      43.515  -7.484  30.911  1.00  0.00    -0.012 C
HETATM   34  C16 UNL     1      43.120  -6.480  29.873  1.00  0.00     0.036 C
ENDBRANCH   6  25
TORSDOF 8
ENDMDL