MODEL 2
REMARK VINA RESULT: -7.443770126      4.548      8.134
REMARK  8 active torsions:
REMARK  status: ('A' for Active; 'I' for Inactive)
REMARK    1  A    between atoms: O1_2  and  N1_3
REMARK       I    between atoms: N1_3  and  C2_5
REMARK       I    between atoms: C2_5  and  N3_9
REMARK    2  A    between atoms: N3_9  and  C3_11
REMARK    3  A    between atoms: C3_11  and  C4_12
REMARK    4  A    between atoms: C4_12  and  C5_13
REMARK    5  A    between atoms: C5_13  and  N4_14
REMARK    6  A    between atoms: N4_14  and  C6_16
REMARK    7  A    between atoms: C7_19  and  N6_20
REMARK    8  A    between atoms: N6_20  and  C8_22
ROOT
HETATM    1  C6  UNL     1      41.024  -1.799  30.176  1.00  0.00     0.135 A
HETATM    2  N5  UNL     1      39.955  -2.335  29.579  1.00  0.00    -0.176 N
ATOM      3  H5  UNL     1      39.880  -2.260  28.565  1.00  0.00     0.186 HD
HETATM    4  C7  UNL     1      38.953  -2.981  30.255  1.00  0.00     0.680 A
HETATM    5  N7  UNL     1      39.096  -3.055  31.587  1.00  0.00    -0.201 N
ATOM      6  H7  UNL     1      38.372  -3.528  32.128  1.00  0.00     0.183 HD
HETATM    7  C18 UNL     1      40.162  -2.527  32.248  1.00  0.00     0.129 A
HETATM    8  C19 UNL     1      41.162  -1.882  31.562  1.00  0.00     0.071 A
HETATM    9 BR1  UNL     1      42.672  -1.130  32.447  1.00  0.00    -0.046 Br
ENDROOT
BRANCH   1  10
HETATM   10  N4  UNL     1      41.968  -1.189  29.566  1.00  0.00    -0.375 N
ATOM     11  H4  UNL     1      42.139  -0.213  29.807  1.00  0.00     0.161 HD
BRANCH  10  12
HETATM   12  C5  UNL     1      42.795  -1.787  28.572  1.00  0.00     0.123 C
BRANCH  12  13
HETATM   13  C4  UNL     1      43.742  -2.840  29.164  1.00  0.00     0.040 C
BRANCH  13  14
HETATM   14  C3  UNL     1      43.530  -4.088  28.338  1.00  0.00     0.139 C
BRANCH  14  15
HETATM   15  N3  UNL     1      43.168  -3.830  26.984  1.00  0.00    -0.225 N
HETATM   16  C2  UNL     1      44.053  -3.813  25.891  1.00  0.00     0.691 C
HETATM   17  N1  UNL     1      44.713  -2.608  25.532  1.00  0.00    -0.097 N
HETATM   18  N2  UNL     1      44.299  -4.859  25.183  1.00  0.00    -0.233 N
ATOM     19  H1  UNL     1      45.462  -2.244  26.121  1.00  0.00     0.213 HD
ATOM     20  H22 UNL     1      44.941  -4.847  24.390  1.00  0.00     0.174 HD
ATOM     21  H21 UNL     1      43.825  -5.725  25.442  1.00  0.00     0.174 HD
ATOM     22  H3  UNL     1      42.184  -3.642  26.791  1.00  0.00     0.177 HD
BRANCH  17  23
HETATM   23  O1  UNL     1      44.354  -1.941  24.412  1.00  0.00    -0.272 OA
HETATM   24  C1  UNL     1      44.008  -0.612  24.685  1.00  0.00     0.238 C
ENDBRANCH  17  23
ENDBRANCH  14  15
ENDBRANCH  13  14
ENDBRANCH  12  13
ENDBRANCH  10  12
ENDBRANCH   1  10
BRANCH   4  25
HETATM   25  N6  UNL     1      38.007  -3.437  29.575  1.00  0.00    -0.217 N
ATOM     26  H6  UNL     1      38.301  -4.201  28.966  1.00  0.00     0.178 HD
BRANCH  25  27
HETATM   27  C8  UNL     1      36.638  -3.149  29.449  1.00  0.00     0.048 C
HETATM   28  C9  UNL     1      35.756  -3.572  30.583  1.00  0.00     0.036 C
HETATM   29  C10 UNL     1      34.319  -3.266  30.227  1.00  0.00    -0.012 C
HETATM   30  C11 UNL     1      34.153  -1.813  29.939  1.00  0.00     0.009 C
HETATM   31  C15 UNL     1      33.854  -4.079  29.044  1.00  0.00     0.009 C
HETATM   32  C12 UNL     1      34.947  -1.472  28.698  1.00  0.00    -0.012 C
HETATM   33  C13 UNL     1      34.506  -2.294  27.527  1.00  0.00     0.009 C
HETATM   34  C17 UNL     1      36.404  -1.712  29.026  1.00  0.00     0.036 C
HETATM   35  C14 UNL     1      34.746  -3.741  27.882  1.00  0.00    -0.012 C
HETATM   36  C16 UNL     1      36.168  -3.998  28.243  1.00  0.00     0.036 C
ENDBRANCH  25  27
ENDBRANCH   4  25
TORSDOF 8
ENDMDL