MODEL 5
REMARK VINA RESULT: -6.537938983      1.386      2.942
REMARK  8 active torsions:
REMARK  status: ('A' for Active; 'I' for Inactive)
REMARK    1  A    between atoms: C2_2  and  C3_3
REMARK    2  A    between atoms: C5_5  and  C6_6
REMARK    3  A    between atoms: C6_6  and  N1_7
REMARK    4  A    between atoms: N1_7  and  C7_9
REMARK    5  A    between atoms: N3_17  and  C12_19
REMARK    6  A    between atoms: C12_19  and  C13_20
REMARK    7  A    between atoms: C12_19  and  C15_22
REMARK    8  A    between atoms: C15_22  and  O1_23
REMARK       I    between atoms: N5_27  and  C16_28
REMARK       I    between atoms: C16_28  and  N7_32
ROOT
HETATM    1  C3  UNL     1      42.047   0.877  36.824  1.00  0.00     0.006 C
HETATM    2  C4  UNL     1      42.377  -0.151  35.764  1.00  0.00     0.033 C
HETATM    3  C5  UNL     1      43.734   0.259  35.203  1.00  0.00     0.120 C
HETATM    4  N5  UNL     1      44.153   1.358  36.047  1.00  0.00    -0.211 N
HETATM    5  C16 UNL     1      45.518   1.664  36.299  1.00  0.00     0.683 C
HETATM    6  N6  UNL     1      45.805   2.701  37.006  1.00  0.00    -0.234 N
ATOM      7  H61 UNL     1      46.784   2.919  37.186  1.00  0.00     0.174 HD
ATOM      8  H62 UNL     1      45.055   3.286  37.373  1.00  0.00     0.174 HD
HETATM    9  N7  UNL     1      46.559   0.851  35.787  1.00  0.00    -0.126 N
ATOM     10  H7  UNL     1      47.110   1.176  34.992  1.00  0.00     0.197 HD
HETATM   11  C17 UNL     1      46.841  -0.398  36.365  1.00  0.00     0.196 C
HETATM   12  N8  UNL     1      47.095  -1.434  36.851  1.00  0.00    -0.171 NA
HETATM   13  C18 UNL     1      42.963   1.989  36.511  1.00  0.00     0.146 C
ENDROOT
BRANCH   3  14
HETATM   14  C6  UNL     1      43.472   0.830  33.826  1.00  0.00     0.164 C
BRANCH  14  15
HETATM   15  N1  UNL     1      44.042   0.008  32.777  1.00  0.00    -0.224 N
ATOM     16  H1  UNL     1      45.050  -0.059  32.640  1.00  0.00     0.177 HD
BRANCH  15  17
HETATM   17  C7  UNL     1      43.214  -0.636  32.022  1.00  0.00     0.680 A
HETATM   18  N2  UNL     1      41.909  -0.501  32.319  1.00  0.00    -0.195 N
HETATM   19  C8  UNL     1      40.972  -1.142  31.580  1.00  0.00     0.043 A
ATOM     20  H2  UNL     1      41.625   0.086  33.103  1.00  0.00     0.184 HD
HETATM   21  C9  UNL     1      39.521  -1.010  31.886  1.00  0.00     0.070 C
HETATM   22  C10 UNL     1      41.373  -1.945  30.507  1.00  0.00     0.077 A
HETATM   23 BR1  UNL     1      39.967  -2.795  29.542  1.00  0.00    -0.045 Br
HETATM   24  C11 UNL     1      42.699  -2.081  30.206  1.00  0.00     0.136 A
HETATM   25  N3  UNL     1      43.146  -2.760  29.290  1.00  0.00    -0.368 N
HETATM   26  N4  UNL     1      43.594  -1.401  30.999  1.00  0.00    -0.176 N
ATOM     27  H3  UNL     1      44.163  -2.690  29.285  1.00  0.00     0.161 HD
ATOM     28  H4  UNL     1      44.590  -1.486  30.796  1.00  0.00     0.186 HD
BRANCH  25  29
HETATM   29  C12 UNL     1      42.737  -3.600  28.247  1.00  0.00     0.106 C
BRANCH  29  30
HETATM   30  C13 UNL     1      43.685  -3.601  27.070  1.00  0.00     0.023 C
HETATM   31  C14 UNL     1      44.234  -2.217  26.872  1.00  0.00     0.007 C
ENDBRANCH  29  30
BRANCH  29  32
HETATM   32  C15 UNL     1      42.806  -5.034  28.848  1.00  0.00     0.189 C
BRANCH  32  33
HETATM   33  O1  UNL     1      41.742  -5.819  28.513  1.00  0.00    -0.399 OA
ATOM     34  H1  UNL     1      41.793  -6.174  27.634  1.00  0.00     0.209 HD
ENDBRANCH  32  33
ENDBRANCH  29  32
ENDBRANCH  25  29
ENDBRANCH  15  17
ENDBRANCH  14  15
ENDBRANCH   3  14
BRANCH   1  35
HETATM   35  C2  UNL     1      42.181   0.280  38.181  1.00  0.00     0.002 C
HETATM   36  C1  UNL     1      42.581   1.201  39.262  1.00  0.00     0.005 C
ENDBRANCH   1  35
TORSDOF 8
ENDMDL