MODEL 1
REMARK VINA RESULT: -6.886588020      0.000      0.000
REMARK  7 active torsions:
REMARK  status: ('A' for Active; 'I' for Inactive)
REMARK    1  A    between atoms: C2_2  and  C3_3
REMARK    2  A    between atoms: C3_3  and  C4_4
REMARK    3  A    between atoms: C4_4  and  C5_5
REMARK    4  A    between atoms: C5_5  and  S1_6
REMARK    5  A    between atoms: S1_6  and  N1_9
REMARK       I    between atoms: N1_9  and  C6_11
REMARK       I    between atoms: C6_11  and  N3_15
REMARK    6  A    between atoms: N3_15  and  C7_17
REMARK    7  A    between atoms: C7_17  and  C8_18
ROOT
HETATM    1  C8  UNL     1      37.142  -2.484  30.364  1.00  0.00     0.030 C
HETATM    2  C9  UNL     1      36.123  -1.837  29.545  1.00  0.00     0.062 A
HETATM    3  N4  UNL     1      35.794  -1.571  28.264  1.00  0.00    -0.193 N
ATOM      4  H4  UNL     1      36.331  -1.840  27.439  1.00  0.00     0.184 HD
HETATM    5  C10 UNL     1      34.653  -0.901  28.265  1.00  0.00     0.676 A
HETATM    6  N5  UNL     1      33.995  -0.458  27.222  1.00  0.00    -0.234 N
ATOM      7  H51 UNL     1      33.116   0.059  27.222  1.00  0.00     0.174 HD
ATOM      8  H52 UNL     1      34.339  -0.604  26.272  1.00  0.00     0.174 HD
HETATM    9  N6  UNL     1      34.201  -0.708  29.514  1.00  0.00    -0.193 N
ATOM     10  H6  UNL     1      33.349  -0.224  29.794  1.00  0.00     0.184 HD
HETATM   11  C11 UNL     1      35.111  -1.289  30.319  1.00  0.00     0.065 A
HETATM   12  C12 UNL     1      35.400  -1.546  31.770  1.00  0.00     0.115 C
HETATM   13 BR1  UNL     1      35.315   0.134  32.755  1.00  0.00    -0.084 Br
HETATM   14  C13 UNL     1      36.816  -2.067  31.782  1.00  0.00     0.023 C
HETATM   15  C14 UNL     1      36.903  -3.501  32.202  1.00  0.00     0.012 C
HETATM   16  C15 UNL     1      36.885  -3.895  30.744  1.00  0.00    -0.002 C
HETATM   17  C16 UNL     1      35.612  -4.538  30.272  1.00  0.00     0.011 C
ENDROOT
BRANCH   1  18
HETATM   18  C7  UNL     1      38.586  -2.245  29.978  1.00  0.00     0.155 C
BRANCH  18  19
HETATM   19  N3  UNL     1      39.048  -0.953  30.412  1.00  0.00    -0.225 N
HETATM   20  C6  UNL     1      40.462  -0.813  30.668  1.00  0.00     0.681 C
HETATM   21  N1  UNL     1      41.454  -0.860  29.687  1.00  0.00    -0.117 N
HETATM   22  N2  UNL     1      40.748  -0.637  31.910  1.00  0.00    -0.234 N
ATOM     23  H1  UNL     1      41.572  -0.027  29.109  1.00  0.00     0.197 HD
ATOM     24  H22 UNL     1      41.747  -0.538  32.091  1.00  0.00     0.174 HD
ATOM     25  H21 UNL     1      40.024  -0.603  32.628  1.00  0.00     0.174 HD
ATOM     26  H3  UNL     1      38.405  -0.171  30.533  1.00  0.00     0.177 HD
BRANCH  21  27
HETATM   27  S1  UNL     1      42.489  -2.180  29.362  1.00  0.00     0.244 S
HETATM   28  O1  UNL     1      41.809  -3.165  28.453  1.00  0.00    -0.205 OA
HETATM   29  O2  UNL     1      42.788  -2.947  30.654  1.00  0.00    -0.205 OA
BRANCH  27  30
HETATM   30  C5  UNL     1      44.046  -1.740  28.685  1.00  0.00     0.164 C
BRANCH  30  31
HETATM   31  C4  UNL     1      43.994  -1.053  27.366  1.00  0.00     0.017 C
BRANCH  31  32
HETATM   32  C3  UNL     1      44.704  -1.761  26.249  1.00  0.00     0.001 C
BRANCH  32  33
HETATM   33  C2  UNL     1      44.217  -3.186  26.068  1.00  0.00    -0.005 C
HETATM   34  C1  UNL     1      44.035  -3.429  24.567  1.00  0.00     0.005 C
ENDBRANCH  32  33
ENDBRANCH  31  32
ENDBRANCH  30  31
ENDBRANCH  27  30
ENDBRANCH  21  27
ENDBRANCH  18  19
ENDBRANCH   1  18
TORSDOF 7
ENDMDL