MODEL 5
REMARK VINA RESULT: -7.103071118      6.714     10.192
REMARK  11 active torsions:
REMARK  status: ('A' for Active; 'I' for Inactive)
REMARK    1  A    between atoms: N1_2  and  C2_4
REMARK    2  A    between atoms: C3_8  and  N3_9
REMARK    3  A    between atoms: N3_9  and  C4_11
REMARK    4  A    between atoms: C4_11  and  C5_12
REMARK    5  A    between atoms: C5_12  and  N4_13
REMARK    6  A    between atoms: C5_12  and  N5_16
REMARK    7  A    between atoms: N5_16  and  C6_18
REMARK    8  A    between atoms: C6_18  and  C7_19
REMARK    9  A    between atoms: C7_19  and  C8_20
REMARK   10  A    between atoms: C9_23  and  N7_24
REMARK   11  A    between atoms: N7_24  and  C10_26
ROOT
HETATM    1  N5  UNL     1      40.319  -2.013  31.652  1.00  0.00    -0.378 N
ATOM      2  H5  UNL     1      41.059  -2.160  32.339  1.00  0.00     0.160 HD
ENDROOT
BRANCH   1   3
HETATM    3  C5  UNL     1      40.661  -1.619  30.315  1.00  0.00     0.088 C
BRANCH   3   4
HETATM    4  C4  UNL     1      40.918  -2.668  29.292  1.00  0.00     0.197 C
BRANCH   4   5
HETATM    5  N3  UNL     1      42.297  -3.127  29.295  1.00  0.00    -0.362 N
ATOM      6  H3  UNL     1      42.613  -3.818  29.976  1.00  0.00     0.162 HD
BRANCH   5   7
HETATM    7  C3  UNL     1      43.133  -2.634  28.400  1.00  0.00     0.176 A
HETATM    8  S1  UNL     1      44.100  -1.238  28.504  1.00  0.00     0.039 SA
HETATM    9  N2  UNL     1      44.837  -1.336  26.993  1.00  0.00    -0.157 N
HETATM   10  C2  UNL     1      44.300  -2.446  26.478  1.00  0.00     0.686 A
ATOM     11  H2  UNL     1      45.523  -0.707  26.576  1.00  0.00     0.193 HD
HETATM   12  N9  UNL     1      43.433  -3.105  27.194  1.00  0.00    -0.169 N
ATOM     13  H9  UNL     1      42.998  -3.957  26.840  1.00  0.00     0.186 HD
BRANCH  10  14
HETATM   14  N1  UNL     1      44.664  -2.844  25.268  1.00  0.00    -0.230 N
HETATM   15  C1  UNL     1      43.881  -3.742  24.494  1.00  0.00     0.165 C
ATOM     16  H1  UNL     1      45.538  -2.491  24.877  1.00  0.00     0.177 HD
ENDBRANCH  10  14
ENDBRANCH   5   7
ENDBRANCH   4   5
ENDBRANCH   3   4
BRANCH   3  17
HETATM   17  N4  UNL     1      40.754  -0.396  29.966  1.00  0.00    -0.388 N
ATOM     18  H42 UNL     1      41.013  -0.116  29.020  1.00  0.00     0.157 HD
ATOM     19  H41 UNL     1      40.561   0.324  30.663  1.00  0.00     0.157 HD
ENDBRANCH   3  17
ENDBRANCH   1   3
BRANCH   1  20
HETATM   20  C6  UNL     1      38.946  -2.202  32.038  1.00  0.00     0.127 C
BRANCH  20  21
HETATM   21  C7  UNL     1      38.335  -0.906  32.585  1.00  0.00     0.080 C
BRANCH  21  22
HETATM   22  C8  UNL     1      37.033  -0.704  31.901  1.00  0.00     0.062 A
HETATM   23  N6  UNL     1      36.541  -1.329  30.832  1.00  0.00    -0.193 N
HETATM   24  C9  UNL     1      35.322  -0.851  30.539  1.00  0.00     0.679 A
ATOM     25  H6  UNL     1      37.020  -2.063  30.311  1.00  0.00     0.184 HD
HETATM   26  N8  UNL     1      35.065   0.096  31.461  1.00  0.00    -0.183 N
HETATM   27  C15 UNL     1      36.083   0.217  32.310  1.00  0.00     0.119 A
ATOM     28  H8  UNL     1      34.207   0.646  31.503  1.00  0.00     0.185 HD
HETATM   29 BR1  UNL     1      36.233   1.397  33.788  1.00  0.00    -0.029 Br
BRANCH  24  30
HETATM   30  N7  UNL     1      34.539  -1.214  29.575  1.00  0.00    -0.221 N
ATOM     31  H7  UNL     1      33.542  -1.358  29.734  1.00  0.00     0.178 HD
BRANCH  30  32
HETATM   32  C10 UNL     1      35.121  -1.411  28.259  1.00  0.00     0.099 C
HETATM   33  C11 UNL     1      34.550  -0.477  27.248  1.00  0.00     0.026 C
HETATM   34  C12 UNL     1      33.427  -1.213  26.604  1.00  0.00     0.002 C
HETATM   35  C13 UNL     1      33.552  -2.657  26.964  1.00  0.00     0.002 C
HETATM   36  C14 UNL     1      34.806  -2.797  27.788  1.00  0.00     0.026 C
ENDBRANCH  30  32
ENDBRANCH  24  30
ENDBRANCH  21  22
ENDBRANCH  20  21
ENDBRANCH   1  20
TORSDOF 11
ENDMDL