MODEL 2
REMARK VINA RESULT: -7.185911651      1.060      1.362
REMARK  12 active torsions:
REMARK  status: ('A' for Active; 'I' for Inactive)
REMARK    1  A    between atoms: N1_2  and  C2_4
REMARK    2  A    between atoms: C2_4  and  N2_6
REMARK    3  A    between atoms: N2_6  and  N3_8
REMARK       I    between atoms: N3_8  and  C3_10
REMARK    4  A    between atoms: C3_10  and  C4_12
REMARK    5  A    between atoms: C4_12  and  C5_13
REMARK    6  A    between atoms: C4_12  and  N4_17
REMARK    7  A    between atoms: C5_13  and  C6_14
REMARK       I    between atoms: N4_17  and  C9_18
REMARK       I    between atoms: C9_18  and  N5_20
REMARK    8  A    between atoms: N5_20  and  N6_22
REMARK    9  A    between atoms: N6_22  and  C10_23
REMARK   10  A    between atoms: C10_23  and  O3_24
REMARK   11  A    between atoms: C10_23  and  C11_26
REMARK   12  A    between atoms: C11_26  and  C12_28
ROOT
HETATM    1  N4  UNL     1      42.166  -2.391  31.018  1.00  0.00    -0.380 NA
HETATM    2  C9  UNL     1      42.469  -1.168  31.431  1.00  0.00     0.418 C
HETATM    3  O2  UNL     1      41.667  -0.205  31.720  1.00  0.00    -0.228 OA
HETATM    4  N5  UNL     1      43.908  -0.837  31.678  1.00  0.00    -0.170 N
ATOM      5  H5  UNL     1      44.629  -1.378  31.199  1.00  0.00     0.208 HD
ENDROOT
BRANCH   1   6
HETATM    6  C4  UNL     1      41.822  -3.690  30.579  1.00  0.00     0.262 C
BRANCH   6   7
HETATM    7  C3  UNL     1      43.014  -3.816  29.548  1.00  0.00     0.272 C
HETATM    8  N3  UNL     1      42.758  -3.397  28.261  1.00  0.00    -0.265 N
ATOM      9  H3  UNL     1      41.883  -2.974  27.949  1.00  0.00     0.190 HD
HETATM   10  O1  UNL     1      43.987  -4.250  30.028  1.00  0.00    -0.268 OA
BRANCH   8  11
HETATM   11  N2  UNL     1      43.918  -3.645  27.401  1.00  0.00    -0.274 N
ATOM     12  H2  UNL     1      44.399  -4.540  27.325  1.00  0.00     0.189 HD
BRANCH  11  13
HETATM   13  C2  UNL     1      44.282  -2.477  26.688  1.00  0.00     0.186 C
HETATM   14  S1  UNL     1      44.291  -0.983  27.470  1.00  0.00    -0.040 SA
BRANCH  13  15
HETATM   15  N1  UNL     1      44.663  -2.507  25.293  1.00  0.00    -0.370 N
HETATM   16  C1  UNL     1      44.040  -3.430  24.454  1.00  0.00     0.148 C
ATOM     17  H1  UNL     1      45.371  -1.869  24.932  1.00  0.00     0.161 HD
ENDBRANCH  13  15
ENDBRANCH  11  13
ENDBRANCH   8  11
ENDBRANCH   6   7
BRANCH   6  18
HETATM   18  C5  UNL     1      40.561  -4.079  30.038  1.00  0.00     0.053 C
BRANCH  18  19
HETATM   19  C6  UNL     1      39.440  -3.081  30.408  1.00  0.00    -0.019 C
HETATM   20  C7  UNL     1      38.863  -3.448  31.771  1.00  0.00     0.009 C
HETATM   21  C8  UNL     1      38.359  -2.904  29.435  1.00  0.00     0.009 C
ENDBRANCH  18  19
ENDBRANCH   6  18
ENDBRANCH   1   6
BRANCH   4  22
HETATM   22  N6  UNL     1      44.288   0.170  32.527  1.00  0.00    -0.298 NA
BRANCH  22  23
HETATM   23  C10 UNL     1      44.788   0.958  33.417  1.00  0.00     0.233 C
BRANCH  23  24
HETATM   24  O3  UNL     1      46.134   1.269  33.366  1.00  0.00    -0.336 OA
ATOM     25  H3  UNL     1      46.488   1.898  33.983  1.00  0.00     0.220 HD
ENDBRANCH  23  24
BRANCH  23  26
HETATM   26  C11 UNL     1      44.114   1.583  34.544  1.00  0.00     0.178 C
HETATM   27 CL1  UNL     1      42.431   0.836  34.866  1.00  0.00    -0.115 Cl
BRANCH  26  28
HETATM   28  C12 UNL     1      44.709   1.594  35.911  1.00  0.00     0.021 C
HETATM   29  C13 UNL     1      43.578   1.246  36.857  1.00  0.00     0.015 C
HETATM   30  C14 UNL     1      43.538   2.337  37.858  1.00  0.00     0.009 C
HETATM   31  C15 UNL     1      43.124   3.594  37.152  1.00  0.00    -0.026 C
HETATM   32  C18 UNL     1      45.067   2.589  37.938  1.00  0.00     0.017 C
HETATM   33  C16 UNL     1      44.112   3.893  36.330  1.00  0.00    -0.025 C
HETATM   34  C17 UNL     1      45.212   2.910  36.425  1.00  0.00     0.014 C
ENDBRANCH  26  28
ENDBRANCH  23  26
ENDBRANCH  22  23
ENDBRANCH   4  22
TORSDOF 12
ENDMDL