MODEL 2
REMARK VINA RESULT: -7.811623156      1.868      2.877
REMARK  6 active torsions:
REMARK  status: ('A' for Active; 'I' for Inactive)
REMARK       I    between atoms: C1_4  and  N2_5
REMARK       I    between atoms: C1_4  and  N3_16
REMARK    1  A    between atoms: N2_5  and  C2_7
REMARK    2  A    between atoms: C2_7  and  C3_8
REMARK    3  A    between atoms: C3_8  and  C4_9
REMARK    4  A    between atoms: N3_16  and  C10_18
REMARK    5  A    between atoms: C10_18  and  C11_19
REMARK    6  A    between atoms: C11_19  and  N4_20
ROOT
HETATM    1  N4  UNL     1      40.796  -1.128  33.823  1.00  0.00    -0.372 N
HETATM    2  C12 UNL     1      40.262   0.010  34.389  1.00  0.00     0.063 C
HETATM    3  C13 UNL     1      40.971   0.494  35.645  1.00  0.00     0.046 C
HETATM    4  C14 UNL     1      40.724   1.974  35.832  1.00  0.00     0.024 C
HETATM    5  C15 UNL     1      41.163   2.432  37.208  1.00  0.00     0.114 C
HETATM    6  N5  UNL     1      42.575   2.370  37.429  1.00  0.00    -0.420 N
ATOM      7  H5  UNL     1      43.226   2.997  36.958  1.00  0.00     0.153 HD
HETATM    8  C16 UNL     1      43.011   1.371  38.355  1.00  0.00     0.141 C
HETATM    9  C17 UNL     1      44.517   1.392  38.443  1.00  0.00     0.251 C
HETATM   10  N6  UNL     1      45.128   1.986  37.276  1.00  0.00    -0.074 N
ATOM     11  H61 UNL     1      45.589   2.865  37.513  1.00  0.00     0.277 HD
ATOM     12  H62 UNL     1      44.419   2.340  36.633  1.00  0.00     0.277 HD
HETATM   13  C18 UNL     1      46.035   1.093  36.603  1.00  0.00     0.234 C
HETATM   14  C19 UNL     1      45.411   0.429  35.393  1.00  0.00     0.046 C
HETATM   15  C20 UNL     1      45.060   1.409  34.306  1.00  0.00     0.115 C
HETATM   16  N7  UNL     1      45.145   0.780  33.022  1.00  0.00    -0.421 N
ATOM     17  H7  UNL     1      45.768   1.120  32.289  1.00  0.00     0.153 HD
HETATM   18  C21 UNL     1      44.301  -0.355  32.840  1.00  0.00     0.115 C
HETATM   19  C22 UNL     1      42.824  -0.075  32.953  1.00  0.00     0.039 C
HETATM   20  C23 UNL     1      42.230  -1.213  33.753  1.00  0.00     0.128 C
ENDROOT
BRANCH   1  21
HETATM   21  C11 UNL     1      40.095  -2.111  33.152  1.00  0.00     0.083 C
BRANCH  21  22
HETATM   22  C10 UNL     1      39.065  -1.638  32.194  1.00  0.00     0.182 C
BRANCH  22  23
HETATM   23  N3  UNL     1      39.270  -2.051  30.858  1.00  0.00    -0.222 N
HETATM   24  C1  UNL     1      40.483  -1.594  30.201  1.00  0.00     0.667 C
HETATM   25  N1  UNL     1      40.580  -0.337  30.051  1.00  0.00    -0.235 N
HETATM   26  N2  UNL     1      41.416  -2.579  29.802  1.00  0.00    -0.227 N
ATOM     27  H12 UNL     1      41.431  -0.017  29.591  1.00  0.00     0.174 HD
ATOM     28  H11 UNL     1      39.907   0.373  30.339  1.00  0.00     0.174 HD
ATOM     29  H2  UNL     1      41.157  -3.153  28.999  1.00  0.00     0.177 HD
ATOM     30  H3  UNL     1      38.595  -2.645  30.375  1.00  0.00     0.178 HD
BRANCH  26  31
HETATM   31  C2  UNL     1      42.683  -2.857  30.402  1.00  0.00     0.142 C
BRANCH  31  32
HETATM   32  C3  UNL     1      43.524  -3.742  29.522  1.00  0.00     0.058 C
BRANCH  32  33
HETATM   33  C4  UNL     1      43.799  -3.087  28.204  1.00  0.00    -0.054 A
HETATM   34  C5  UNL     1      44.137  -1.756  28.144  1.00  0.00     0.007 A
HETATM   35  C6  UNL     1      44.415  -1.125  26.927  1.00  0.00     0.003 A
HETATM   36  C7  UNL     1      44.355  -1.842  25.746  1.00  0.00     0.042 A
HETATM   37  C8  UNL     1      44.021  -3.157  25.800  1.00  0.00     0.116 A
HETATM   38  F1  UNL     1      43.953  -3.890  24.664  1.00  0.00    -0.206 F
HETATM   39  C9  UNL     1      43.747  -3.775  27.002  1.00  0.00     0.049 A
ENDBRANCH  32  33
ENDBRANCH  31  32
ENDBRANCH  26  31
ENDBRANCH  22  23
ENDBRANCH  21  22
ENDBRANCH   1  21
TORSDOF 6
ENDMDL