MODEL 4
REMARK VINA RESULT: -8.266508761      1.514      1.996
REMARK  8 active torsions:
REMARK  status: ('A' for Active; 'I' for Inactive)
REMARK    1  A    between atoms: N1_2  and  C2_4
REMARK    2  A    between atoms: C2_4  and  C3_8
REMARK    3  A    between atoms: C3_8  and  C4_9
REMARK    4  A    between atoms: C4_9  and  C5_10
REMARK       I    between atoms: C5_10  and  N3_12
REMARK    5  A    between atoms: N3_12  and  N4_14
REMARK       I    between atoms: N4_14  and  C6_16
REMARK       I    between atoms: C6_16  and  N9_33
REMARK       I    between atoms: N5_17  and  C7_19
REMARK       I    between atoms: C7_19  and  N7_23
REMARK    6  A    between atoms: N8_26  and  C10_27
REMARK    7  A    between atoms: C10_27  and  C11_28
REMARK    8  A    between atoms: N9_33  and  C16_35
ROOT
HETATM    1  N4  UNL     1      42.708  -1.150  32.297  1.00  0.00    -0.129 N
ATOM      2  H4  UNL     1      42.500  -2.094  32.620  1.00  0.00     0.205 HD
HETATM    3  C6  UNL     1      42.481  -0.872  30.917  1.00  0.00     0.712 C
HETATM    4  N5  UNL     1      41.412  -0.555  30.371  1.00  0.00    -0.021 N
ATOM      5  H5  UNL     1      41.566  -0.422  29.371  1.00  0.00     0.203 HD
HETATM    6  C7  UNL     1      40.106  -0.327  30.664  1.00  0.00     0.688 C
HETATM    7  N6  UNL     1      39.460   0.579  29.929  1.00  0.00    -0.234 N
ATOM      8  H61 UNL     1      38.479   0.751  30.150  1.00  0.00     0.174 HD
ATOM      9  H62 UNL     1      40.047   1.006  29.212  1.00  0.00     0.174 HD
HETATM   10  N7  UNL     1      39.301  -0.913  31.648  1.00  0.00    -0.214 N
HETATM   11  C8  UNL     1      38.247  -0.143  32.339  1.00  0.00     0.161 C
HETATM   12  C9  UNL     1      36.889  -0.756  31.977  1.00  0.00     0.142 C
HETATM   13  N8  UNL     1      37.088  -2.105  31.648  1.00  0.00    -0.390 N
HETATM   14  C14 UNL     1      38.028  -2.864  32.373  1.00  0.00     0.142 C
HETATM   15  C15 UNL     1      39.430  -2.292  32.039  1.00  0.00     0.161 C
HETATM   16  N9  UNL     1      43.686  -0.977  30.114  1.00  0.00    -0.187 N
ATOM     17  H9  UNL     1      44.480  -0.369  30.312  1.00  0.00     0.184 HD
ENDROOT
BRANCH   1  18
HETATM   18  N3  UNL     1      43.180  -0.260  33.230  1.00  0.00    -0.256 N
HETATM   19  C5  UNL     1      44.433   0.372  33.210  1.00  0.00     0.236 C
HETATM   20  O1  UNL     1      45.213   0.100  32.230  1.00  0.00    -0.272 OA
ATOM     21  H3  UNL     1      42.562  -0.037  34.010  1.00  0.00     0.190 HD
BRANCH  19  22
HETATM   22  C4  UNL     1      44.906   1.332  34.246  1.00  0.00     0.112 C
BRANCH  22  23
HETATM   23  C3  UNL     1      43.737   2.043  34.894  1.00  0.00     0.085 C
BRANCH  23  24
HETATM   24  C2  UNL     1      44.201   3.020  35.906  1.00  0.00     0.070 C
HETATM   25  N2  UNL     1      45.403   2.918  36.346  1.00  0.00    -0.389 N
ATOM     26  H22 UNL     1      45.722   3.590  37.044  1.00  0.00     0.157 HD
ATOM     27  H21 UNL     1      45.985   2.166  35.977  1.00  0.00     0.157 HD
BRANCH  24  28
HETATM   28  N1  UNL     1      43.391   4.065  36.420  1.00  0.00    -0.384 N
HETATM   29  C1  UNL     1      43.816   4.845  37.555  1.00  0.00     0.147 C
ATOM     30  H1  UNL     1      42.494   4.268  35.979  1.00  0.00     0.160 HD
ENDBRANCH  24  28
ENDBRANCH  23  24
ENDBRANCH  22  23
ENDBRANCH  19  22
ENDBRANCH   1  18
BRANCH  16  31
HETATM   31  C16 UNL     1      43.768  -1.913  29.062  1.00  0.00     0.087 A
HETATM   32  C17 UNL     1      43.525  -3.270  29.181  1.00  0.00     0.033 A
HETATM   33  C18 UNL     1      43.624  -4.116  28.090  1.00  0.00     0.002 A
HETATM   34  C19 UNL     1      43.969  -3.672  26.814  1.00  0.00     0.003 A
HETATM   35  C20 UNL     1      44.206  -2.321  26.716  1.00  0.00     0.044 A
HETATM   36  C21 UNL     1      44.111  -1.472  27.793  1.00  0.00     0.143 A
HETATM   37  F1  UNL     1      44.356  -0.130  27.655  1.00  0.00    -0.204 F
ENDBRANCH  16  31
BRANCH  13  38
HETATM   38  C10 UNL     1      36.286  -2.733  30.692  1.00  0.00     0.063 C
BRANCH  38  39
HETATM   39  C11 UNL     1      36.503  -2.326  29.274  1.00  0.00     0.024 A
HETATM   40  C12 UNL     1      35.707  -2.924  28.172  1.00  0.00     0.010 A
HETATM   41  C13 UNL     1      35.356  -1.546  28.647  1.00  0.00     0.010 A
ENDBRANCH  38  39
ENDBRANCH  13  38
TORSDOF 8
ENDMDL