MODEL 5
REMARK VINA RESULT: -7.388064321      1.815      2.399
REMARK  8 active torsions:
REMARK  status: ('A' for Active; 'I' for Inactive)
REMARK    1  A    between atoms: C3_5  and  C4_6
REMARK       I    between atoms: C4_6  and  N2_8
REMARK    2  A    between atoms: N2_8  and  C5_10
REMARK    3  A    between atoms: C5_10  and  C6_11
REMARK    4  A    between atoms: C5_10  and  C12_23
REMARK       I    between atoms: C6_11  and  N3_13
REMARK    5  A    between atoms: N3_13  and  C7_15
REMARK    6  A    between atoms: C12_23  and  N5_24
REMARK    7  A    between atoms: C12_23  and  C20_36
REMARK       I    between atoms: N5_24  and  C13_26
REMARK       I    between atoms: C13_26  and  N6_28
REMARK    8  A    between atoms: N6_28  and  C14_30
ROOT
HETATM    1  C5  UNL     1      40.780  -5.253  30.407  1.00  0.00     0.200 C
ENDROOT
BRANCH   1   2
HETATM    2  N2  UNL     1      41.388  -4.507  29.346  1.00  0.00    -0.340 N
HETATM    3  C4  UNL     1      42.725  -4.713  28.918  1.00  0.00     0.271 C
HETATM    4  O1  UNL     1      43.403  -5.591  29.500  1.00  0.00    -0.266 OA
ATOM      5  H2  UNL     1      40.833  -3.792  28.877  1.00  0.00     0.163 HD
BRANCH   3   6
HETATM    6  C3  UNL     1      43.302  -3.925  27.825  1.00  0.00     0.124 A
HETATM    7  N1  UNL     1      43.483  -4.332  26.558  1.00  0.00    -0.340 N
HETATM    8  C2  UNL     1      44.045  -3.322  25.840  1.00  0.00     0.077 A
ATOM      9  H1  UNL     1      43.238  -5.252  26.192  1.00  0.00     0.167 HD
HETATM   10  C1  UNL     1      44.387  -3.418  24.405  1.00  0.00     0.089 C
HETATM   11  N7  UNL     1      44.224  -2.267  26.654  1.00  0.00    -0.348 N
HETATM   12  C23 UNL     1      43.767  -2.630  27.882  1.00  0.00     0.039 A
ATOM     13  H7  UNL     1      44.627  -1.365  26.399  1.00  0.00     0.167 HD
HETATM   14  C24 UNL     1      43.776  -1.759  29.086  1.00  0.00     0.071 C
ENDBRANCH   3   6
ENDBRANCH   1   2
BRANCH   1  15
HETATM   15  C6  UNL     1      40.658  -4.415  31.650  1.00  0.00     0.242 C
HETATM   16  O2  UNL     1      40.331  -4.990  32.723  1.00  0.00    -0.271 OA
HETATM   17  N3  UNL     1      40.911  -3.036  31.570  1.00  0.00    -0.355 N
ATOM     18  H3  UNL     1      41.172  -2.645  30.664  1.00  0.00     0.162 HD
BRANCH  17  19
HETATM   19  C7  UNL     1      40.823  -2.135  32.704  1.00  0.00     0.087 C
HETATM   20  C8  UNL     1      40.330  -0.777  32.325  1.00  0.00     0.052 C
HETATM   21  C9  UNL     1      40.009  -0.026  33.615  1.00  0.00     0.234 C
HETATM   22  N4  UNL     1      41.212   0.072  34.396  1.00  0.00    -0.075 N
HETATM   23  C10 UNL     1      42.347  -0.576  33.817  1.00  0.00     0.234 C
ATOM     24  H42 UNL     1      41.425   1.048  34.600  1.00  0.00     0.277 HD
ATOM     25  H41 UNL     1      41.051  -0.273  35.342  1.00  0.00     0.277 HD
HETATM   26  C11 UNL     1      42.129  -2.011  33.432  1.00  0.00     0.052 C
ENDBRANCH  17  19
ENDBRANCH   1  15
BRANCH   1  27
HETATM   27  C12 UNL     1      39.449  -5.841  30.023  1.00  0.00     0.121 C
BRANCH  27  28
HETATM   28  N5  UNL     1      38.681  -4.986  29.174  1.00  0.00    -0.336 N
HETATM   29  C13 UNL     1      37.334  -4.629  29.348  1.00  0.00     0.316 C
HETATM   30  O3  UNL     1      36.736  -5.115  30.360  1.00  0.00    -0.247 OA
HETATM   31  N6  UNL     1      36.666  -3.766  28.441  1.00  0.00    -0.339 N
ATOM     32  H6  UNL     1      37.179  -3.393  27.641  1.00  0.00     0.164 HD
ATOM     33  H5  UNL     1      39.159  -4.596  28.361  1.00  0.00     0.164 HD
BRANCH  31  34
HETATM   34  C14 UNL     1      35.274  -3.399  28.620  1.00  0.00     0.086 C
HETATM   35  C15 UNL     1      35.133  -1.978  29.122  1.00  0.00     0.025 C
HETATM   36  C16 UNL     1      35.549  -1.070  27.984  1.00  0.00     0.002 C
HETATM   37  C17 UNL     1      34.442  -1.098  26.964  1.00  0.00     0.000 C
HETATM   38  C18 UNL     1      33.722  -2.414  26.909  1.00  0.00     0.002 C
HETATM   39  C19 UNL     1      34.581  -3.580  27.307  1.00  0.00     0.025 C
ENDBRANCH  31  34
ENDBRANCH  27  28
BRANCH  27  40
HETATM   40  C20 UNL     1      39.655  -7.224  29.453  1.00  0.00     0.003 C
HETATM   41  C21 UNL     1      40.705  -7.961  30.234  1.00  0.00     0.011 C
HETATM   42  C22 UNL     1      38.360  -8.027  29.535  1.00  0.00     0.011 C
ENDBRANCH  27  40
ENDBRANCH   1  27
TORSDOF 8
ENDMDL