MODEL 1
REMARK VINA RESULT: -8.420296604      0.000      0.000
REMARK  9 active torsions:
REMARK  status: ('A' for Active; 'I' for Inactive)
REMARK       I    between atoms: C1_4  and  N3_6
REMARK    1  A    between atoms: N3_6  and  C2_8
REMARK    2  A    between atoms: C2_8  and  C3_9
REMARK    3  A    between atoms: C3_9  and  C4_10
REMARK    4  A    between atoms: C4_10  and  C5_11
REMARK    5  A    between atoms: C7_14  and  C8_15
REMARK    6  A    between atoms: C8_15  and  N4_16
REMARK       I    between atoms: N4_16  and  C9_18
REMARK    7  A    between atoms: C9_18  and  C10_20
REMARK    8  A    between atoms: C17_30  and  C18_31
REMARK    9  A    between atoms: C18_31  and  C19_32
ROOT
HETATM    1  C5  UNL     1      42.281  -2.592  28.578  1.00  0.00     0.108 C
HETATM    2  C6  UNL     1      41.995  -3.805  29.477  1.00  0.00     0.195 C
HETATM    3  O1  UNL     1      40.747  -3.621  29.999  1.00  0.00    -0.356 OA
HETATM    4  C7  UNL     1      40.605  -3.772  31.360  1.00  0.00     0.339 C
HETATM    5  N5  UNL     1      40.991  -2.581  32.101  1.00  0.00    -0.034 N
ATOM      6  H51 UNL     1      41.971  -2.608  32.382  1.00  0.00     0.281 HD
ATOM      7  H52 UNL     1      40.569  -2.556  33.029  1.00  0.00     0.281 HD
HETATM    8  C17 UNL     1      40.675  -1.373  31.318  1.00  0.00     0.280 C
HETATM    9  C25 UNL     1      41.967  -1.034  30.685  1.00  0.00     0.249 C
HETATM   10  O3  UNL     1      42.767  -0.302  31.298  1.00  0.00    -0.271 OA
HETATM   11  N6  UNL     1      42.528  -1.412  29.411  1.00  0.00    -0.353 N
ATOM     12  H6  UNL     1      43.205  -0.752  29.029  1.00  0.00     0.163 HD
ENDROOT
BRANCH   4  13
HETATM   13  C8  UNL     1      39.162  -4.134  31.597  1.00  0.00     0.184 C
BRANCH  13  14
HETATM   14  N4  UNL     1      38.341  -3.467  30.640  1.00  0.00    -0.357 N
HETATM   15  C9  UNL     1      37.332  -4.089  29.893  1.00  0.00     0.221 C
HETATM   16  O2  UNL     1      37.026  -5.304  29.976  1.00  0.00    -0.273 OA
ATOM     17  H4  UNL     1      38.499  -2.470  30.490  1.00  0.00     0.162 HD
BRANCH  15  18
HETATM   18  C10 UNL     1      36.531  -3.273  28.901  1.00  0.00     0.078 C
HETATM   19  C11 UNL     1      36.493  -1.870  29.469  1.00  0.00     0.014 C
HETATM   20  C12 UNL     1      35.321  -1.061  29.017  1.00  0.00     0.001 C
HETATM   21  C13 UNL     1      35.152  -1.153  27.518  1.00  0.00     0.000 C
HETATM   22  C14 UNL     1      34.032  -2.167  27.260  1.00  0.00     0.000 C
HETATM   23  C15 UNL     1      34.685  -3.551  27.295  1.00  0.00     0.001 C
HETATM   24  C16 UNL     1      35.163  -3.840  28.685  1.00  0.00     0.014 C
ENDBRANCH  15  18
ENDBRANCH  13  14
ENDBRANCH   4  13
BRANCH   8  25
HETATM   25  C18 UNL     1      40.143  -0.353  32.238  1.00  0.00     0.047 C
BRANCH  25  26
HETATM   26  C19 UNL     1      38.689  -0.252  32.454  1.00  0.00    -0.012 C
HETATM   27  C20 UNL     1      38.183   1.182  32.509  1.00  0.00     0.005 C
HETATM   28  C21 UNL     1      36.794   1.179  33.126  1.00  0.00     0.000 C
HETATM   29  C22 UNL     1      36.034   0.034  32.492  1.00  0.00     0.000 C
HETATM   30  C23 UNL     1      36.550  -1.252  33.095  1.00  0.00     0.000 C
HETATM   31  C24 UNL     1      38.042  -1.138  33.470  1.00  0.00     0.005 C
ENDBRANCH  25  26
ENDBRANCH   8  25
BRANCH   1  32
HETATM   32  C4  UNL     1      43.414  -2.806  27.641  1.00  0.00     0.029 C
BRANCH  32  33
HETATM   33  C3  UNL     1      44.173  -1.559  27.261  1.00  0.00     0.022 C
BRANCH  33  34
HETATM   34  C2  UNL     1      44.955  -1.916  25.992  1.00  0.00     0.122 C
BRANCH  34  35
HETATM   35  N3  UNL     1      44.084  -2.427  24.957  1.00  0.00    -0.365 N
HETATM   36  C1  UNL     1      44.184  -3.747  24.462  1.00  0.00     0.181 C
HETATM   37  N1  UNL     1      44.890  -4.634  25.068  1.00  0.00    -0.374 N
HETATM   38  N2  UNL     1      43.499  -4.109  23.284  1.00  0.00    -0.064 NA
ATOM     39  H12 UNL     1      44.961  -5.587  24.711  1.00  0.00     0.158 HD
ATOM     40  H11 UNL     1      45.385  -4.372  25.921  1.00  0.00     0.158 HD
ATOM     41  H3  UNL     1      43.371  -1.810  24.567  1.00  0.00     0.162 HD
ENDBRANCH  34  35
ENDBRANCH  33  34
ENDBRANCH  32  33
ENDBRANCH   1  32
TORSDOF 9
ENDMDL