MODEL 1
REMARK VINA RESULT: -8.264211141      0.000      0.000
REMARK  12 active torsions:
REMARK  status: ('A' for Active; 'I' for Inactive)
REMARK    1  A    between atoms: C4_4  and  C5_5
REMARK    2  A    between atoms: C5_5  and  C6_6
REMARK    3  A    between atoms: C9_9  and  O1_10
REMARK    4  A    between atoms: C9_9  and  C10_12
REMARK    5  A    between atoms: C10_12  and  C11_13
REMARK    6  A    between atoms: C12_14  and  C13_15
REMARK    7  A    between atoms: C15_19  and  N2_20
REMARK    8  A    between atoms: C16_25  and  C17_26
REMARK    9  A    between atoms: C17_26  and  C18_27
REMARK   10  A    between atoms: C18_27  and  C19_28
REMARK   11  A    between atoms: C19_28  and  C20_29
REMARK   12  A    between atoms: C20_29  and  N4_30
REMARK       I    between atoms: N4_30  and  C21_32
ROOT
HETATM    1  C10 UNL     1      41.947  -1.152  31.021  1.00  0.00     0.033 C
HETATM    2  C16 UNL     1      42.634  -0.809  32.068  1.00  0.00    -0.007 C
ENDROOT
BRANCH   1   3
HETATM    3  C9  UNL     1      40.490  -1.213  31.015  1.00  0.00     0.148 C
HETATM    4  C8  UNL     1      40.022  -1.767  29.664  1.00  0.00     0.017 C
HETATM    5  C7  UNL     1      38.908  -2.479  29.534  1.00  0.00    -0.007 C
HETATM    6  C6  UNL     1      38.001  -2.803  30.715  1.00  0.00     0.070 C
HETATM    7  C25 UNL     1      38.611  -3.761  31.688  1.00  0.00     0.143 C
HETATM    8  C26 UNL     1      38.281  -1.615  31.536  1.00  0.00     0.180 C
HETATM    9  C24 UNL     1      38.501  -3.309  33.155  1.00  0.00     0.037 C
HETATM   10  O2  UNL     1      39.916  -3.323  31.494  1.00  0.00    -0.362 OA
HETATM   11  C23 UNL     1      39.604  -2.210  33.299  1.00  0.00     0.053 C
HETATM   12  C22 UNL     1      39.727  -1.965  31.911  1.00  0.00     0.162 C
HETATM   13  O3  UNL     1      37.632  -0.696  31.822  1.00  0.00    -0.293 OA
BRANCH   6  14
HETATM   14  C5  UNL     1      36.617  -3.045  30.312  1.00  0.00     0.051 C
BRANCH  14  15
HETATM   15  C4  UNL     1      36.283  -2.345  29.073  1.00  0.00    -0.023 C
HETATM   16  C2  UNL     1      35.415  -1.368  28.929  1.00  0.00    -0.091 C
HETATM   17  C1  UNL     1      34.613  -0.801  30.032  1.00  0.00     0.042 C
HETATM   18  C3  UNL     1      35.200  -0.765  27.574  1.00  0.00     0.042 C
ENDBRANCH  14  15
ENDBRANCH   6  14
BRANCH   3  19
HETATM   19  O1  UNL     1      40.038   0.135  30.962  1.00  0.00    -0.377 OA
ATOM     20  H1  UNL     1      40.854   0.622  30.957  1.00  0.00     0.211 HD
ENDBRANCH   3  19
ENDBRANCH   1   3
BRANCH   1  21
HETATM   21  C11 UNL     1      42.624  -1.522  29.774  1.00  0.00    -0.061 C
HETATM   22  C12 UNL     1      43.162  -1.841  28.741  1.00  0.00    -0.042 C
BRANCH  22  23
HETATM   23  C13 UNL     1      43.778  -2.224  27.502  1.00  0.00     0.119 A
HETATM   24  C14 UNL     1      44.536  -1.417  26.681  1.00  0.00     0.145 A
HETATM   25  N1  UNL     1      44.928  -2.154  25.619  1.00  0.00    -0.199 N
HETATM   26  C15 UNL     1      44.428  -3.397  25.768  1.00  0.00     0.676 A
ATOM     27  H1  UNL     1      45.502  -1.826  24.841  1.00  0.00     0.183 HD
HETATM   28  N3  UNL     1      43.724  -3.436  26.923  1.00  0.00    -0.183 N
ATOM     29  H3  UNL     1      43.233  -4.250  27.293  1.00  0.00     0.185 HD
BRANCH  26  30
HETATM   30  N2  UNL     1      44.563  -4.415  24.982  1.00  0.00    -0.234 N
ATOM     31  H22 UNL     1      45.023  -5.281  25.260  1.00  0.00     0.174 HD
ATOM     32  H21 UNL     1      44.249  -4.514  24.016  1.00  0.00     0.174 HD
ENDBRANCH  26  30
ENDBRANCH  22  23
ENDBRANCH   1  21
BRANCH   2  33
HETATM   33  C17 UNL     1      44.135  -0.781  31.956  1.00  0.00     0.028 C
BRANCH  33  34
HETATM   34  C18 UNL     1      44.662   0.124  33.018  1.00  0.00     0.005 C
BRANCH  34  35
HETATM   35  C19 UNL     1      44.126  -0.225  34.373  1.00  0.00     0.020 C
BRANCH  35  36
HETATM   36  C20 UNL     1      44.750   0.671  35.408  1.00  0.00     0.122 C
BRANCH  36  37
HETATM   37  N4  UNL     1      46.175   0.787  35.248  1.00  0.00    -0.365 N
HETATM   38  C21 UNL     1      47.059  -0.154  35.826  1.00  0.00     0.181 C
HETATM   39  N5  UNL     1      48.309  -0.224  35.453  1.00  0.00    -0.374 N
HETATM   40  N6  UNL     1      46.674  -1.082  36.839  1.00  0.00    -0.064 NA
ATOM     41  H52 UNL     1      48.586   0.439  34.729  1.00  0.00     0.158 HD
ATOM     42  H51 UNL     1      48.947  -0.903  35.870  1.00  0.00     0.158 HD
ATOM     43  H4  UNL     1      46.555   1.563  34.707  1.00  0.00     0.162 HD
ENDBRANCH  36  37
ENDBRANCH  35  36
ENDBRANCH  34  35
ENDBRANCH  33  34
ENDBRANCH   2  33
TORSDOF 12
ENDMDL