MODEL 5
REMARK VINA RESULT: -5.831723730      2.740      7.373
REMARK  9 active torsions:
REMARK  status: ('A' for Active; 'I' for Inactive)
REMARK    1  A    between atoms: C2_2  and  C3_3
REMARK    2  A    between atoms: C3_3  and  C4_4
REMARK    3  A    between atoms: C4_4  and  N1_5
REMARK       I    between atoms: N1_5  and  C5_7
REMARK    4  A    between atoms: C5_7  and  C6_9
REMARK    5  A    between atoms: C16_22  and  C17_23
REMARK    6  A    between atoms: C19_27  and  O5_28
REMARK    7  A    between atoms: C20_32  and  C21_33
REMARK    8  A    between atoms: C21_33  and  C22_34
REMARK    9  A    between atoms: C22_34  and  C23_35
ROOT
HETATM    1  C6  UNL     1      41.597  -3.732  30.463  1.00  0.00     0.194 C
HETATM    2  C7  UNL     1      41.180  -2.875  31.598  1.00  0.00     0.003 C
HETATM    3  C8  UNL     1      41.209  -1.445  31.691  1.00  0.00    -0.028 C
HETATM    4  C9  UNL     1      40.258  -0.525  31.035  1.00  0.00     0.027 C
HETATM    5  C10 UNL     1      38.918  -0.999  30.642  1.00  0.00     0.004 C
HETATM    6  C11 UNL     1      37.854  -0.781  31.692  1.00  0.00     0.002 C
HETATM    7  C12 UNL     1      36.669  -1.659  31.531  1.00  0.00     0.020 C
HETATM    8  C13 UNL     1      36.258  -1.947  30.118  1.00  0.00     0.122 C
HETATM    9  N2  UNL     1      35.149  -2.888  30.151  1.00  0.00    -0.361 N
ATOM     10  H2  UNL     1      34.267  -2.572  29.747  1.00  0.00     0.162 HD
HETATM   11  C14 UNL     1      35.170  -4.176  30.679  1.00  0.00     0.218 C
HETATM   12  O2  UNL     1      34.127  -4.532  31.342  1.00  0.00    -0.274 OA
HETATM   13  C15 UNL     1      36.237  -5.182  30.574  1.00  0.00     0.118 C
HETATM   14  C16 UNL     1      36.779  -5.405  29.184  1.00  0.00     0.103 C
HETATM   15  C18 UNL     1      37.157  -6.827  28.998  1.00  0.00     0.099 C
HETATM   16  C19 UNL     1      38.577  -7.210  29.031  1.00  0.00     0.113 C
HETATM   17  N3  UNL     1      39.745  -6.510  29.292  1.00  0.00    -0.354 N
ATOM     18  H3  UNL     1      40.459  -6.562  28.566  1.00  0.00     0.163 HD
HETATM   19  C20 UNL     1      40.092  -5.711  30.461  1.00  0.00     0.179 C
HETATM   20  N4  UNL     1      40.362  -4.433  30.055  1.00  0.00    -0.386 N
ATOM     21  H4  UNL     1      39.693  -3.951  29.455  1.00  0.00     0.156 HD
ENDROOT
BRANCH   1  22
HETATM   22  C5  UNL     1      42.065  -3.085  29.223  1.00  0.00     0.247 C
HETATM   23  N1  UNL     1      43.485  -3.028  29.023  1.00  0.00    -0.339 N
ATOM     24  H1  UNL     1      44.063  -3.421  29.766  1.00  0.00     0.167 HD
HETATM   25  O1  UNL     1      41.354  -2.621  28.369  1.00  0.00    -0.271 OA
BRANCH  23  26
HETATM   26  C4  UNL     1      44.158  -2.502  27.941  1.00  0.00     0.064 C
BRANCH  26  27
HETATM   27  C3  UNL     1      44.297  -3.161  26.657  1.00  0.00     0.044 C
BRANCH  27  28
HETATM   28  C2  UNL     1      44.594  -2.371  25.431  1.00  0.00     0.001 C
HETATM   29  C1  UNL     1      44.316  -3.332  24.253  1.00  0.00     0.005 C
ENDBRANCH  27  28
ENDBRANCH  26  27
ENDBRANCH  23  26
ENDBRANCH   1  22
BRANCH  19  30
HETATM   30  C21 UNL     1      41.279  -6.351  31.196  1.00  0.00     0.046 C
BRANCH  30  31
HETATM   31  C22 UNL     1      41.935  -7.392  30.302  1.00  0.00     0.003 C
BRANCH  31  32
HETATM   32  C23 UNL     1      43.297  -6.885  29.901  1.00  0.00    -0.004 C
HETATM   33  C24 UNL     1      44.073  -6.395  31.118  1.00  0.00     0.005 C
ENDBRANCH  31  32
ENDBRANCH  30  31
ENDBRANCH  19  30
BRANCH  16  34
HETATM   34  O5  UNL     1      38.720  -8.482  28.751  1.00  0.00    -0.349 OA
ATOM     35  H5  UNL     1      39.631  -8.685  28.568  1.00  0.00     0.219 HD
ENDBRANCH  16  34
BRANCH  14  36
HETATM   36  C17 UNL     1      35.689  -5.130  28.222  1.00  0.00     0.177 C
HETATM   37  O3  UNL     1      35.711  -4.116  27.507  1.00  0.00    -0.648 OA
HETATM   38  O4  UNL     1      34.642  -6.016  28.122  1.00  0.00    -0.648 OA
ENDBRANCH  14  36
TORSDOF 9
ENDMDL