MODEL 2
REMARK VINA RESULT: -7.191282307      2.750      8.699
REMARK  9 active torsions:
REMARK  status: ('A' for Active; 'I' for Inactive)
REMARK    1  A    between atoms: C2_2  and  C4_4
REMARK    2  A    between atoms: C4_4  and  C5_5
REMARK    3  A    between atoms: C5_5  and  N1_6
REMARK    4  A    between atoms: C5_5  and  C16_25
REMARK       I    between atoms: N1_6  and  C6_8
REMARK    5  A    between atoms: C6_8  and  C7_10
REMARK       I    between atoms: C7_10  and  N2_12
REMARK    6  A    between atoms: N2_12  and  C8_14
REMARK       I    between atoms: C16_25  and  N4_27
REMARK    7  A    between atoms: N4_27  and  C17_29
REMARK    8  A    between atoms: C17_29  and  C18_30
REMARK    9  A    between atoms: C17_29  and  C19_33
ROOT
HETATM    1  C5  UNL     1      42.200  -1.454  30.507  1.00  0.00     0.177 C
ENDROOT
BRANCH   1   2
HETATM    2  C4  UNL     1      42.428  -1.783  29.087  1.00  0.00     0.038 C
BRANCH   2   3
HETATM    3  C2  UNL     1      43.739  -2.311  28.671  1.00  0.00    -0.020 C
HETATM    4  C1  UNL     1      44.183  -1.450  27.467  1.00  0.00     0.009 C
HETATM    5  C3  UNL     1      43.807  -3.721  28.219  1.00  0.00     0.009 C
ENDBRANCH   2   3
ENDBRANCH   1   2
BRANCH   1   6
HETATM    6  N1  UNL     1      43.209  -0.701  31.175  1.00  0.00    -0.340 N
HETATM    7  C6  UNL     1      43.549  -0.877  32.563  1.00  0.00     0.310 C
HETATM    8  O1  UNL     1      42.904  -1.750  33.209  1.00  0.00    -0.262 OA
ATOM      9  H1  UNL     1      43.718   0.003  30.640  1.00  0.00     0.163 HD
BRANCH   7  10
HETATM   10  C7  UNL     1      44.569  -0.118  33.227  1.00  0.00     0.309 C
HETATM   11  O2  UNL     1      45.470   0.424  32.544  1.00  0.00    -0.262 OA
HETATM   12  N2  UNL     1      44.603   0.049  34.635  1.00  0.00    -0.346 N
ATOM     13  H2  UNL     1      43.877  -0.383  35.207  1.00  0.00     0.163 HD
BRANCH  12  14
HETATM   14  C8  UNL     1      45.652   0.824  35.281  1.00  0.00     0.122 C
HETATM   15  C9  UNL     1      46.820   0.005  35.721  1.00  0.00     0.065 C
HETATM   16  C10 UNL     1      46.776   0.046  37.215  1.00  0.00     0.121 C
HETATM   17  C11 UNL     1      48.199   0.052  37.745  1.00  0.00     0.046 C
HETATM   18  C12 UNL     1      46.023  -1.121  37.752  1.00  0.00     0.046 C
HETATM   19  N3  UNL     1      46.074   1.262  37.571  1.00  0.00    -0.057 N
HETATM   20  C13 UNL     1      45.147   1.530  36.521  1.00  0.00     0.139 C
ATOM     21  H32 UNL     1      45.636   1.217  38.491  1.00  0.00     0.279 HD
ATOM     22  H31 UNL     1      46.699   2.045  37.763  1.00  0.00     0.279 HD
HETATM   23  C14 UNL     1      43.781   1.060  36.927  1.00  0.00     0.048 C
HETATM   24  C15 UNL     1      45.116   3.050  36.318  1.00  0.00     0.048 C
ENDBRANCH  12  14
ENDBRANCH   7  10
ENDBRANCH   1   6
BRANCH   1  25
HETATM   25  C16 UNL     1      40.839  -0.912  30.820  1.00  0.00     0.241 C
HETATM   26  O3  UNL     1      40.460   0.049  30.116  1.00  0.00    -0.271 OA
HETATM   27  N4  UNL     1      40.004  -1.408  31.826  1.00  0.00    -0.344 N
ATOM     28  H4  UNL     1      40.383  -2.199  32.346  1.00  0.00     0.163 HD
BRANCH  27  29
HETATM   29  C17 UNL     1      38.719  -0.989  32.236  1.00  0.00     0.189 C
BRANCH  29  30
HETATM   30  C18 UNL     1      38.708   0.425  32.754  1.00  0.00     0.197 C
HETATM   31  O4  UNL     1      38.183   1.369  32.128  1.00  0.00    -0.646 OA
HETATM   32  O5  UNL     1      39.295   0.745  33.972  1.00  0.00    -0.646 OA
ENDBRANCH  29  30
BRANCH  29  33
HETATM   33  C19 UNL     1      37.575  -1.156  31.321  1.00  0.00     0.019 C
HETATM   34  C20 UNL     1      36.220  -1.200  31.996  1.00  0.00     0.007 C
HETATM   35  C21 UNL     1      35.189  -1.712  30.985  1.00  0.00     0.000 C
HETATM   36  C22 UNL     1      35.546  -1.076  29.635  1.00  0.00     0.000 C
HETATM   37  C23 UNL     1      36.751  -1.825  29.128  1.00  0.00     0.000 C
HETATM   38  C24 UNL     1      37.647  -2.240  30.309  1.00  0.00     0.007 C
ENDBRANCH  29  33
ENDBRANCH  27  29
ENDBRANCH   1  25
TORSDOF 9
ENDMDL