MODEL 5
REMARK VINA RESULT: -6.711309441      6.055      9.240
REMARK  9 active torsions:
REMARK  status: ('A' for Active; 'I' for Inactive)
REMARK    1  A    between atoms: C1_2  and  C2_3
REMARK       I    between atoms: C1_2  and  N5_33
REMARK    2  A    between atoms: C2_3  and  C3_4
REMARK    3  A    between atoms: C3_4  and  N1_5
REMARK       I    between atoms: N1_5  and  C4_7
REMARK       I    between atoms: C4_7  and  N2_9
REMARK    4  A    between atoms: N2_9  and  C5_11
REMARK    5  A    between atoms: C11_19  and  C12_20
REMARK    6  A    between atoms: C11_19  and  C13_22
REMARK       I    between atoms: C13_22  and  N4_24
REMARK    7  A    between atoms: N4_24  and  C14_26
REMARK    8  A    between atoms: N5_33  and  C21_35
REMARK    9  A    between atoms: C21_35  and  C22_36
ROOT
HETATM    1  C5  UNL     1      40.474   0.095  34.723  1.00  0.00     0.109 A
HETATM    2  C6  UNL     1      41.309  -0.758  34.037  1.00  0.00     0.056 A
HETATM    3  C7  UNL     1      41.116  -1.075  32.684  1.00  0.00    -0.046 A
HETATM    4  C8  UNL     1      40.052  -0.513  32.017  1.00  0.00    -0.035 A
HETATM    5  C9  UNL     1      39.234   0.337  32.735  1.00  0.00     0.097 A
HETATM    6  N3  UNL     1      39.445   0.626  34.039  1.00  0.00    -0.352 N
ATOM      7  H3  UNL     1      38.807   1.263  34.517  1.00  0.00     0.166 HD
HETATM    8  C10 UNL     1      40.007  -0.970  30.594  1.00  0.00     0.060 C
HETATM    9  C11 UNL     1      40.855  -2.229  30.666  1.00  0.00     0.058 C
HETATM   10  C20 UNL     1      41.849  -1.938  31.734  1.00  0.00     0.059 C
ENDROOT
BRANCH   1  11
HETATM   11  N2  UNL     1      40.711   0.344  35.970  1.00  0.00    -0.295 N
HETATM   12  C4  UNL     1      41.344   1.552  36.392  1.00  0.00     0.321 C
HETATM   13  N1  UNL     1      42.753   1.656  36.361  1.00  0.00    -0.342 N
HETATM   14  O2  UNL     1      40.646   2.528  36.792  1.00  0.00    -0.247 OA
ATOM     15  H1  UNL     1      43.287   0.852  36.030  1.00  0.00     0.164 HD
ATOM     16  H2  UNL     1      40.438  -0.343  36.672  1.00  0.00     0.172 HD
BRANCH  13  17
HETATM   17  C3  UNL     1      43.479   2.829  36.770  1.00  0.00     0.133 C
BRANCH  17  18
HETATM   18  C2  UNL     1      44.908   2.853  36.333  1.00  0.00     0.122 C
BRANCH  18  19
HETATM   19  C1  UNL     1      45.683   1.714  36.891  1.00  0.00     0.219 C
HETATM   20  O1  UNL     1      45.325   1.240  37.993  1.00  0.00    -0.274 OA
HETATM   21  N5  UNL     1      46.788   1.168  36.224  1.00  0.00    -0.360 N
ATOM     22  H5  UNL     1      47.074   1.561  35.327  1.00  0.00     0.162 HD
BRANCH  21  23
HETATM   23  C21 UNL     1      47.528   0.065  36.780  1.00  0.00     0.133 C
BRANCH  23  24
HETATM   24  C22 UNL     1      48.273  -0.702  35.703  1.00  0.00     0.105 C
HETATM   25  S2  UNL     1      50.061  -0.699  36.017  1.00  0.00    -0.096 SA
ENDBRANCH  23  24
ENDBRANCH  21  23
ENDBRANCH  18  19
ENDBRANCH  17  18
ENDBRANCH  13  17
ENDBRANCH   1  11
BRANCH   9  26
HETATM   26  C12 UNL     1      40.039  -3.429  31.057  1.00  0.00     0.106 C
HETATM   27  S1  UNL     1      41.219  -4.736  31.548  1.00  0.00    -0.096 SA
ENDBRANCH   9  26
BRANCH   9  28
HETATM   28  C13 UNL     1      41.431  -2.449  29.341  1.00  0.00     0.228 C
HETATM   29  O3  UNL     1      40.738  -2.954  28.432  1.00  0.00    -0.273 OA
HETATM   30  N4  UNL     1      42.769  -2.095  29.080  1.00  0.00    -0.356 N
ATOM     31  H4  UNL     1      43.314  -1.685  29.839  1.00  0.00     0.162 HD
BRANCH  30  32
HETATM   32  C14 UNL     1      43.419  -2.278  27.801  1.00  0.00     0.084 C
HETATM   33  C15 UNL     1      44.597  -1.362  27.599  1.00  0.00     0.025 C
HETATM   34  C16 UNL     1      44.953  -1.410  26.125  1.00  0.00     0.002 C
HETATM   35  C17 UNL     1      44.300  -2.559  25.410  1.00  0.00     0.000 C
HETATM   36  C18 UNL     1      44.497  -3.817  26.225  1.00  0.00     0.002 C
HETATM   37  C19 UNL     1      43.788  -3.707  27.552  1.00  0.00     0.025 C
ENDBRANCH  30  32
ENDBRANCH   9  28
TORSDOF 9
ENDMDL