MODEL 5
REMARK VINA RESULT: -8.137013657      4.027      8.266
REMARK  9 active torsions:
REMARK  status: ('A' for Active; 'I' for Inactive)
REMARK    1  A    between atoms: C2_2  and  O1_4
REMARK    2  A    between atoms: C2_2  and  C4_6
REMARK    3  A    between atoms: C7_9  and  N1_10
REMARK       I    between atoms: N1_10  and  C8_12
REMARK    4  A    between atoms: C8_12  and  C9_14
REMARK    5  A    between atoms: C9_14  and  C10_15
REMARK    6  A    between atoms: C9_14  and  N2_22
REMARK    7  A    between atoms: C10_15  and  C11_16
REMARK       I    between atoms: N2_22  and  C17_24
REMARK       I    between atoms: C17_24  and  N3_26
REMARK    8  A    between atoms: N3_26  and  C18_28
REMARK    9  A    between atoms: C18_28  and  C19_29
ROOT
HETATM    1  C9  UNL     1      41.487  -1.183  31.107  1.00  0.00     0.178 C
ENDROOT
BRANCH   1   2
HETATM    2  C8  UNL     1      42.417  -1.369  32.238  1.00  0.00     0.240 C
HETATM    3  N1  UNL     1      43.158  -0.297  32.791  1.00  0.00    -0.355 N
ATOM      4  H1  UNL     1      43.038   0.631  32.385  1.00  0.00     0.162 HD
HETATM    5  O2  UNL     1      42.560  -2.514  32.732  1.00  0.00    -0.271 OA
BRANCH   3   6
HETATM    6  C7  UNL     1      44.066  -0.442  33.885  1.00  0.00     0.084 C
HETATM    7  C6  UNL     1      43.321  -0.143  35.171  1.00  0.00     0.026 C
HETATM    8  C5  UNL     1      44.169  -0.248  36.389  1.00  0.00     0.009 C
HETATM    9  C4  UNL     1      45.486   0.428  36.266  1.00  0.00     0.019 C
HETATM   10  C24 UNL     1      46.131   0.315  34.921  1.00  0.00     0.009 C
HETATM   11  C23 UNL     1      45.178   0.583  33.777  1.00  0.00     0.026 C
BRANCH   9  12
HETATM   12  C2  UNL     1      46.486  -0.026  37.301  1.00  0.00     0.054 C
HETATM   13  C1  UNL     1      47.895  -0.013  36.751  1.00  0.00     0.045 C
HETATM   14  C3  UNL     1      46.473   0.855  38.530  1.00  0.00     0.045 C
BRANCH  12  15
HETATM   15  O1  UNL     1      46.220  -1.328  37.724  1.00  0.00    -0.390 OA
ATOM     16  H1  UNL     1      45.412  -1.303  38.224  1.00  0.00     0.210 HD
ENDBRANCH  12  15
ENDBRANCH   9  12
ENDBRANCH   3   6
ENDBRANCH   1   2
BRANCH   1  17
HETATM   17  C10 UNL     1      40.727  -2.489  30.910  1.00  0.00     0.039 C
BRANCH  17  18
HETATM   18  C11 UNL     1      39.708  -2.392  29.810  1.00  0.00    -0.012 C
HETATM   19  C12 UNL     1      38.570  -1.508  30.317  1.00  0.00     0.005 C
HETATM   20  C13 UNL     1      37.341  -1.847  29.475  1.00  0.00     0.000 C
HETATM   21  C14 UNL     1      36.736  -3.093  30.101  1.00  0.00     0.000 C
HETATM   22  C15 UNL     1      37.892  -3.972  30.525  1.00  0.00     0.000 C
HETATM   23  C16 UNL     1      39.095  -3.777  29.625  1.00  0.00     0.005 C
ENDBRANCH  17  18
ENDBRANCH   1  17
BRANCH   1  24
HETATM   24  N2  UNL     1      42.178  -0.717  29.960  1.00  0.00    -0.330 N
HETATM   25  C17 UNL     1      43.249  -1.347  29.318  1.00  0.00     0.317 C
HETATM   26  O3  UNL     1      43.732  -2.421  29.734  1.00  0.00    -0.247 OA
HETATM   27  N3  UNL     1      43.831  -0.747  28.127  1.00  0.00    -0.339 N
ATOM     28  H3  UNL     1      43.468   0.130  27.753  1.00  0.00     0.164 HD
ATOM     29  H2  UNL     1      41.860   0.166  29.562  1.00  0.00     0.165 HD
BRANCH  27  30
HETATM   30  C18 UNL     1      44.923  -1.415  27.496  1.00  0.00     0.170 C
BRANCH  30  31
HETATM   31  C19 UNL     1      44.552  -2.369  26.448  1.00  0.00     0.043 A
HETATM   32  C20 UNL     1      44.279  -3.700  26.594  1.00  0.00     0.107 A
HETATM   33  N4  UNL     1      43.947  -4.443  25.495  1.00  0.00    -0.318 N
HETATM   34  C21 UNL     1      43.872  -3.934  24.262  1.00  0.00     0.326 A
ATOM     35  H4  UNL     1      43.746  -5.434  25.623  1.00  0.00     0.170 HD
HETATM   36  O4  UNL     1      43.557  -4.695  23.310  1.00  0.00    -0.247 OA
HETATM   37  N5  UNL     1      44.135  -2.631  24.100  1.00  0.00    -0.275 N
HETATM   38  C22 UNL     1      44.466  -1.859  25.148  1.00  0.00     0.258 A
ATOM     39  H5  UNL     1      44.084  -2.219  23.167  1.00  0.00     0.173 HD
HETATM   40  O5  UNL     1      44.700  -0.644  24.924  1.00  0.00    -0.267 OA
ENDBRANCH  30  31
ENDBRANCH  27  30
ENDBRANCH   1  24
TORSDOF 9
ENDMDL