MODEL 4
REMARK VINA RESULT: -6.758992765      5.146      9.072
REMARK  8 active torsions:
REMARK  status: ('A' for Active; 'I' for Inactive)
REMARK       I    between atoms: C1_4  and  N3_6
REMARK    1  A    between atoms: N3_6  and  C2_8
REMARK    2  A    between atoms: C2_8  and  C3_9
REMARK    3  A    between atoms: C3_9  and  C4_10
REMARK    4  A    between atoms: C4_10  and  C5_11
REMARK    5  A    between atoms: C5_11  and  C6_12
REMARK    6  A    between atoms: C14_23  and  C15_24
REMARK       I    between atoms: C15_24  and  N5_26
REMARK    7  A    between atoms: N5_26  and  C16_28
REMARK    8  A    between atoms: C16_28  and  C17_29
ROOT
HETATM    1  C6  UNL     1      41.192  -1.563  31.572  1.00  0.00     0.078 C
HETATM    2  C7  UNL     1      42.438  -0.739  31.279  1.00  0.00     0.015 C
HETATM    3  C8  UNL     1      43.574  -1.132  32.229  1.00  0.00     0.028 C
HETATM    4  C9  UNL     1      43.215  -0.557  33.568  1.00  0.00     0.232 C
HETATM    5  N4  UNL     1      44.315  -0.227  34.412  1.00  0.00    -0.075 N
ATOM      6  H41 UNL     1      45.146   0.053  33.893  1.00  0.00     0.277 HD
ATOM      7  H42 UNL     1      44.717  -1.041  34.878  1.00  0.00     0.277 HD
HETATM    8  C10 UNL     1      43.856   0.798  35.350  1.00  0.00     0.232 C
HETATM    9  C11 UNL     1      42.794   0.223  36.274  1.00  0.00     0.027 C
HETATM   10  C12 UNL     1      41.654   1.175  36.430  1.00  0.00     0.002 C
HETATM   11  C13 UNL     1      40.290   0.543  36.131  1.00  0.00     0.014 C
HETATM   12  C14 UNL     1      39.473   1.440  35.252  1.00  0.00     0.080 C
HETATM   13  C18 UNL     1      38.640   0.786  34.209  1.00  0.00     0.039 C
HETATM   14  C19 UNL     1      39.058  -0.515  33.675  1.00  0.00     0.088 C
HETATM   15  C20 UNL     1      38.206  -1.667  34.160  1.00  0.00     0.025 C
HETATM   16  C21 UNL     1      36.767  -1.537  33.747  1.00  0.00     0.004 C
HETATM   17  C22 UNL     1      36.548  -1.152  32.342  1.00  0.00     0.020 C
HETATM   18  C23 UNL     1      37.581  -0.242  31.746  1.00  0.00     0.126 C
HETATM   19  N6  UNL     1      38.927  -0.500  32.226  1.00  0.00    -0.347 N
HETATM   20  C24 UNL     1      40.000  -0.712  31.320  1.00  0.00     0.224 C
HETATM   21  O4  UNL     1      39.974  -0.139  30.179  1.00  0.00    -0.273 OA
ENDROOT
BRANCH   1  22
HETATM   22  C5  UNL     1      41.239  -2.718  30.571  1.00  0.00     0.014 C
BRANCH  22  23
HETATM   23  C4  UNL     1      42.218  -2.510  29.482  1.00  0.00     0.002 C
BRANCH  23  24
HETATM   24  C3  UNL     1      42.766  -3.853  29.064  1.00  0.00     0.020 C
BRANCH  24  25
HETATM   25  C2  UNL     1      43.951  -3.785  28.164  1.00  0.00     0.122 C
BRANCH  25  26
HETATM   26  N3  UNL     1      43.519  -3.429  26.818  1.00  0.00    -0.365 N
HETATM   27  C1  UNL     1      44.416  -3.455  25.737  1.00  0.00     0.181 C
HETATM   28  N1  UNL     1      44.666  -4.488  25.026  1.00  0.00    -0.374 N
HETATM   29  N2  UNL     1      45.084  -2.221  25.431  1.00  0.00    -0.064 NA
ATOM     30  H12 UNL     1      45.317  -4.506  24.241  1.00  0.00     0.158 HD
ATOM     31  H11 UNL     1      44.191  -5.364  25.243  1.00  0.00     0.158 HD
ATOM     32  H3  UNL     1      42.550  -3.155  26.659  1.00  0.00     0.162 HD
ENDBRANCH  25  26
ENDBRANCH  24  25
ENDBRANCH  23  24
ENDBRANCH  22  23
ENDBRANCH   1  22
BRANCH  12  33
HETATM   33  C15 UNL     1      38.705   2.441  36.036  1.00  0.00     0.222 C
HETATM   34  O1  UNL     1      37.677   2.106  36.668  1.00  0.00    -0.273 OA
HETATM   35  N5  UNL     1      39.118   3.794  36.084  1.00  0.00    -0.351 N
ATOM     36  H5  UNL     1      39.956   4.058  35.567  1.00  0.00     0.163 HD
BRANCH  35  37
HETATM   37  C16 UNL     1      38.427   4.817  36.818  1.00  0.00     0.235 C
BRANCH  37  38
HETATM   38  C17 UNL     1      37.526   5.602  35.939  1.00  0.00     0.191 C
HETATM   39  O2  UNL     1      37.670   6.847  35.797  1.00  0.00    -0.647 OA
HETATM   40  O3  UNL     1      36.499   4.986  35.251  1.00  0.00    -0.647 OA
ENDBRANCH  37  38
ENDBRANCH  35  37
ENDBRANCH  12  33
TORSDOF 8
ENDMDL