MODEL 5
REMARK VINA RESULT: -7.548753928      4.021      6.373
REMARK  11 active torsions:
REMARK  status: ('A' for Active; 'I' for Inactive)
REMARK    1  A    between atoms: C1_4  and  C2_6
REMARK    2  A    between atoms: C2_6  and  C3_7
REMARK    3  A    between atoms: C3_7  and  N3_8
REMARK       I    between atoms: N3_8  and  C4_10
REMARK    4  A    between atoms: C4_10  and  C5_12
REMARK    5  A    between atoms: C8_15  and  N4_16
REMARK       I    between atoms: N4_16  and  C9_18
REMARK       I    between atoms: C9_18  and  N6_23
REMARK    6  A    between atoms: N5_19  and  O2_21
REMARK    7  A    between atoms: N7_29  and  C15_30
REMARK    8  A    between atoms: C15_30  and  C16_31
REMARK    9  A    between atoms: C16_31  and  C17_32
REMARK   10  A    between atoms: C17_32  and  C18_33
REMARK   11  A    between atoms: N8_38  and  O3_40
ROOT
HETATM    1  C5  UNL     1      43.038  -6.269  31.642  1.00  0.00     0.096 C
HETATM    2  C6  UNL     1      42.429  -5.181  32.546  1.00  0.00     0.019 C
HETATM    3  C7  UNL     1      41.066  -4.914  31.952  1.00  0.00     0.048 C
HETATM    4  C8  UNL     1      41.149  -4.564  30.523  1.00  0.00     0.202 C
HETATM    5  N7  UNL     1      42.440  -4.722  29.881  1.00  0.00    -0.347 N
HETATM    6  C23 UNL     1      43.512  -5.494  30.416  1.00  0.00     0.140 C
ENDROOT
BRANCH   4   7
HETATM    7  N4  UNL     1      40.099  -5.292  29.813  1.00  0.00    -0.203 N
HETATM    8  C9  UNL     1      38.756  -5.071  30.189  1.00  0.00     0.697 C
HETATM    9  N5  UNL     1      37.960  -5.981  30.638  1.00  0.00    -0.099 N
HETATM   10  N6  UNL     1      38.213  -3.748  30.072  1.00  0.00    -0.216 N
ATOM     11  H5  UNL     1      37.009  -5.700  30.877  1.00  0.00     0.213 HD
HETATM   12  C10 UNL     1      37.752  -3.110  31.291  1.00  0.00     0.141 C
HETATM   13  C14 UNL     1      38.121  -3.069  28.816  1.00  0.00     0.141 C
HETATM   14  C11 UNL     1      36.312  -2.685  31.040  1.00  0.00     0.020 C
HETATM   15  C12 UNL     1      36.328  -1.692  29.916  1.00  0.00     0.003 C
HETATM   16  C13 UNL     1      36.926  -2.199  28.656  1.00  0.00     0.020 C
ATOM     17  H4  UNL     1      40.331  -5.944  29.064  1.00  0.00     0.180 HD
BRANCH   9  18
HETATM   18  O2  UNL     1      38.292  -7.281  30.817  1.00  0.00    -0.276 OA
ATOM     19  H2  UNL     1      37.920  -8.010  30.333  1.00  0.00     0.245 HD
ENDBRANCH   9  18
ENDBRANCH   4   7
BRANCH   5  20
HETATM   20  C15 UNL     1      42.590  -4.050  28.651  1.00  0.00     0.101 C
HETATM   21  N8  UNL     1      42.996  -4.729  27.629  1.00  0.00    -0.257 N
ATOM     22  H8  UNL     1      43.185  -5.721  27.771  1.00  0.00     0.195 HD
BRANCH  20  23
HETATM   23  C16 UNL     1      42.318  -2.626  28.453  1.00  0.00     0.078 C
BRANCH  23  24
HETATM   24  C17 UNL     1      43.190  -1.767  29.291  1.00  0.00     0.012 C
BRANCH  24  25
HETATM   25  C18 UNL     1      42.436  -1.027  30.374  1.00  0.00    -0.014 C
HETATM   26  C19 UNL     1      40.960  -1.071  30.225  1.00  0.00     0.004 C
HETATM   27  C20 UNL     1      40.469  -0.583  31.591  1.00  0.00     0.000 C
HETATM   28  C21 UNL     1      41.592  -0.842  32.556  1.00  0.00     0.000 C
HETATM   29  C22 UNL     1      42.701  -1.529  31.750  1.00  0.00     0.004 C
ENDBRANCH  24  25
ENDBRANCH  23  24
ENDBRANCH  20  23
BRANCH  21  30
HETATM   30  O3  UNL     1      43.190  -4.231  26.387  1.00  0.00    -0.288 OA
ATOM     31  H3  UNL     1      43.240  -4.747  25.590  1.00  0.00     0.244 HD
ENDBRANCH  21  30
ENDBRANCH   5  20
BRANCH   1  32
HETATM   32  C4  UNL     1      44.117  -6.978  32.303  1.00  0.00     0.223 C
HETATM   33  N3  UNL     1      45.382  -7.109  31.677  1.00  0.00    -0.360 N
ATOM     34  H3  UNL     1      45.510  -6.693  30.755  1.00  0.00     0.162 HD
HETATM   35  O1  UNL     1      43.953  -7.484  33.432  1.00  0.00    -0.273 OA
BRANCH  33  36
HETATM   36  C3  UNL     1      46.495  -7.798  32.275  1.00  0.00     0.129 C
BRANCH  36  37
HETATM   37  C2  UNL     1      46.381  -9.274  31.982  1.00  0.00     0.092 C
BRANCH  37  38
HETATM   38  C1  UNL     1      46.239  -9.513  30.529  1.00  0.00     0.088 C
HETATM   39  N1  UNL     1      47.292  -9.608  29.791  1.00  0.00    -0.391 N
ATOM     40  H12 UNL     1      47.194  -9.772  28.789  1.00  0.00     0.157 HD
ATOM     41  H11 UNL     1      48.224  -9.520  30.194  1.00  0.00     0.157 HD
HETATM   42  N2  UNL     1      44.948  -9.634  29.970  1.00  0.00    -0.088 NA
ENDBRANCH  37  38
ENDBRANCH  36  37
ENDBRANCH  33  36
ENDBRANCH   1  32
TORSDOF 11
ENDMDL