MODEL 2
REMARK VINA RESULT: -8.280104320      1.842      2.384
REMARK  9 active torsions:
REMARK  status: ('A' for Active; 'I' for Inactive)
REMARK       I    between atoms: C1_2  and  N1_3
REMARK    1  A    between atoms: C1_2  and  C15_23
REMARK       I    between atoms: N1_3  and  C2_5
REMARK       I    between atoms: C2_5  and  N2_6
REMARK       I    between atoms: C2_5  and  N3_13
REMARK    2  A    between atoms: N2_6  and  C3_7
REMARK    3  A    between atoms: N3_13  and  C9_15
REMARK    4  A    between atoms: C14_20  and  O2_21
REMARK    5  A    between atoms: C18_26  and  N4_27
REMARK    6  A    between atoms: N4_27  and  S1_29
REMARK    7  A    between atoms: S1_29  and  N5_32
REMARK    8  A    between atoms: N5_32  and  C19_34
REMARK    9  A    between atoms: C19_34  and  C20_35
ROOT
HETATM    1  O1  UNL     1      44.119   1.321  33.711  1.00  0.00    -0.266 OA
HETATM    2  C1  UNL     1      44.470   0.138  33.629  1.00  0.00     0.275 C
HETATM    3  N1  UNL     1      45.519  -0.425  34.385  1.00  0.00    -0.282 N
ATOM      4  H1  UNL     1      45.734  -1.412  34.243  1.00  0.00     0.173 HD
HETATM    5  C2  UNL     1      46.302   0.304  35.341  1.00  0.00     0.253 C
HETATM    6  N2  UNL     1      47.199  -0.267  35.923  1.00  0.00    -0.410 NA
HETATM    7  N3  UNL     1      46.002   1.679  35.574  1.00  0.00    -0.344 N
ATOM      8  H3  UNL     1      46.399   2.366  34.932  1.00  0.00     0.164 HD
ENDROOT
BRANCH   2   9
HETATM    9  C15 UNL     1      43.722  -0.704  32.670  1.00  0.00     0.102 A
HETATM   10  C16 UNL     1      42.819  -1.689  33.005  1.00  0.00     0.039 A
HETATM   11  C17 UNL     1      42.321  -2.275  31.842  1.00  0.00     0.051 A
HETATM   12  C18 UNL     1      42.941  -1.624  30.804  1.00  0.00     0.116 A
HETATM   13  N6  UNL     1      43.775  -0.687  31.346  1.00  0.00    -0.338 N
ATOM     14  H6  UNL     1      44.363  -0.055  30.801  1.00  0.00     0.167 HD
BRANCH  12  15
HETATM   15  N4  UNL     1      42.741  -1.896  29.434  1.00  0.00    -0.253 N
ATOM     16  H4  UNL     1      42.384  -1.151  28.836  1.00  0.00     0.182 HD
BRANCH  15  17
HETATM   17  S1  UNL     1      43.069  -3.418  28.736  1.00  0.00     0.320 S
HETATM   18  O3  UNL     1      43.000  -3.269  27.225  1.00  0.00    -0.182 OA
HETATM   19  O4  UNL     1      44.400  -3.983  29.057  1.00  0.00    -0.182 OA
BRANCH  17  20
HETATM   20  N5  UNL     1      41.856  -4.582  29.143  1.00  0.00    -0.302 N
ATOM     21  H5  UNL     1      40.882  -4.357  29.345  1.00  0.00     0.173 HD
BRANCH  20  22
HETATM   22  C19 UNL     1      42.414  -5.925  29.156  1.00  0.00     0.138 C
BRANCH  22  23
HETATM   23  C20 UNL     1      42.408  -6.541  30.513  1.00  0.00     0.004 A
HETATM   24  C21 UNL     1      43.077  -5.888  31.662  1.00  0.00     0.007 A
HETATM   25  C22 UNL     1      43.784  -7.024  31.025  1.00  0.00     0.007 A
ENDBRANCH  22  23
ENDBRANCH  20  22
ENDBRANCH  17  20
ENDBRANCH  15  17
ENDBRANCH  12  15
ENDBRANCH   2   9
BRANCH   6  26
HETATM   26  C3  UNL     1      48.180  -0.855  36.573  1.00  0.00     0.167 C
HETATM   27  C4  UNL     1      48.330  -0.599  38.070  1.00  0.00     0.039 C
HETATM   28  C5  UNL     1      49.403  -1.525  38.579  1.00  0.00     0.003 C
HETATM   29  C6  UNL     1      50.718  -1.348  37.901  1.00  0.00     0.000 C
HETATM   30  C7  UNL     1      50.534  -1.554  36.395  1.00  0.00     0.003 C
HETATM   31  C8  UNL     1      49.550  -0.508  35.934  1.00  0.00     0.039 C
ENDBRANCH   6  26
BRANCH   7  32
HETATM   32  C9  UNL     1      45.173   2.168  36.657  1.00  0.00     0.114 C
HETATM   33  C10 UNL     1      45.980   2.150  37.916  1.00  0.00     0.028 C
HETATM   34  C11 UNL     1      45.552   3.051  39.009  1.00  0.00     0.002 C
HETATM   35  C12 UNL     1      44.087   3.383  38.803  1.00  0.00     0.003 C
HETATM   36  C13 UNL     1      44.057   4.237  37.552  1.00  0.00     0.034 C
HETATM   37  C14 UNL     1      44.554   3.498  36.349  1.00  0.00     0.140 C
BRANCH  37  38
HETATM   38  O2  UNL     1      43.496   3.423  35.453  1.00  0.00    -0.394 OA
ATOM     39  H2  UNL     1      42.961   4.208  35.430  1.00  0.00     0.210 HD
ENDBRANCH  37  38
ENDBRANCH   7  32
TORSDOF 9
ENDMDL