MODEL 4
REMARK VINA RESULT: -7.155294987      5.069      7.818
REMARK  10 active torsions:
REMARK  status: ('A' for Active; 'I' for Inactive)
REMARK    1  A    between atoms: C9_9  and  N1_10
REMARK       I    between atoms: N1_10  and  C10_12
REMARK       I    between atoms: C10_12  and  N2_14
REMARK    2  A    between atoms: N2_14  and  N3_16
REMARK    3  A    between atoms: N3_16  and  C11_18
REMARK    4  A    between atoms: C11_18  and  C12_19
REMARK    5  A    between atoms: C12_19  and  C13_20
REMARK    6  A    between atoms: C13_20  and  C14_21
REMARK    7  A    between atoms: C14_21  and  C15_22
REMARK    8  A    between atoms: C15_22  and  C16_23
REMARK    9  A    between atoms: C16_23  and  N4_24
REMARK       I    between atoms: N4_24  and  C17_26
REMARK   10  A    between atoms: N7_31  and  C18_33
ROOT
HETATM    1  N3  UNL     1      37.620  -0.134  31.846  1.00  0.00    -0.285 N
ATOM      2  H3  UNL     1      37.987   0.670  32.358  1.00  0.00     0.188 HD
ENDROOT
BRANCH   1   3
HETATM    3  N2  UNL     1      38.522  -0.904  31.128  1.00  0.00    -0.250 N
HETATM    4  C10 UNL     1      39.900  -0.620  31.098  1.00  0.00     0.335 C
HETATM    5  N1  UNL     1      40.816  -1.420  30.365  1.00  0.00    -0.333 N
HETATM    6  O1  UNL     1      40.348   0.363  31.733  1.00  0.00    -0.246 OA
ATOM      7  H1  UNL     1      40.450  -2.219  29.848  1.00  0.00     0.165 HD
ATOM      8  H2  UNL     1      38.173  -1.706  30.603  1.00  0.00     0.192 HD
BRANCH   5   9
HETATM    9  C9  UNL     1      42.240  -1.163  30.310  1.00  0.00     0.115 C
HETATM   10  C4  UNL     1      42.801  -1.944  29.186  1.00  0.00    -0.053 C
HETATM   11  C3  UNL     1      43.479  -1.341  28.242  1.00  0.00     0.013 C
HETATM   12  C5  UNL     1      42.593  -3.397  29.176  1.00  0.00     0.045 C
HETATM   13  C2  UNL     1      44.088  -2.079  27.097  1.00  0.00     0.241 C
HETATM   14  C1  UNL     1      44.220  -1.198  25.877  1.00  0.00     0.047 C
HETATM   15  N8  UNL     1      43.304  -3.257  26.842  1.00  0.00     0.092 N
HETATM   16  C21 UNL     1      43.318  -4.078  28.040  1.00  0.00     0.281 C
HETATM   17  C22 UNL     1      43.991  -4.040  25.805  1.00  0.00     0.310 C
HETATM   18  C6  UNL     1      42.972  -4.050  30.470  1.00  0.00     0.011 C
HETATM   19  C7  UNL     1      42.561  -3.234  31.675  1.00  0.00     0.003 C
HETATM   20  C8  UNL     1      42.898  -1.771  31.567  1.00  0.00     0.030 C
ENDBRANCH   5   9
ENDBRANCH   1   3
BRANCH   1  21
HETATM   21  C11 UNL     1      36.216  -0.382  31.922  1.00  0.00     0.093 C
HETATM   22  N7  UNL     1      35.449  -0.071  32.863  1.00  0.00    -0.357 N
ATOM     23  H7  UNL     1      34.481  -0.348  32.700  1.00  0.00     0.162 HD
BRANCH  21  24
HETATM   24  C12 UNL     1      35.631  -1.059  30.722  1.00  0.00     0.077 C
BRANCH  24  25
HETATM   25  C13 UNL     1      35.166  -2.491  31.052  1.00  0.00     0.007 C
BRANCH  25  26
HETATM   26  C14 UNL     1      35.285  -3.406  29.901  1.00  0.00     0.002 C
BRANCH  26  27
HETATM   27  C15 UNL     1      36.118  -2.974  28.760  1.00  0.00     0.020 C
BRANCH  27  28
HETATM   28  C16 UNL     1      37.476  -3.548  28.594  1.00  0.00     0.122 C
BRANCH  28  29
HETATM   29  N4  UNL     1      37.730  -4.725  29.360  1.00  0.00    -0.365 N
HETATM   30  C17 UNL     1      38.927  -4.848  30.168  1.00  0.00     0.181 C
HETATM   31  N5  UNL     1      39.871  -5.669  29.848  1.00  0.00    -0.374 N
HETATM   32  N6  UNL     1      39.041  -4.038  31.326  1.00  0.00    -0.064 NA
ATOM     33  H52 UNL     1      39.789  -6.252  29.015  1.00  0.00     0.158 HD
ATOM     34  H51 UNL     1      40.714  -5.755  30.416  1.00  0.00     0.158 HD
ATOM     35  H4  UNL     1      37.059  -5.493  29.339  1.00  0.00     0.162 HD
ENDBRANCH  28  29
ENDBRANCH  27  28
ENDBRANCH  26  27
ENDBRANCH  25  26
ENDBRANCH  24  25
ENDBRANCH  21  24
BRANCH  22  36
HETATM   36  C18 UNL     1      35.638   0.578  34.096  1.00  0.00     0.101 C
HETATM   37  C19 UNL     1      36.686   0.043  35.010  1.00  0.00     0.056 C
HETATM   38  C20 UNL     1      34.326   0.649  34.883  1.00  0.00     0.056 C
HETATM   39 CL1  UNL     1      36.068   2.293  33.772  1.00  0.00    -0.096 Cl
ENDBRANCH  22  36
ENDBRANCH   1  21
TORSDOF 10
ENDMDL