MODEL 2
REMARK VINA RESULT: -7.703928642      4.960     10.072
REMARK  9 active torsions:
REMARK  status: ('A' for Active; 'I' for Inactive)
REMARK    1  A    between atoms: C2_2  and  O1_3
REMARK    2  A    between atoms: C2_2  and  C3_5
REMARK    3  A    between atoms: C3_5  and  C4_6
REMARK    4  A    between atoms: C3_5  and  N2_19
REMARK    5  A    between atoms: C4_6  and  C5_7
REMARK    6  A    between atoms: C7_11  and  C8_12
REMARK    7  A    between atoms: N2_19  and  S1_21
REMARK    8  A    between atoms: S1_21  and  N3_24
REMARK       I    between atoms: N3_24  and  C15_26
REMARK       I    between atoms: C15_26  and  N4_28
REMARK    9  A    between atoms: N4_28  and  C16_30
ROOT
HETATM    1  N2  UNL     1      41.585  -2.135  30.512  1.00  0.00    -0.295 N
ATOM      2  H2  UNL     1      42.229  -1.566  29.962  1.00  0.00     0.174 HD
ENDROOT
BRANCH   1   3
HETATM    3  C3  UNL     1      40.862  -1.663  31.673  1.00  0.00     0.127 C
BRANCH   3   4
HETATM    4  C2  UNL     1      40.215  -0.356  31.368  1.00  0.00     0.137 C
HETATM    5  C1  UNL     1      38.757  -0.256  31.574  1.00  0.00     0.041 C
BRANCH   4   6
HETATM    6  O1  UNL     1      40.516   0.089  30.066  1.00  0.00    -0.394 OA
ATOM      7  H1  UNL     1      39.878  -0.281  29.466  1.00  0.00     0.210 HD
ENDBRANCH   4   6
ENDBRANCH   3   4
BRANCH   3   8
HETATM    8  C4  UNL     1      41.623  -1.770  32.936  1.00  0.00     0.068 C
BRANCH   8   9
HETATM    9  C5  UNL     1      42.662  -0.788  33.197  1.00  0.00    -0.039 A
HETATM   10  C6  UNL     1      43.730  -0.449  32.405  1.00  0.00     0.095 A
HETATM   11  N1  UNL     1      44.439   0.495  33.038  1.00  0.00    -0.368 N
HETATM   12  C7  UNL     1      43.859   0.779  34.225  1.00  0.00     0.013 A
ATOM     13  H1  UNL     1      45.287   0.933  32.680  1.00  0.00     0.165 HD
HETATM   14  C14 UNL     1      42.760  -0.015  34.323  1.00  0.00     0.034 A
BRANCH  12  15
HETATM   15  C8  UNL     1      44.302   1.755  35.254  1.00  0.00     0.035 C
HETATM   16  C9  UNL     1      43.231   2.778  35.580  1.00  0.00     0.011 C
HETATM   17  C10 UNL     1      43.915   3.875  36.367  1.00  0.00     0.001 C
HETATM   18  C11 UNL     1      44.657   3.393  37.564  1.00  0.00     0.000 C
HETATM   19  C12 UNL     1      45.383   2.104  37.402  1.00  0.00     0.001 C
HETATM   20  C13 UNL     1      44.666   1.086  36.562  1.00  0.00     0.011 C
ENDBRANCH  12  15
ENDBRANCH   8   9
ENDBRANCH   3   8
ENDBRANCH   1   3
BRANCH   1  21
HETATM   21  S1  UNL     1      41.218  -3.788  30.180  1.00  0.00     0.323 S
HETATM   22  O2  UNL     1      39.720  -3.944  29.957  1.00  0.00    -0.182 OA
HETATM   23  O3  UNL     1      41.543  -4.625  31.388  1.00  0.00    -0.182 OA
BRANCH  21  24
HETATM   24  N3  UNL     1      42.003  -4.356  28.768  1.00  0.00    -0.219 N
HETATM   25  C15 UNL     1      43.274  -3.881  28.415  1.00  0.00     0.336 C
HETATM   26  O4  UNL     1      43.867  -3.028  29.125  1.00  0.00    -0.246 OA
HETATM   27  N4  UNL     1      43.894  -4.375  27.237  1.00  0.00    -0.293 N
ATOM     28  H4  UNL     1      44.232  -5.337  27.219  1.00  0.00     0.172 HD
ATOM     29  H3  UNL     1      41.541  -5.047  28.178  1.00  0.00     0.185 HD
BRANCH  27  30
HETATM   30  C16 UNL     1      44.044  -3.627  26.179  1.00  0.00     0.126 A
HETATM   31  C17 UNL     1      43.817  -2.289  26.019  1.00  0.00     0.093 A
HETATM   32  C18 UNL     1      44.119  -1.946  24.716  1.00  0.00     0.121 A
HETATM   33 CL1  UNL     1      43.976  -0.331  24.064  1.00  0.00    -0.063 Cl
HETATM   34  N5  UNL     1      44.521  -3.073  24.118  1.00  0.00    -0.288 N
HETATM   35  N6  UNL     1      44.475  -4.074  24.991  1.00  0.00    -0.284 N
ATOM     36  H5  UNL     1      44.817  -3.152  23.145  1.00  0.00     0.188 HD
ATOM     37  H6  UNL     1      44.730  -5.040  24.788  1.00  0.00     0.188 HD
ENDBRANCH  27  30
ENDBRANCH  21  24
ENDBRANCH   1  21
TORSDOF 9
ENDMDL