MODEL 5
REMARK VINA RESULT: -7.430266244      2.099      2.503
REMARK  10 active torsions:
REMARK  status: ('A' for Active; 'I' for Inactive)
REMARK    1  A    between atoms: N3_9  and  C5_11
REMARK    2  A    between atoms: C7_13  and  N4_14
REMARK    3  A    between atoms: N4_14  and  C8_16
REMARK    4  A    between atoms: C11_19  and  N5_20
REMARK    5  A    between atoms: C14_28  and  N7_29
REMARK    6  A    between atoms: N7_29  and  C15_31
REMARK    7  A    between atoms: C15_31  and  C16_32
REMARK    8  A    between atoms: C16_32  and  C17_33
REMARK    9  A    between atoms: C17_33  and  C18_34
REMARK   10  A    between atoms: C18_34  and  C19_35
ROOT
HETATM    1  C5  UNL     1      42.475  -0.973  32.559  1.00  0.00     0.127 A
HETATM    2  C6  UNL     1      43.365  -1.232  31.535  1.00  0.00     0.097 A
HETATM    3  C7  UNL     1      43.013  -1.171  30.208  1.00  0.00     0.120 A
HETATM    4  N6  UNL     1      41.722  -0.838  29.948  1.00  0.00    -0.177 N
ATOM      5  H6  UNL     1      41.419  -0.782  28.976  1.00  0.00     0.185 HD
HETATM    6  C14 UNL     1      40.834  -0.581  30.907  1.00  0.00     0.681 A
HETATM    7  N8  UNL     1      41.220  -0.652  32.210  1.00  0.00    -0.176 N
ATOM      8  H8  UNL     1      40.537  -0.456  32.942  1.00  0.00     0.186 HD
ENDROOT
BRANCH   1   9
HETATM    9  N3  UNL     1      42.908  -1.048  33.895  1.00  0.00    -0.312 N
HETATM   10  C4  UNL     1      43.384  -0.058  34.565  1.00  0.00     0.201 A
HETATM   11  N2  UNL     1      43.591   1.277  34.188  1.00  0.00    -0.269 N
HETATM   12  N9  UNL     1      43.812  -0.187  35.916  1.00  0.00    -0.312 N
HETATM   13  N1  UNL     1      44.136   1.976  35.268  1.00  0.00    -0.283 N
ATOM     14  H2  UNL     1      43.379   1.675  33.272  1.00  0.00     0.190 HD
HETATM   15  C3  UNL     1      44.294   1.088  36.383  1.00  0.00     0.118 A
ATOM     16  H1  UNL     1      44.384   2.966  35.264  1.00  0.00     0.188 HD
HETATM   17  C2  UNL     1      44.770   1.356  37.579  1.00  0.00     0.019 C
HETATM   18  C1  UNL     1      45.228   2.712  37.919  1.00  0.00     0.040 C
ATOM     19  H9  UNL     1      43.782  -1.046  36.467  1.00  0.00     0.170 HD
ATOM     20  H3  UNL     1      42.840  -1.950  34.366  1.00  0.00     0.170 HD
ENDBRANCH   1   9
BRANCH   3  21
HETATM   21  N4  UNL     1      43.766  -1.395  29.209  1.00  0.00    -0.371 N
ATOM     22  H4  UNL     1      44.767  -1.317  29.383  1.00  0.00     0.161 HD
BRANCH  21  23
HETATM   23  C8  UNL     1      43.393  -1.739  27.877  1.00  0.00     0.083 C
HETATM   24  C9  UNL     1      44.542  -1.316  26.973  1.00  0.00     0.027 C
HETATM   25  C10 UNL     1      44.227  -1.532  25.513  1.00  0.00     0.035 C
HETATM   26  C11 UNL     1      43.821  -2.952  25.293  1.00  0.00     0.183 C
HETATM   27  C12 UNL     1      43.945  -3.783  26.536  1.00  0.00     0.035 C
HETATM   28  C13 UNL     1      43.175  -3.230  27.702  1.00  0.00     0.027 C
BRANCH  26  29
HETATM   29  N5  UNL     1      44.712  -3.550  24.294  1.00  0.00    -0.075 N
ATOM     30  H53 UNL     1      44.665  -3.071  23.395  1.00  0.00     0.274 HD
ATOM     31  H52 UNL     1      45.697  -3.377  24.496  1.00  0.00     0.274 HD
ATOM     32  H51 UNL     1      44.500  -4.544  24.217  1.00  0.00     0.274 HD
ENDBRANCH  26  29
ENDBRANCH  21  23
ENDBRANCH   3  21
BRANCH   6  33
HETATM   33  N7  UNL     1      39.600  -0.260  30.706  1.00  0.00    -0.226 N
ATOM     34  H7  UNL     1      39.411   0.645  30.273  1.00  0.00     0.177 HD
BRANCH  33  35
HETATM   35  C15 UNL     1      38.471  -1.084  31.047  1.00  0.00     0.138 C
BRANCH  35  36
HETATM   36  C16 UNL     1      38.305  -2.206  30.058  1.00  0.00     0.020 C
BRANCH  36  37
HETATM   37  C17 UNL     1      38.540  -3.513  30.778  1.00  0.00     0.002 C
BRANCH  37  38
HETATM   38  C18 UNL     1      39.946  -3.996  30.489  1.00  0.00     0.011 C
BRANCH  38  39
HETATM   39  C19 UNL     1      40.710  -4.322  31.743  1.00  0.00     0.085 C
HETATM   40 BR1  UNL     1      42.486  -4.884  31.204  1.00  0.00    -0.097 Br
ENDBRANCH  38  39
ENDBRANCH  37  38
ENDBRANCH  36  37
ENDBRANCH  35  36
ENDBRANCH  33  35
ENDBRANCH   6  33
TORSDOF 10
ENDMDL