MODEL 5
REMARK VINA RESULT: -6.940279105      5.533      9.639
REMARK  9 active torsions:
REMARK  status: ('A' for Active; 'I' for Inactive)
REMARK    1  A    between atoms: C2_2  and  N1_3
REMARK    2  A    between atoms: C2_2  and  C13_19
REMARK    3  A    between atoms: N1_3  and  C3_5
REMARK    4  A    between atoms: C3_5  and  C4_9
REMARK       I    between atoms: C13_19  and  N3_21
REMARK    5  A    between atoms: N3_21  and  C14_23
REMARK    6  A    between atoms: C14_23  and  C15_24
REMARK    7  A    between atoms: C14_23  and  C19_32
REMARK    8  A    between atoms: C15_24  and  C16_25
REMARK       I    between atoms: C19_32  and  N6_34
REMARK    9  A    between atoms: N6_34  and  C20_36
ROOT
HETATM    1  C13 UNL     1      42.982  -5.720  30.252  1.00  0.00     0.240 C
HETATM    2  O1  UNL     1      42.114  -6.342  29.602  1.00  0.00    -0.271 OA
HETATM    3  N3  UNL     1      43.408  -4.440  29.837  1.00  0.00    -0.346 N
ATOM      4  H3  UNL     1      44.122  -3.933  30.361  1.00  0.00     0.163 HD
ENDROOT
BRANCH   3   5
HETATM    5  C14 UNL     1      42.798  -3.847  28.625  1.00  0.00     0.182 C
BRANCH   5   6
HETATM    6  C15 UNL     1      43.856  -2.949  28.010  1.00  0.00     0.093 C
BRANCH   6   7
HETATM    7  C16 UNL     1      43.930  -2.996  26.561  1.00  0.00     0.028 A
HETATM    8  C17 UNL     1      44.210  -1.947  25.701  1.00  0.00     0.114 A
HETATM    9  N4  UNL     1      44.160  -2.459  24.450  1.00  0.00    -0.360 N
HETATM   10  C18 UNL     1      43.864  -3.772  24.493  1.00  0.00     0.180 A
ATOM     11  H4  UNL     1      44.322  -1.927  23.596  1.00  0.00     0.166 HD
HETATM   12  N5  UNL     1      43.729  -4.079  25.784  1.00  0.00    -0.354 N
ATOM     13  H5  UNL     1      43.503  -5.009  26.136  1.00  0.00     0.166 HD
ENDBRANCH   6   7
ENDBRANCH   5   6
BRANCH   5  14
HETATM   14  C19 UNL     1      41.616  -3.089  29.074  1.00  0.00     0.241 C
HETATM   15  O2  UNL     1      41.747  -1.852  29.292  1.00  0.00    -0.271 OA
HETATM   16  N6  UNL     1      40.334  -3.638  29.289  1.00  0.00    -0.353 N
ATOM     17  H6  UNL     1      40.190  -4.636  29.134  1.00  0.00     0.163 HD
BRANCH  16  18
HETATM   18  C20 UNL     1      39.214  -2.826  29.722  1.00  0.00     0.111 C
HETATM   19  C21 UNL     1      39.036  -3.022  31.234  1.00  0.00     0.054 C
HETATM   20  C22 UNL     1      37.592  -2.674  31.421  1.00  0.00     0.234 C
HETATM   21  N7  UNL     1      36.946  -2.741  30.140  1.00  0.00    -0.073 N
HETATM   22  C23 UNL     1      37.896  -3.337  29.219  1.00  0.00     0.257 C
ATOM     23  H72 UNL     1      36.052  -3.230  30.167  1.00  0.00     0.277 HD
ATOM     24  H71 UNL     1      36.591  -1.839  29.822  1.00  0.00     0.277 HD
ENDBRANCH  16  18
ENDBRANCH   5  14
ENDBRANCH   3   5
BRANCH   1  25
HETATM   25  C2  UNL     1      43.542  -6.383  31.477  1.00  0.00     0.171 C
HETATM   26  C1  UNL     1      42.318  -7.010  32.208  1.00  0.00     0.042 C
BRANCH  25  27
HETATM   27  N1  UNL     1      44.503  -7.401  31.203  1.00  0.00    -0.367 N
ATOM     28  H1  UNL     1      44.362  -7.963  30.364  1.00  0.00     0.161 HD
BRANCH  27  29
HETATM   29  C3  UNL     1      45.625  -7.692  31.989  1.00  0.00     0.082 C
HETATM   30  N2  UNL     1      46.513  -6.779  32.175  1.00  0.00    -0.388 N
ATOM     31  H22 UNL     1      46.365  -5.859  31.761  1.00  0.00     0.157 HD
ATOM     32  H21 UNL     1      47.330  -6.991  32.748  1.00  0.00     0.157 HD
BRANCH  29  33
HETATM   33  C4  UNL     1      45.844  -9.060  32.605  1.00  0.00     0.109 C
HETATM   34  C5  UNL     1      45.947 -10.112  31.589  1.00  0.00    -0.012 C
HETATM   35  C6  UNL     1      44.834 -10.943  31.176  1.00  0.00    -0.007 C
HETATM   36  C7  UNL     1      43.946 -11.691  32.033  1.00  0.00    -0.027 C
HETATM   37  C8  UNL     1      44.295 -12.201  33.348  1.00  0.00     0.027 C
HETATM   38  C9  UNL     1      45.708 -12.360  33.741  1.00  0.00     0.004 C
HETATM   39  C10 UNL     1      46.329 -11.250  34.493  1.00  0.00     0.003 C
HETATM   40  C11 UNL     1      45.477 -10.091  34.869  1.00  0.00     0.038 C
HETATM   41  C12 UNL     1      44.993  -9.188  33.784  1.00  0.00     0.185 C
HETATM   42  F1  UNL     1      44.934  -7.895  34.372  1.00  0.00    -0.248 F
ENDBRANCH  29  33
ENDBRANCH  27  29
ENDBRANCH  25  27
ENDBRANCH   1  25
TORSDOF 9
ENDMDL