MODEL 1
REMARK VINA RESULT: -6.740364356      0.000      0.000
REMARK  10 active torsions:
REMARK  status: ('A' for Active; 'I' for Inactive)
REMARK    1  A    between atoms: C2_2  and  O1_4
REMARK    2  A    between atoms: O1_4  and  C4_5
REMARK    3  A    between atoms: C4_5  and  N2_9
REMARK    4  A    between atoms: N2_9  and  C5_11
REMARK    5  A    between atoms: C5_11  and  C6_12
REMARK    6  A    between atoms: C5_11  and  C10_22
REMARK    7  A    between atoms: C6_12  and  C7_13
REMARK    8  A    between atoms: C7_13  and  C8_14
REMARK    9  A    between atoms: C8_14  and  N3_15
REMARK       I    between atoms: N3_15  and  C9_17
REMARK       I    between atoms: C10_22  and  N6_24
REMARK   10  A    between atoms: N6_24  and  C11_26
ROOT
HETATM    1  C5  UNL     1      42.810  -2.121  28.989  1.00  0.00     0.177 C
ENDROOT
BRANCH   1   2
HETATM    2  N2  UNL     1      43.270  -3.395  29.468  1.00  0.00    -0.343 N
ATOM      3  H2  UNL     1      44.260  -3.523  29.677  1.00  0.00     0.164 HD
BRANCH   2   4
HETATM    4  C4  UNL     1      42.356  -4.499  29.659  1.00  0.00     0.213 C
HETATM    5  N1  UNL     1      42.079  -5.288  28.698  1.00  0.00    -0.365 N
ATOM      6  H12 UNL     1      41.435  -6.067  28.833  1.00  0.00     0.159 HD
ATOM      7  H11 UNL     1      42.541  -5.083  27.812  1.00  0.00     0.159 HD
BRANCH   4   8
HETATM    8  O1  UNL     1      41.730  -4.777  30.860  1.00  0.00    -0.318 OA
BRANCH   8   9
HETATM    9  C2  UNL     1      42.349  -5.136  32.056  1.00  0.00     0.123 C
HETATM   10  C1  UNL     1      43.530  -6.039  31.960  1.00  0.00     0.040 C
HETATM   11  C3  UNL     1      42.593  -3.980  33.012  1.00  0.00     0.040 C
ENDBRANCH   8   9
ENDBRANCH   4   8
ENDBRANCH   2   4
ENDBRANCH   1   2
BRANCH   1  12
HETATM   12  C6  UNL     1      43.998  -1.235  28.597  1.00  0.00     0.036 C
BRANCH  12  13
HETATM   13  C7  UNL     1      43.943  -0.727  27.200  1.00  0.00     0.022 C
BRANCH  13  14
HETATM   14  C8  UNL     1      44.886  -1.604  26.383  1.00  0.00     0.122 C
BRANCH  14  15
HETATM   15  N3  UNL     1      44.278  -2.051  25.142  1.00  0.00    -0.365 N
HETATM   16  C9  UNL     1      43.911  -3.413  25.082  1.00  0.00     0.181 C
HETATM   17  N4  UNL     1      44.054  -4.099  24.004  1.00  0.00    -0.374 N
HETATM   18  N5  UNL     1      43.377  -4.046  26.226  1.00  0.00    -0.064 NA
ATOM     19  H42 UNL     1      44.440  -3.641  23.178  1.00  0.00     0.158 HD
ATOM     20  H41 UNL     1      43.789  -5.083  23.962  1.00  0.00     0.158 HD
ATOM     21  H3  UNL     1      44.124  -1.417  24.358  1.00  0.00     0.162 HD
ENDBRANCH  14  15
ENDBRANCH  13  14
ENDBRANCH  12  13
ENDBRANCH   1  12
BRANCH   1  22
HETATM   22  C10 UNL     1      42.144  -1.319  30.087  1.00  0.00     0.240 C
HETATM   23  O2  UNL     1      42.680  -0.280  30.518  1.00  0.00    -0.271 OA
HETATM   24  N6  UNL     1      40.904  -1.735  30.642  1.00  0.00    -0.354 N
ATOM     25  H6  UNL     1      40.461  -2.588  30.299  1.00  0.00     0.162 HD
BRANCH  24  26
HETATM   26  C11 UNL     1      40.266  -0.978  31.675  1.00  0.00     0.092 C
HETATM   27  C12 UNL     1      39.099  -0.226  31.087  1.00  0.00     0.010 C
HETATM   28  C13 UNL     1      38.581   0.730  32.117  1.00  0.00     0.011 C
HETATM   29  C20 UNL     1      38.015  -1.221  30.723  1.00  0.00     0.027 C
HETATM   30  C14 UNL     1      38.136  -0.053  33.311  1.00  0.00    -0.012 C
HETATM   31  C15 UNL     1      39.283  -0.853  33.911  1.00  0.00     0.011 C
HETATM   32  C19 UNL     1      37.044  -1.033  32.938  1.00  0.00     0.025 C
HETATM   33  C16 UNL     1      39.829  -1.823  32.860  1.00  0.00     0.010 C
HETATM   34  C17 UNL     1      38.732  -2.776  32.516  1.00  0.00     0.027 C
HETATM   35  C18 UNL     1      37.574  -2.017  31.926  1.00  0.00     0.019 C
HETATM   36 BR1  UNL     1      36.233  -3.279  31.386  1.00  0.00    -0.086 Br
ENDBRANCH  24  26
ENDBRANCH   1  22
TORSDOF 10
ENDMDL