MODEL 5
REMARK VINA RESULT: -6.794711879      3.624      8.880
REMARK  10 active torsions:
REMARK  status: ('A' for Active; 'I' for Inactive)
REMARK    1  A    between atoms: C5_5  and  N1_6
REMARK    2  A    between atoms: N1_6  and  C6_8
REMARK    3  A    between atoms: C6_8  and  N2_10
REMARK    4  A    between atoms: N2_10  and  C7_12
REMARK    5  A    between atoms: C7_12  and  C8_13
REMARK       I    between atoms: C8_13  and  N3_15
REMARK    6  A    between atoms: N3_15  and  C9_17
REMARK       I    between atoms: N4_21  and  C13_22
REMARK       I    between atoms: C13_22  and  N6_26
REMARK    7  A    between atoms: N6_26  and  C14_28
REMARK    8  A    between atoms: C14_28  and  C15_29
REMARK    9  A    between atoms: C15_29  and  C16_30
REMARK   10  A    between atoms: C18_32  and  O2_33
ROOT
HETATM    1  C1  UNL     1      39.305  -3.473  33.591  1.00  0.00     0.018 C
HETATM    2  C2  UNL     1      40.204  -3.912  32.919  1.00  0.00    -0.076 C
HETATM    3  C3  UNL     1      41.281  -4.411  32.120  1.00  0.00     0.040 A
HETATM    4  C4  UNL     1      41.310  -4.312  30.730  1.00  0.00     0.052 A
HETATM    5  C5  UNL     1      42.327  -4.778  29.946  1.00  0.00     0.035 A
HETATM    6  C19 UNL     1      43.385  -5.388  30.619  1.00  0.00     0.031 A
HETATM    7  C20 UNL     1      43.403  -5.510  31.967  1.00  0.00     0.027 A
HETATM    8  C21 UNL     1      42.349  -5.020  32.729  1.00  0.00     0.052 A
HETATM    9 CL1  UNL     1      42.452  -5.219  34.469  1.00  0.00    -0.083 Cl
ENDROOT
BRANCH   5  10
HETATM   10  N1  UNL     1      42.379  -4.653  28.542  1.00  0.00    -0.333 N
ATOM     11  H1  UNL     1      41.994  -5.411  27.979  1.00  0.00     0.168 HD
BRANCH  10  12
HETATM   12  C6  UNL     1      42.928  -3.549  27.874  1.00  0.00     0.172 C
HETATM   13  S1  UNL     1      43.712  -3.707  26.473  1.00  0.00    -0.041 SA
BRANCH  12  14
HETATM   14  N2  UNL     1      42.770  -2.225  28.439  1.00  0.00    -0.358 N
ATOM     15  H2  UNL     1      41.982  -1.644  28.149  1.00  0.00     0.162 HD
BRANCH  14  16
HETATM   16  C7  UNL     1      43.701  -1.725  29.394  1.00  0.00     0.224 C
BRANCH  16  17
HETATM   17  C8  UNL     1      43.100  -0.993  30.531  1.00  0.00     0.235 C
HETATM   18  O1  UNL     1      42.090  -0.280  30.317  1.00  0.00    -0.272 OA
HETATM   19  N3  UNL     1      43.618  -1.067  31.839  1.00  0.00    -0.351 N
ATOM     20  H3  UNL     1      44.440  -1.647  32.003  1.00  0.00     0.163 HD
BRANCH  19  21
HETATM   21  C9  UNL     1      43.040  -0.358  32.965  1.00  0.00     0.134 C
HETATM   22  C10 UNL     1      42.699  -1.289  34.097  1.00  0.00     0.031 C
HETATM   23  C11 UNL     1      41.926  -0.453  35.124  1.00  0.00     0.023 C
HETATM   24  C12 UNL     1      42.811   0.627  35.694  1.00  0.00     0.144 C
HETATM   25  N4  UNL     1      43.994   0.784  34.859  1.00  0.00    -0.190 N
HETATM   26  C13 UNL     1      45.241   0.931  35.507  1.00  0.00     0.671 C
HETATM   27  C18 UNL     1      43.849   0.791  33.441  1.00  0.00     0.260 C
HETATM   28  N5  UNL     1      45.965  -0.125  35.724  1.00  0.00    -0.235 N
HETATM   29  N6  UNL     1      45.758   2.172  35.941  1.00  0.00    -0.227 N
ATOM     30  H52 UNL     1      45.591  -1.021  35.411  1.00  0.00     0.174 HD
ATOM     31  H51 UNL     1      46.865  -0.019  36.193  1.00  0.00     0.174 HD
ATOM     32  H6  UNL     1      46.712   2.440  35.704  1.00  0.00     0.177 HD
BRANCH  29  33
HETATM   33  C14 UNL     1      44.933   3.052  36.718  1.00  0.00     0.138 C
BRANCH  33  34
HETATM   34  C15 UNL     1      45.083   2.796  38.203  1.00  0.00     0.020 C
BRANCH  34  35
HETATM   35  C16 UNL     1      44.212   3.753  38.978  1.00  0.00    -0.003 C
HETATM   36  C17 UNL     1      43.787   4.848  38.022  1.00  0.00     0.005 C
ENDBRANCH  34  35
ENDBRANCH  33  34
ENDBRANCH  29  33
BRANCH  27  37
HETATM   37  O2  UNL     1      45.131   0.828  32.886  1.00  0.00    -0.374 OA
ATOM     38  H2  UNL     1      45.629   0.034  33.044  1.00  0.00     0.212 HD
ENDBRANCH  27  37
ENDBRANCH  19  21
ENDBRANCH  16  17
ENDBRANCH  14  16
ENDBRANCH  12  14
ENDBRANCH  10  12
ENDBRANCH   5  10
TORSDOF 10
ENDMDL