MODEL 4
REMARK VINA RESULT: -6.169339875      6.370      8.731
REMARK  10 active torsions:
REMARK  status: ('A' for Active; 'I' for Inactive)
REMARK    1  A    between atoms: C4_9  and  C5_10
REMARK    2  A    between atoms: C5_10  and  C6_11
REMARK    3  A    between atoms: C7_12  and  N3_13
REMARK    4  A    between atoms: N3_13  and  C8_14
REMARK    5  A    between atoms: C10_16  and  C11_17
REMARK    6  A    between atoms: C16_29  and  N7_30
REMARK    7  A    between atoms: N7_30  and  C17_32
REMARK    8  A    between atoms: C17_32  and  C18_33
REMARK    9  A    between atoms: C18_33  and  C19_34
REMARK   10  A    between atoms: C19_34  and  O2_35
ROOT
HETATM    1  C6  UNL     1      39.377  -1.342  30.680  1.00  0.00     0.033 A
HETATM    2  C7  UNL     1      37.970  -1.355  30.870  1.00  0.00     0.138 A
HETATM    3  C14 UNL     1      37.229  -2.324  30.166  1.00  0.00     0.067 A
HETATM    4 BR1  UNL     1      35.335  -2.433  30.316  1.00  0.00    -0.046 Br
HETATM    5  C15 UNL     1      37.870  -3.205  29.337  1.00  0.00     0.112 A
HETATM    6  N6  UNL     1      39.193  -3.143  29.193  1.00  0.00    -0.350 N
ATOM      7  H6  UNL     1      39.644  -3.809  28.566  1.00  0.00     0.166 HD
HETATM    8  C16 UNL     1      39.977  -2.226  29.847  1.00  0.00     0.114 A
ENDROOT
BRANCH   2   9
HETATM    9  N3  UNL     1      37.337  -0.462  31.619  1.00  0.00    -0.384 NA
BRANCH   9  10
HETATM   10  C8  UNL     1      36.779   0.317  32.298  1.00  0.00     0.195 A
HETATM   11  C9  UNL     1      37.371   1.317  33.078  1.00  0.00     0.092 A
HETATM   12  C10 UNL     1      36.397   2.003  33.745  1.00  0.00     0.034 A
HETATM   13  N4  UNL     1      35.262   1.432  33.376  1.00  0.00    -0.302 N
HETATM   14  N5  UNL     1      35.428   0.447  32.537  1.00  0.00    -0.274 N
ATOM     15  H4  UNL     1      34.348   1.732  33.715  1.00  0.00     0.186 HD
ATOM     16  H5  UNL     1      34.688  -0.126  32.130  1.00  0.00     0.189 HD
BRANCH  12  17
HETATM   17  C11 UNL     1      36.695   3.136  34.671  1.00  0.00     0.037 A
HETATM   18  C12 UNL     1      37.890   3.130  35.514  1.00  0.00     0.011 A
HETATM   19  C13 UNL     1      36.570   2.760  36.157  1.00  0.00     0.011 A
ENDBRANCH  12  17
ENDBRANCH   9  10
ENDBRANCH   2   9
BRANCH   1  20
HETATM   20  C5  UNL     1      40.073  -0.315  31.451  1.00  0.00     0.092 C
BRANCH  20  21
HETATM   21  C4  UNL     1      40.994  -0.683  32.487  1.00  0.00     0.039 A
HETATM   22  C2  UNL     1      40.724  -1.163  33.776  1.00  0.00     0.034 A
HETATM   23  C1  UNL     1      39.404  -1.392  34.395  1.00  0.00     0.070 C
HETATM   24  N1  UNL     1      41.904  -1.380  34.423  1.00  0.00    -0.302 N
HETATM   25  N2  UNL     1      42.886  -1.045  33.573  1.00  0.00    -0.266 N
ATOM     26  H1  UNL     1      42.018  -1.731  35.375  1.00  0.00     0.186 HD
HETATM   27  C3  UNL     1      42.359  -0.634  32.428  1.00  0.00     0.268 A
ATOM     28  H2  UNL     1      43.884  -1.098  33.776  1.00  0.00     0.190 HD
HETATM   29  O1  UNL     1      43.075  -0.252  31.431  1.00  0.00    -0.266 OA
ENDBRANCH  20  21
ENDBRANCH   1  20
BRANCH   8  30
HETATM   30  N7  UNL     1      41.238  -2.197  29.595  1.00  0.00    -0.355 N
ATOM     31  H7  UNL     1      41.772  -1.446  30.033  1.00  0.00     0.166 HD
BRANCH  30  32
HETATM   32  C17 UNL     1      41.955  -3.084  28.784  1.00  0.00     0.064 C
BRANCH  32  33
HETATM   33  C18 UNL     1      43.453  -2.925  28.783  1.00  0.00     0.070 C
BRANCH  33  34
HETATM   34  C19 UNL     1      43.830  -1.748  27.899  1.00  0.00     0.169 C
BRANCH  34  35
HETATM   35  O2  UNL     1      43.482  -0.563  28.564  1.00  0.00    -0.401 OA
ATOM     36  H2  UNL     1      43.929  -0.544  29.402  1.00  0.00     0.209 HD
ENDBRANCH  34  35
ENDBRANCH  33  34
ENDBRANCH  32  33
ENDBRANCH  30  32
ENDBRANCH   8  30
TORSDOF 10
ENDMDL