MODEL 5
REMARK VINA RESULT: -6.597778373      3.649      9.520
REMARK  12 active torsions:
REMARK  status: ('A' for Active; 'I' for Inactive)
REMARK    1  A    between atoms: C7_8  and  C8_9
REMARK       I    between atoms: C8_9  and  N1_11
REMARK    2  A    between atoms: N1_11  and  N2_13
REMARK    3  A    between atoms: N2_13  and  C9_15
REMARK    4  A    between atoms: C9_15  and  N3_17
REMARK    5  A    between atoms: N3_17  and  C10_19
REMARK    6  A    between atoms: C10_19  and  C11_20
REMARK    7  A    between atoms: C11_20  and  C12_21
REMARK    8  A    between atoms: C12_21  and  C13_22
REMARK    9  A    between atoms: C13_22  and  N4_23
REMARK   10  A    between atoms: N4_23  and  C14_25
REMARK   11  A    between atoms: C14_25  and  N5_27
REMARK   12  A    between atoms: N5_27  and  C15_29
ROOT
HETATM    1  N3  UNL     1      42.217  -2.007  33.126  1.00  0.00    -0.366 N
ATOM      2  H3  UNL     1      42.833  -2.767  32.836  1.00  0.00     0.161 HD
ENDROOT
BRANCH   1   3
HETATM    3  C9  UNL     1      41.215  -1.611  32.254  1.00  0.00     0.186 C
HETATM    4  S1  UNL     1      39.758  -2.439  32.289  1.00  0.00    -0.040 SA
BRANCH   3   5
HETATM    5  N2  UNL     1      41.305  -0.558  31.325  1.00  0.00    -0.274 N
ATOM      6  H2  UNL     1      41.166   0.414  31.604  1.00  0.00     0.189 HD
BRANCH   5   7
HETATM    7  N1  UNL     1      41.604  -0.919  29.960  1.00  0.00    -0.264 N
HETATM    8  C8  UNL     1      42.955  -1.229  29.665  1.00  0.00     0.270 C
HETATM    9  O1  UNL     1      43.856  -1.114  30.530  1.00  0.00    -0.266 OA
ATOM     10  H1  UNL     1      40.879  -0.949  29.243  1.00  0.00     0.190 HD
BRANCH   8  11
HETATM   11  C7  UNL     1      43.329  -1.711  28.346  1.00  0.00     0.039 A
HETATM   12  C2  UNL     1      42.978  -3.057  28.123  1.00  0.00    -0.045 A
HETATM   13  C1  UNL     1      42.333  -3.871  29.183  1.00  0.00     0.049 C
HETATM   14  C3  UNL     1      43.285  -3.589  26.892  1.00  0.00     0.031 A
HETATM   15  C4  UNL     1      43.911  -2.823  25.935  1.00  0.00     0.034 A
HETATM   16 CL1  UNL     1      44.268  -3.596  24.382  1.00  0.00    -0.084 Cl
HETATM   17  C5  UNL     1      44.247  -1.514  26.161  1.00  0.00     0.025 A
HETATM   18  C6  UNL     1      43.943  -0.946  27.406  1.00  0.00     0.019 A
ENDBRANCH   8  11
ENDBRANCH   5   7
ENDBRANCH   3   5
ENDBRANCH   1   3
BRANCH   1  19
HETATM   19  C10 UNL     1      42.445  -1.403  34.433  1.00  0.00     0.122 C
BRANCH  19  20
HETATM   20  C11 UNL     1      43.404  -0.263  34.143  1.00  0.00     0.021 C
BRANCH  20  21
HETATM   21  C12 UNL     1      44.304   0.083  35.268  1.00  0.00     0.021 C
BRANCH  21  22
HETATM   22  C13 UNL     1      45.533   0.881  34.796  1.00  0.00     0.122 C
BRANCH  22  23
HETATM   23  N4  UNL     1      46.110   1.462  36.027  1.00  0.00    -0.367 N
ATOM     24  H4  UNL     1      46.141   2.476  36.137  1.00  0.00     0.161 HD
BRANCH  23  25
HETATM   25  C14 UNL     1      46.625   0.624  37.069  1.00  0.00     0.167 C
HETATM   26  S2  UNL     1      46.475   1.162  38.591  1.00  0.00    -0.041 SA
BRANCH  25  27
HETATM   27  N5  UNL     1      47.249  -0.599  36.802  1.00  0.00    -0.363 N
ATOM     28  H5  UNL     1      46.680  -1.404  37.064  1.00  0.00     0.162 HD
BRANCH  27  29
HETATM   29  C15 UNL     1      48.483  -0.956  36.256  1.00  0.00     0.087 C
HETATM   30  C16 UNL     1      49.417   0.102  35.805  1.00  0.00     0.052 C
HETATM   31  C17 UNL     1      50.822  -0.499  35.583  1.00  0.00     0.234 C
HETATM   32  N6  UNL     1      51.389  -0.879  36.858  1.00  0.00    -0.075 N
HETATM   33  C18 UNL     1      50.350  -1.102  37.856  1.00  0.00     0.234 C
ATOM     34  H62 UNL     1      52.002  -1.690  36.768  1.00  0.00     0.277 HD
ATOM     35  H61 UNL     1      52.076  -0.197  37.180  1.00  0.00     0.277 HD
HETATM   36  C19 UNL     1      49.182  -1.873  37.283  1.00  0.00     0.052 C
ENDBRANCH  27  29
ENDBRANCH  25  27
ENDBRANCH  23  25
ENDBRANCH  22  23
ENDBRANCH  21  22
ENDBRANCH  20  21
ENDBRANCH  19  20
ENDBRANCH   1  19
TORSDOF 12
ENDMDL