MODEL 2
REMARK VINA RESULT: -7.618766041      2.686     10.476
REMARK  8 active torsions:
REMARK  status: ('A' for Active; 'I' for Inactive)
REMARK    1  A    between atoms: C2_2  and  N1_4
REMARK    2  A    between atoms: N1_4  and  C5_6
REMARK    3  A    between atoms: C5_6  and  O1_7
REMARK    4  A    between atoms: C5_6  and  C6_9
REMARK    5  A    between atoms: C7_12  and  C8_13
REMARK       I    between atoms: N3_16  and  C11_17
REMARK       I    between atoms: C11_17  and  N4_19
REMARK    6  A    between atoms: N4_19  and  C12_21
REMARK    7  A    between atoms: C12_21  and  C13_22
REMARK    8  A    between atoms: C13_22  and  N5_23
REMARK       I    between atoms: N5_23  and  C14_25
ROOT
HETATM    1  C6  UNL     1      42.245  -2.066  30.346  1.00  0.00     0.065 A
HETATM    2  N2  UNL     1      42.396  -0.907  30.983  1.00  0.00    -0.355 N
ATOM      3  H2  UNL     1      42.414   0.014  30.545  1.00  0.00     0.166 HD
HETATM    4  C7  UNL     1      42.523  -1.157  32.329  1.00  0.00     0.042 A
HETATM    5  C17 UNL     1      42.444  -2.502  32.496  1.00  0.00    -0.021 A
HETATM    6  C18 UNL     1      42.271  -3.118  31.271  1.00  0.00    -0.022 A
HETATM    7  C19 UNL     1      42.183  -4.581  31.044  1.00  0.00     0.043 C
HETATM    8  C20 UNL     1      42.773  -5.283  32.254  1.00  0.00     0.025 C
HETATM    9  C21 UNL     1      42.118  -4.747  33.510  1.00  0.00     0.087 C
HETATM   10 CL1  UNL     1      42.597  -5.779  34.857  1.00  0.00    -0.125 Cl
HETATM   11  C22 UNL     1      42.577  -3.330  33.718  1.00  0.00     0.061 C
ENDROOT
BRANCH   4  12
HETATM   12  C8  UNL     1      42.609  -0.021  33.284  1.00  0.00    -0.050 C
HETATM   13  C9  UNL     1      44.059   0.278  33.573  1.00  0.00     0.056 C
HETATM   14  C10 UNL     1      44.291   1.536  34.272  1.00  0.00     0.132 C
HETATM   15  N3  UNL     1      43.179   1.952  35.103  1.00  0.00    -0.333 N
HETATM   16  C11 UNL     1      43.547   2.983  36.053  1.00  0.00     0.322 C
HETATM   17  C15 UNL     1      41.870   1.429  35.113  1.00  0.00     0.132 C
HETATM   18  O2  UNL     1      44.778   3.241  36.186  1.00  0.00    -0.247 OA
HETATM   19  N4  UNL     1      42.605   3.680  36.804  1.00  0.00    -0.318 N
ATOM     20  H4  UNL     1      41.643   3.400  36.613  1.00  0.00     0.170 HD
HETATM   21  C16 UNL     1      41.723   0.070  34.395  1.00  0.00     0.056 C
BRANCH  19  22
HETATM   22  C12 UNL     1      42.713   4.695  37.776  1.00  0.00     0.110 C
BRANCH  22  23
HETATM   23  C13 UNL     1      42.878   4.490  39.215  1.00  0.00     0.107 C
BRANCH  23  24
HETATM   24  N5  UNL     1      43.279   3.257  39.765  1.00  0.00    -0.340 N
HETATM   25  C14 UNL     1      44.689   3.004  40.045  1.00  0.00     0.185 C
HETATM   26  N6  UNL     1      45.508   2.720  39.154  1.00  0.00    -0.374 N
HETATM   27  N7  UNL     1      45.040   3.113  41.431  1.00  0.00    -0.064 NA
ATOM     28  H62 UNL     1      45.259   2.643  38.169  1.00  0.00     0.158 HD
ATOM     29  H61 UNL     1      46.494   2.543  39.350  1.00  0.00     0.158 HD
ATOM     30  H5  UNL     1      42.582   2.540  39.968  1.00  0.00     0.167 HD
ENDBRANCH  23  24
ENDBRANCH  22  23
ENDBRANCH  19  22
ENDBRANCH   4  12
BRANCH   1  31
HETATM   31  C5  UNL     1      42.170  -2.183  28.877  1.00  0.00     0.267 C
BRANCH  31  32
HETATM   32  N1  UNL     1      43.287  -2.638  28.184  1.00  0.00    -0.384 N
HETATM   33  C4  UNL     1      43.470  -3.951  27.761  1.00  0.00     0.146 C
BRANCH  32  34
HETATM   34  C2  UNL     1      43.709  -1.648  27.244  1.00  0.00     0.073 C
HETATM   35  C1  UNL     1      44.666  -0.642  27.863  1.00  0.00     0.031 C
HETATM   36  C3  UNL     1      44.439  -2.202  26.034  1.00  0.00     0.031 C
ENDBRANCH  32  34
ENDBRANCH  31  32
BRANCH  31  37
HETATM   37  O1  UNL     1      41.062  -3.022  28.564  1.00  0.00    -0.371 OA
ATOM     38  H1  UNL     1      40.266  -2.506  28.606  1.00  0.00     0.212 HD
ENDBRANCH  31  37
ENDBRANCH   1  31
TORSDOF 8
ENDMDL