MODEL 1
REMARK VINA RESULT: -7.253029739      0.000      0.000
REMARK  10 active torsions:
REMARK  status: ('A' for Active; 'I' for Inactive)
REMARK    1  A    between atoms: N1_2  and  N2_4
REMARK       I    between atoms: N2_4  and  C2_6
REMARK       I    between atoms: C2_6  and  N3_7
REMARK       I    between atoms: C2_6  and  N6_17
REMARK    2  A    between atoms: N3_7  and  C3_9
REMARK    3  A    between atoms: N6_17  and  C6_19
REMARK    4  A    between atoms: C6_19  and  C7_20
REMARK    5  A    between atoms: C6_19  and  C18_37
REMARK       I    between atoms: C7_20  and  N7_22
REMARK    6  A    between atoms: N7_22  and  C8_24
REMARK    7  A    between atoms: C8_24  and  C9_25
REMARK    8  A    between atoms: C8_24  and  C14_33
REMARK    9  A    between atoms: C9_25  and  C10_26
REMARK       I    between atoms: C10_26  and  N8_28
REMARK   10  A    between atoms: N8_28  and  C11_30
ROOT
HETATM    1  C6  UNL     1      41.283  -0.849  32.499  1.00  0.00     0.199 C
ENDROOT
BRANCH   1   2
HETATM    2  N6  UNL     1      41.721  -1.127  31.127  1.00  0.00    -0.211 N
HETATM    3  C2  UNL     1      42.088  -2.408  30.652  1.00  0.00     0.694 C
HETATM    4  N2  UNL     1      41.364  -3.446  30.646  1.00  0.00    -0.137 N
HETATM    5  N3  UNL     1      43.427  -2.512  30.125  1.00  0.00    -0.174 N
ATOM      6  H2  UNL     1      40.422  -3.351  31.024  1.00  0.00     0.205 HD
ATOM      7  H3  UNL     1      44.195  -2.868  30.694  1.00  0.00     0.186 HD
ATOM      8  H6  UNL     1      41.763  -0.346  30.473  1.00  0.00     0.178 HD
BRANCH   4   9
HETATM    9  N1  UNL     1      41.726  -4.689  30.180  1.00  0.00    -0.327 N
HETATM   10  C1  UNL     1      40.803  -5.827  30.211  1.00  0.00     0.168 C
ATOM     11  H1  UNL     1      42.664  -4.822  29.801  1.00  0.00     0.180 HD
ENDBRANCH   4   9
BRANCH   5  12
HETATM   12  C3  UNL     1      43.616  -2.130  28.883  1.00  0.00     0.138 A
HETATM   13  C4  UNL     1      43.756  -2.928  27.778  1.00  0.00     0.094 A
HETATM   14  C5  UNL     1      43.934  -2.120  26.675  1.00  0.00     0.121 A
HETATM   15 CL1  UNL     1      44.164  -2.564  24.990  1.00  0.00    -0.063 Cl
HETATM   16  N4  UNL     1      43.900  -0.858  27.128  1.00  0.00    -0.288 N
HETATM   17  N5  UNL     1      43.710  -0.859  28.451  1.00  0.00    -0.284 N
ATOM     18  H4  UNL     1      44.004  -0.024  26.550  1.00  0.00     0.188 HD
ATOM     19  H5  UNL     1      43.646  -0.028  29.040  1.00  0.00     0.188 HD
ENDBRANCH   5  12
ENDBRANCH   1   2
BRANCH   1  20
HETATM   20  C7  UNL     1      42.276  -0.092  33.228  1.00  0.00     0.242 C
HETATM   21  O1  UNL     1      43.191   0.407  32.462  1.00  0.00    -0.271 OA
HETATM   22  N7  UNL     1      42.439   0.202  34.573  1.00  0.00    -0.353 N
ATOM     23  H7  UNL     1      41.739  -0.159  35.220  1.00  0.00     0.163 HD
BRANCH  22  24
HETATM   24  C8  UNL     1      43.532   0.986  35.136  1.00  0.00     0.100 C
BRANCH  24  25
HETATM   25  C9  UNL     1      44.473   0.044  35.841  1.00  0.00     0.128 C
BRANCH  25  26
HETATM   26  C10 UNL     1      45.888   0.187  35.412  1.00  0.00     0.219 C
HETATM   27  O2  UNL     1      46.100   0.651  34.270  1.00  0.00    -0.274 OA
HETATM   28  N8  UNL     1      46.979  -0.171  36.217  1.00  0.00    -0.356 N
ATOM     29  H8  UNL     1      46.810  -0.551  37.148  1.00  0.00     0.162 HD
BRANCH  28  30
HETATM   30  C11 UNL     1      48.330  -0.012  35.754  1.00  0.00     0.084 A
HETATM   31  C12 UNL     1      49.125  -1.237  35.471  1.00  0.00     0.027 A
HETATM   32  C13 UNL     1      49.469  -0.393  36.672  1.00  0.00     0.027 A
ENDBRANCH  28  30
ENDBRANCH  25  26
ENDBRANCH  24  25
BRANCH  24  33
HETATM   33  C14 UNL     1      43.006   2.019  36.121  1.00  0.00    -0.030 C
HETATM   34  C15 UNL     1      41.538   2.271  36.017  1.00  0.00     0.016 C
HETATM   35  C16 UNL     1      43.803   3.313  35.943  1.00  0.00     0.016 C
HETATM   36  C17 UNL     1      43.305   1.553  37.533  1.00  0.00     0.016 C
ENDBRANCH  24  33
ENDBRANCH  22  24
ENDBRANCH   1  20
BRANCH   1  37
HETATM   37  C18 UNL     1      39.878  -0.395  32.455  1.00  0.00    -0.022 C
HETATM   38  C19 UNL     1      39.037  -1.679  32.704  1.00  0.00     0.017 C
HETATM   39  C20 UNL     1      39.488   0.476  33.636  1.00  0.00     0.017 C
HETATM   40  C21 UNL     1      39.402   0.137  31.136  1.00  0.00     0.017 C
ENDBRANCH   1  37
TORSDOF 10
ENDMDL