MODEL 3
REMARK VINA RESULT: -5.182531247      1.650      2.211
REMARK  7 active torsions:
REMARK  status: ('A' for Active; 'I' for Inactive)
REMARK       I    between atoms: C1_2  and  N1_3
REMARK    1  A    between atoms: C1_2  and  C7_17
REMARK    2  A    between atoms: N1_3  and  C2_5
REMARK    3  A    between atoms: C2_5  and  N2_7
REMARK    4  A    between atoms: N2_7  and  N3_9
REMARK    5  A    between atoms: N3_9  and  C3_10
REMARK    6  A    between atoms: C3_10  and  N4_12
REMARK    7  A    between atoms: N4_12  and  C4_14
ROOT
HETATM    1  N2  UNL     1      44.128  -0.694  31.822  1.00  0.00    -0.206 N
ATOM      2  H2  UNL     1      44.837  -1.342  31.480  1.00  0.00     0.204 HD
ENDROOT
BRANCH   1   3
HETATM    3  C2  UNL     1      42.853  -0.669  31.155  1.00  0.00     0.203 C
HETATM    4  S1  UNL     1      41.518  -0.670  32.055  1.00  0.00    -0.038 SA
BRANCH   3   5
HETATM    5  N1  UNL     1      42.814  -0.641  29.730  1.00  0.00    -0.302 N
HETATM    6  C1  UNL     1      43.457  -1.671  28.977  1.00  0.00     0.228 C
HETATM    7  O1  UNL     1      44.062  -2.609  29.603  1.00  0.00    -0.273 OA
ATOM      8  H1  UNL     1      42.326   0.115  29.248  1.00  0.00     0.171 HD
BRANCH   6   9
HETATM    9  C7  UNL     1      43.482  -1.744  27.509  1.00  0.00     0.078 A
HETATM   10  C8  UNL     1      44.113  -2.860  26.762  1.00  0.00     0.015 A
HETATM   11  C9  UNL     1      44.860  -1.508  26.894  1.00  0.00     0.015 A
ENDBRANCH   6   9
ENDBRANCH   3   5
ENDBRANCH   1   3
BRANCH   1  12
HETATM   12  N3  UNL     1      44.438   0.085  32.867  1.00  0.00    -0.293 NA
BRANCH  12  13
HETATM   13  C3  UNL     1      44.799   0.829  33.897  1.00  0.00     0.269 C
HETATM   14  S2  UNL     1      43.829   1.879  34.708  1.00  0.00    -0.023 SA
BRANCH  13  15
HETATM   15  N4  UNL     1      46.162   0.741  34.364  1.00  0.00    -0.349 N
ATOM     16  H4  UNL     1      46.850   1.284  33.842  1.00  0.00     0.163 HD
BRANCH  15  17
HETATM   17  C4  UNL     1      46.650   0.006  35.437  1.00  0.00     0.085 A
HETATM   18  C5  UNL     1      47.054   0.604  36.734  1.00  0.00     0.027 A
HETATM   19  C6  UNL     1      48.077  -0.053  35.864  1.00  0.00     0.027 A
ENDBRANCH  15  17
ENDBRANCH  13  15
ENDBRANCH  12  13
ENDBRANCH   1  12
TORSDOF 7
ENDMDL