MODEL 2
REMARK VINA RESULT: -5.865644267      3.924      5.841
REMARK  5 active torsions:
REMARK  status: ('A' for Active; 'I' for Inactive)
REMARK       I    between atoms: C1_2  and  N1_3
REMARK       I    between atoms: C1_2  and  N5_16
REMARK    1  A    between atoms: N1_3  and  N2_5
REMARK    2  A    between atoms: N2_5  and  C2_7
REMARK    3  A    between atoms: C2_7  and  N3_9
REMARK    4  A    between atoms: N3_9  and  N4_11
REMARK    5  A    between atoms: N5_16  and  C7_17
ROOT
HETATM    1  N2  UNL     1      41.993  -0.385  30.049  1.00  0.00    -0.270 N
ATOM      2  H2  UNL     1      42.043   0.628  29.942  1.00  0.00     0.189 HD
ENDROOT
BRANCH   1   3
HETATM    3  N1  UNL     1      40.802  -1.075  29.862  1.00  0.00    -0.237 N
HETATM    4  C1  UNL     1      39.587  -0.591  30.525  1.00  0.00     0.407 C
HETATM    5  O1  UNL     1      39.829   0.485  31.183  1.00  0.00    -0.229 OA
HETATM    6  N5  UNL     1      38.438  -1.254  30.408  1.00  0.00    -0.390 NA
ATOM      7  H1  UNL     1      40.773  -1.906  29.271  1.00  0.00     0.193 HD
BRANCH   6   8
HETATM    8  C7  UNL     1      37.224  -1.954  30.283  1.00  0.00     0.169 A
HETATM    9  C8  UNL     1      36.997  -2.980  29.192  1.00  0.00     0.043 A
HETATM   10  C9  UNL     1      36.302  -1.667  29.127  1.00  0.00     0.043 A
ENDBRANCH   6   8
ENDBRANCH   1   3
BRANCH   1  11
HETATM   11  C2  UNL     1      43.130  -1.145  30.395  1.00  0.00     0.205 C
HETATM   12  S1  UNL     1      43.233  -1.828  31.866  1.00  0.00    -0.038 SA
BRANCH  11  13
HETATM   13  N3  UNL     1      44.173  -1.340  29.458  1.00  0.00    -0.277 N
ATOM     14  H3  UNL     1      45.109  -1.015  29.702  1.00  0.00     0.189 HD
BRANCH  13  15
HETATM   15  N4  UNL     1      43.999  -1.920  28.280  1.00  0.00    -0.326 N
HETATM   16  C3  UNL     1      44.056  -1.164  27.079  1.00  0.00     0.142 C
HETATM   17  C4  UNL     1      44.601  -2.237  26.113  1.00  0.00     0.023 C
HETATM   18  C5  UNL     1      43.882  -3.458  26.612  1.00  0.00     0.023 C
HETATM   19  C6  UNL     1      43.337  -3.097  28.005  1.00  0.00     0.142 C
ENDBRANCH  13  15
ENDBRANCH  11  13
ENDBRANCH   1  11
TORSDOF 5
ENDMDL