MODEL 1
REMARK VINA RESULT: -5.141116994      0.000      0.000
REMARK  7 active torsions:
REMARK  status: ('A' for Active; 'I' for Inactive)
REMARK    1  A    between atoms: C2_2  and  C4_4
REMARK       I    between atoms: C4_4  and  N1_6
REMARK    2  A    between atoms: N1_6  and  C5_8
REMARK    3  A    between atoms: C5_8  and  N2_10
REMARK    4  A    between atoms: N2_10  and  N3_12
REMARK    5  A    between atoms: N3_12  and  C6_14
REMARK    6  A    between atoms: C6_14  and  N4_16
REMARK    7  A    between atoms: N4_16  and  C7_18
ROOT
HETATM    1  N2  UNL     1      41.372  -3.771  30.020  1.00  0.00    -0.274 N
ATOM      2  H2  UNL     1      41.010  -4.033  30.937  1.00  0.00     0.189 HD
ENDROOT
BRANCH   1   3
HETATM    3  C5  UNL     1      42.159  -4.717  29.272  1.00  0.00     0.193 C
HETATM    4  S1  UNL     1      42.566  -6.154  29.933  1.00  0.00    -0.039 SA
BRANCH   3   5
HETATM    5  N1  UNL     1      42.586  -4.404  27.952  1.00  0.00    -0.299 N
HETATM    6  C4  UNL     1      43.613  -3.492  27.702  1.00  0.00     0.252 C
HETATM    7  O1  UNL     1      44.181  -2.925  28.691  1.00  0.00    -0.268 OA
ATOM      8  H1  UNL     1      42.129  -4.860  27.163  1.00  0.00     0.171 HD
BRANCH   6   9
HETATM    9  C2  UNL     1      44.061  -3.162  26.368  1.00  0.00    -0.003 C
HETATM   10  C1  UNL     1      43.974  -4.029  25.393  1.00  0.00     0.024 C
HETATM   11  C3  UNL     1      44.636  -1.786  26.122  1.00  0.00     0.053 C
ENDBRANCH   6   9
ENDBRANCH   3   5
ENDBRANCH   1   3
BRANCH   1  12
HETATM   12  N3  UNL     1      41.101  -2.513  29.512  1.00  0.00    -0.274 N
ATOM     13  H3  UNL     1      40.675  -2.435  28.589  1.00  0.00     0.189 HD
BRANCH  12  14
HETATM   14  C6  UNL     1      41.403  -1.309  30.248  1.00  0.00     0.186 C
HETATM   15  S2  UNL     1      40.108  -0.432  30.692  1.00  0.00    -0.040 SA
BRANCH  14  16
HETATM   16  N4  UNL     1      42.740  -0.949  30.520  1.00  0.00    -0.361 N
ATOM     17  H4  UNL     1      43.188  -0.362  29.816  1.00  0.00     0.162 HD
BRANCH  16  18
HETATM   18  C7  UNL     1      43.551  -1.288  31.636  1.00  0.00     0.084 A
HETATM   19  C8  UNL     1      43.485  -0.515  32.903  1.00  0.00     0.027 A
HETATM   20  C9  UNL     1      43.111  -1.987  32.871  1.00  0.00     0.027 A
ENDBRANCH  16  18
ENDBRANCH  14  16
ENDBRANCH  12  14
ENDBRANCH   1  12
TORSDOF 7
ENDMDL