MODEL 1
REMARK VINA RESULT: -6.220546813      0.000      0.000
REMARK  5 active torsions:
REMARK  status: ('A' for Active; 'I' for Inactive)
REMARK       I    between atoms: C1_2  and  N1_3
REMARK       I    between atoms: C1_2  and  N4_16
REMARK    1  A    between atoms: N1_3  and  N2_5
REMARK    2  A    between atoms: N2_5  and  C2_7
REMARK    3  A    between atoms: C2_7  and  N3_9
REMARK       I    between atoms: N3_9  and  C3_11
REMARK    4  A    between atoms: C3_11  and  C4_13
REMARK    5  A    between atoms: N4_16  and  C7_18
ROOT
HETATM    1  N2  UNL     1      42.520  -0.363  30.659  1.00  0.00    -0.272 N
ATOM      2  H2  UNL     1      42.944   0.514  30.357  1.00  0.00     0.189 HD
ENDROOT
BRANCH   1   3
HETATM    3  N1  UNL     1      42.345  -1.272  29.642  1.00  0.00    -0.249 N
HETATM    4  C1  UNL     1      43.400  -1.571  28.729  1.00  0.00     0.335 C
HETATM    5  O1  UNL     1      44.516  -0.996  28.852  1.00  0.00    -0.246 OA
HETATM    6  N4  UNL     1      43.207  -2.498  27.703  1.00  0.00    -0.337 N
ATOM      7  H4  UNL     1      42.298  -2.954  27.618  1.00  0.00     0.164 HD
ATOM      8  H1  UNL     1      41.445  -1.741  29.538  1.00  0.00     0.192 HD
BRANCH   6   9
HETATM    9  C7  UNL     1      44.258  -2.839  26.746  1.00  0.00     0.086 C
HETATM   10  C8  UNL     1      43.834  -4.020  25.882  1.00  0.00     0.025 C
HETATM   11  C9  UNL     1      44.185  -3.222  24.644  1.00  0.00     0.004 C
HETATM   12  C10 UNL     1      44.333  -1.976  25.528  1.00  0.00     0.025 C
ENDBRANCH   6   9
ENDBRANCH   1   3
BRANCH   1  13
HETATM   13  C2  UNL     1      42.237  -0.404  31.991  1.00  0.00     0.193 C
HETATM   14  S1  UNL     1      40.557  -0.428  32.322  1.00  0.00    -0.039 SA
BRANCH  13  15
HETATM   15  N3  UNL     1      43.038  -0.427  33.106  1.00  0.00    -0.302 N
HETATM   16  C3  UNL     1      44.402  -0.211  33.296  1.00  0.00     0.228 C
HETATM   17  O2  UNL     1      45.238   0.069  32.421  1.00  0.00    -0.273 OA
ATOM     18  H3  UNL     1      42.535  -0.647  33.966  1.00  0.00     0.171 HD
BRANCH  16  19
HETATM   19  C4  UNL     1      44.986  -0.314  34.688  1.00  0.00     0.078 A
HETATM   20  C5  UNL     1      46.325   0.229  34.971  1.00  0.00     0.015 A
HETATM   21  C6  UNL     1      45.126   1.032  35.356  1.00  0.00     0.015 A
ENDBRANCH  16  19
ENDBRANCH  13  15
ENDBRANCH   1  13
TORSDOF 5
ENDMDL