MODEL 5
REMARK VINA RESULT: -5.073986191      2.942      6.617
REMARK  7 active torsions:
REMARK  status: ('A' for Active; 'I' for Inactive)
REMARK    1  A    between atoms: N1_2  and  C2_4
REMARK    2  A    between atoms: C2_4  and  N2_6
REMARK    3  A    between atoms: N2_6  and  N3_8
REMARK    4  A    between atoms: N3_8  and  C3_10
REMARK    5  A    between atoms: C3_10  and  N4_12
REMARK    6  A    between atoms: N4_12  and  C4_14
REMARK    7  A    between atoms: C4_14  and  C5_15
ROOT
HETATM    1  C3  UNL     1      42.443  -0.737  31.108  1.00  0.00     0.186 C
HETATM    2  S2  UNL     1      40.881  -0.502  31.623  1.00  0.00    -0.040 SA
ENDROOT
BRANCH   1   3
HETATM    3  N3  UNL     1      43.443  -0.883  32.080  1.00  0.00    -0.274 N
ATOM      4  H3  UNL     1      43.386  -1.715  32.666  1.00  0.00     0.189 HD
BRANCH   3   5
HETATM    5  N2  UNL     1      44.505  -0.021  32.335  1.00  0.00    -0.274 N
ATOM      6  H2  UNL     1      45.199   0.163  31.610  1.00  0.00     0.189 HD
BRANCH   5   7
HETATM    7  C2  UNL     1      44.621   0.601  33.601  1.00  0.00     0.186 C
HETATM    8  S1  UNL     1      43.302   0.880  34.489  1.00  0.00    -0.040 SA
BRANCH   7   9
HETATM    9  N1  UNL     1      45.906   0.973  34.084  1.00  0.00    -0.370 N
HETATM   10  C1  UNL     1      46.516   0.220  35.165  1.00  0.00     0.148 C
ATOM     11  H1  UNL     1      46.397   1.767  33.673  1.00  0.00     0.161 HD
ENDBRANCH   7   9
ENDBRANCH   5   7
ENDBRANCH   3   5
ENDBRANCH   1   3
BRANCH   1  12
HETATM   12  N4  UNL     1      42.676  -0.775  29.736  1.00  0.00    -0.364 N
ATOM     13  H4  UNL     1      42.937   0.097  29.275  1.00  0.00     0.162 HD
BRANCH  12  14
HETATM   14  C4  UNL     1      42.576  -1.939  28.934  1.00  0.00     0.154 C
BRANCH  14  15
HETATM   15  C5  UNL     1      43.978  -2.307  28.386  1.00  0.00     0.139 C
HETATM   16  C6  UNL     1      44.536  -1.031  27.807  1.00  0.00     0.035 C
HETATM   17  C7  UNL     1      44.099  -1.193  26.343  1.00  0.00     0.029 C
HETATM   18  C8  UNL     1      44.341  -2.705  26.202  1.00  0.00     0.168 C
HETATM   19  O1  UNL     1      43.804  -3.201  27.355  1.00  0.00    -0.384 OA
ENDBRANCH  14  15
ENDBRANCH  12  14
ENDBRANCH   1  12
TORSDOF 7
ENDMDL