MODEL 2
REMARK VINA RESULT: -6.221638570      0.720      1.263
REMARK  4 active torsions:
REMARK  status: ('A' for Active; 'I' for Inactive)
REMARK    1  A    between atoms: C2_2  and  C3_3
REMARK       I    between atoms: C3_3  and  N1_5
REMARK    2  A    between atoms: N1_5  and  N2_6
REMARK       I    between atoms: N2_6  and  C4_8
REMARK       I    between atoms: C4_8  and  N3_10
REMARK    3  A    between atoms: N3_10  and  N4_12
REMARK       I    between atoms: N4_12  and  C5_14
REMARK    4  A    between atoms: C5_14  and  C6_16
ROOT
HETATM    1  N2  UNL     1      43.566  -0.989  29.052  1.00  0.00    -0.180 N
ATOM      2  H2  UNL     1      44.143  -0.259  29.468  1.00  0.00     0.207 HD
HETATM    3  C4  UNL     1      42.280  -1.356  29.782  1.00  0.00     0.363 C
HETATM    4  O2  UNL     1      41.684  -2.224  29.345  1.00  0.00    -0.243 OA
HETATM    5  N3  UNL     1      42.129  -0.461  30.900  1.00  0.00    -0.247 N
ATOM      6  H3  UNL     1      42.864   0.207  31.134  1.00  0.00     0.192 HD
ENDROOT
BRANCH   5   7
HETATM    7  N4  UNL     1      40.965  -0.524  31.654  1.00  0.00    -0.266 N
HETATM    8  C5  UNL     1      39.766   0.184  31.490  1.00  0.00     0.240 C
HETATM    9  O3  UNL     1      39.627   0.981  30.537  1.00  0.00    -0.271 OA
ATOM     10  H4  UNL     1      40.985  -1.177  32.438  1.00  0.00     0.190 HD
BRANCH   8  11
HETATM   11  C6  UNL     1      38.706  -0.077  32.509  1.00  0.00     0.084 C
HETATM   12  C7  UNL     1      38.609  -1.569  32.762  1.00  0.00     0.019 C
HETATM   13  C8  UNL     1      37.130  -1.744  32.556  1.00  0.00    -0.013 C
HETATM   14  C9  UNL     1      36.877  -0.990  31.282  1.00  0.00     0.010 C
HETATM   15  C11 UNL     1      36.584  -0.486  33.266  1.00  0.00     0.010 C
HETATM   16  C10 UNL     1      37.328   0.222  32.117  1.00  0.00    -0.001 C
ENDBRANCH   8  11
ENDBRANCH   5   7
BRANCH   1  17
HETATM   17  N1  UNL     1      43.986  -1.518  27.960  1.00  0.00    -0.283 NA
HETATM   18  C3  UNL     1      44.448  -2.069  26.788  1.00  0.00     0.312 C
HETATM   19  O1  UNL     1      45.342  -1.610  26.072  1.00  0.00    -0.255 OA
BRANCH  18  20
HETATM   20  C2  UNL     1      43.796  -3.363  26.361  1.00  0.00     0.117 C
HETATM   21  C1  UNL     1      44.011  -3.558  24.886  1.00  0.00     0.016 C
ENDBRANCH  18  20
ENDBRANCH   1  17
TORSDOF 4
ENDMDL