MODEL 4
REMARK VINA RESULT: -5.468856765      3.139      3.919
REMARK  5 active torsions:
REMARK  status: ('A' for Active; 'I' for Inactive)
REMARK    1  A    between atoms: C2_2  and  N1_3
REMARK    2  A    between atoms: N1_3  and  C3_5
REMARK    3  A    between atoms: C3_5  and  N2_7
REMARK    4  A    between atoms: N2_7  and  N3_9
REMARK       I    between atoms: N3_9  and  C4_11
REMARK       I    between atoms: C4_11  and  N4_13
REMARK    5  A    between atoms: N4_13  and  C5_15
ROOT
HETATM    1  N3  UNL     1      41.844  -0.652  31.723  1.00  0.00    -0.249 N
ATOM      2  H3  UNL     1      40.985  -0.166  31.467  1.00  0.00     0.192 HD
HETATM    3  C4  UNL     1      42.616  -1.263  30.701  1.00  0.00     0.335 C
HETATM    4  O1  UNL     1      43.678  -1.858  31.059  1.00  0.00    -0.246 OA
HETATM    5  N4  UNL     1      42.208  -1.207  29.343  1.00  0.00    -0.337 N
ATOM      6  H4  UNL     1      41.345  -0.715  29.114  1.00  0.00     0.164 HD
ENDROOT
BRANCH   1   7
HETATM    7  N2  UNL     1      42.221  -0.693  33.073  1.00  0.00    -0.272 N
ATOM      8  H2  UNL     1      41.921  -1.484  33.643  1.00  0.00     0.189 HD
BRANCH   7   9
HETATM    9  C3  UNL     1      43.007   0.330  33.677  1.00  0.00     0.186 C
HETATM   10  S1  UNL     1      42.479   1.118  34.999  1.00  0.00    -0.040 SA
BRANCH   9  11
HETATM   11  N1  UNL     1      44.260   0.668  33.125  1.00  0.00    -0.366 N
ATOM     12  H1  UNL     1      44.445   0.447  32.147  1.00  0.00     0.161 HD
BRANCH  11  13
HETATM   13  C2  UNL     1      45.304   1.327  33.913  1.00  0.00     0.117 C
HETATM   14  C1  UNL     1      46.083   0.294  34.674  1.00  0.00     0.026 C
ENDBRANCH  11  13
ENDBRANCH   9  11
ENDBRANCH   7   9
ENDBRANCH   1   7
BRANCH   5  15
HETATM   15  C5  UNL     1      42.950  -1.807  28.288  1.00  0.00     0.089 C
HETATM   16  C6  UNL     1      44.182  -1.001  27.874  1.00  0.00     0.044 C
HETATM   17  C7  UNL     1      44.800  -1.670  26.662  1.00  0.00     0.118 C
HETATM   18  N5  UNL     1      43.975  -2.752  26.245  1.00  0.00    -0.416 N
HETATM   19  C8  UNL     1      44.134  -3.168  24.894  1.00  0.00     0.143 C
HETATM   20  C9  UNL     1      43.849  -3.803  27.202  1.00  0.00     0.118 C
HETATM   21  C10 UNL     1      43.413  -3.208  28.524  1.00  0.00     0.044 C
ENDBRANCH   5  15
TORSDOF 5
ENDMDL