MODEL 5
REMARK VINA RESULT: -4.930015484      2.683      4.244
REMARK  6 active torsions:
REMARK  status: ('A' for Active; 'I' for Inactive)
REMARK    1  A    between atoms: C2_2  and  N1_3
REMARK       I    between atoms: N1_3  and  C3_5
REMARK       I    between atoms: C3_5  and  N3_12
REMARK       I    between atoms: N2_6  and  C4_8
REMARK    2  A    between atoms: C4_8  and  O2_10
REMARK    3  A    between atoms: N3_12  and  N4_14
REMARK    4  A    between atoms: N4_14  and  C6_16
REMARK    5  A    between atoms: C6_16  and  N5_18
REMARK    6  A    between atoms: N5_18  and  C7_20
ROOT
HETATM    1  N1  UNL     1      42.198  -0.460  30.801  1.00  0.00    -0.225 N
ATOM      2  H1  UNL     1      42.642   0.202  30.164  1.00  0.00     0.177 HD
HETATM    3  C3  UNL     1      42.970  -1.435  31.497  1.00  0.00     0.697 C
HETATM    4  N2  UNL     1      43.504  -1.255  32.641  1.00  0.00    -0.134 N
ATOM      5  H2  UNL     1      44.044  -2.005  33.073  1.00  0.00     0.189 HD
HETATM    6  C4  UNL     1      43.351  -0.013  33.319  1.00  0.00     0.378 C
HETATM    7  O1  UNL     1      42.488   0.091  34.201  1.00  0.00    -0.238 OA
HETATM    8  N3  UNL     1      43.140  -2.682  30.840  1.00  0.00    -0.130 N
ATOM      9  H3  UNL     1      42.851  -3.562  31.268  1.00  0.00     0.205 HD
ENDROOT
BRANCH   1  10
HETATM   10  C2  UNL     1      40.779  -0.433  31.018  1.00  0.00     0.134 C
HETATM   11  C1  UNL     1      40.035  -1.426  30.172  1.00  0.00     0.027 C
ENDBRANCH   1  10
BRANCH   8  12
HETATM   12  N4  UNL     1      43.738  -2.631  29.555  1.00  0.00    -0.262 N
ATOM     13  H4  UNL     1      44.289  -1.822  29.269  1.00  0.00     0.190 HD
BRANCH  12  14
HETATM   14  C6  UNL     1      43.557  -3.714  28.686  1.00  0.00     0.187 C
HETATM   15  S1  UNL     1      42.572  -4.928  29.113  1.00  0.00    -0.040 SA
BRANCH  14  16
HETATM   16  N5  UNL     1      44.212  -3.772  27.449  1.00  0.00    -0.362 N
ATOM     17  H5  UNL     1      44.944  -4.465  27.294  1.00  0.00     0.162 HD
BRANCH  16  18
HETATM   18  C7  UNL     1      43.853  -2.849  26.390  1.00  0.00     0.076 C
HETATM   19  C8  UNL     1      44.836  -1.687  26.423  1.00  0.00     0.032 C
HETATM   20  C9  UNL     1      43.996  -3.594  25.066  1.00  0.00     0.032 C
ENDBRANCH  16  18
ENDBRANCH  14  16
ENDBRANCH  12  14
ENDBRANCH   8  12
BRANCH   6  21
HETATM   21  O2  UNL     1      44.158   1.072  32.999  1.00  0.00    -0.308 OA
HETATM   22  C5  UNL     1      45.239   1.445  33.829  1.00  0.00     0.215 C
ENDBRANCH   6  21
TORSDOF 6
ENDMDL