MODEL 5
REMARK VINA RESULT: -5.716709473      3.173      4.372
REMARK  6 active torsions:
REMARK  status: ('A' for Active; 'I' for Inactive)
REMARK    1  A    between atoms: C2_2  and  N1_3
REMARK       I    between atoms: N1_3  and  C3_5
REMARK       I    between atoms: C3_5  and  N2_7
REMARK    2  A    between atoms: N2_7  and  C4_9
REMARK    3  A    between atoms: C4_9  and  N3_10
REMARK    4  A    between atoms: C4_9  and  S1_20
REMARK    5  A    between atoms: N3_10  and  N4_12
REMARK       I    between atoms: N4_12  and  C5_14
REMARK    6  A    between atoms: C5_14  and  C6_16
ROOT
HETATM    1  C4  UNL     1      42.415  -0.862  30.617  1.00  0.00     0.162 C
ENDROOT
BRANCH   1   2
HETATM    2  N2  UNL     1      42.726  -0.575  29.290  1.00  0.00    -0.288 N
HETATM    3  C3  UNL     1      43.611  -1.383  28.548  1.00  0.00     0.322 C
HETATM    4  N1  UNL     1      43.915  -1.120  27.180  1.00  0.00    -0.343 N
HETATM    5  O1  UNL     1      44.179  -2.378  29.056  1.00  0.00    -0.247 OA
ATOM      6  H1  UNL     1      43.472  -0.312  26.743  1.00  0.00     0.164 HD
ATOM      7  H2  UNL     1      42.304   0.240  28.845  1.00  0.00     0.172 HD
BRANCH   4   8
HETATM    8  C2  UNL     1      44.803  -1.914  26.374  1.00  0.00     0.120 C
HETATM    9  C1  UNL     1      44.143  -2.959  25.541  1.00  0.00     0.026 C
ENDBRANCH   4   8
ENDBRANCH   1   2
BRANCH   1  10
HETATM   10  N3  UNL     1      43.420  -0.792  31.596  1.00  0.00    -0.277 N
ATOM     11  H3  UNL     1      44.269  -1.326  31.411  1.00  0.00     0.189 HD
BRANCH  10  12
HETATM   12  N4  UNL     1      43.389  -0.079  32.788  1.00  0.00    -0.268 N
HETATM   13  C5  UNL     1      44.561   0.509  33.343  1.00  0.00     0.240 C
HETATM   14  O2  UNL     1      45.625   0.364  32.727  1.00  0.00    -0.271 OA
ATOM     15  H4  UNL     1      42.502   0.027  33.280  1.00  0.00     0.190 HD
BRANCH  13  16
HETATM   16  C6  UNL     1      44.493   1.253  34.600  1.00  0.00     0.083 A
HETATM   17  C7  UNL     1      45.594   0.973  35.579  1.00  0.00     0.019 A
HETATM   18  C8  UNL     1      44.177   0.682  35.914  1.00  0.00    -0.005 A
HETATM   19  C9  UNL     1      43.640  -0.695  36.092  1.00  0.00     0.011 C
ENDBRANCH  13  16
ENDBRANCH  10  12
ENDBRANCH   1  10
BRANCH   1  20
HETATM   20  S1  UNL     1      40.872  -1.278  31.037  1.00  0.00    -0.097 SA
HETATM   21  C10 UNL     1      39.653   0.142  31.149  1.00  0.00     0.099 C
ENDBRANCH   1  20
TORSDOF 6
ENDMDL