MODEL 2
REMARK VINA RESULT: -4.966991879      1.393      2.278
REMARK  7 active torsions:
REMARK  status: ('A' for Active; 'I' for Inactive)
REMARK    1  A    between atoms: C2_2  and  N1_3
REMARK    2  A    between atoms: N1_3  and  C3_5
REMARK    3  A    between atoms: C3_5  and  N2_7
REMARK    4  A    between atoms: N2_7  and  N3_9
REMARK    5  A    between atoms: N3_9  and  C4_11
REMARK    6  A    between atoms: C4_11  and  N4_13
REMARK       I    between atoms: N4_13  and  C5_15
REMARK    7  A    between atoms: C5_15  and  C6_17
ROOT
HETATM    1  N3  UNL     1      43.695  -0.660  28.574  1.00  0.00    -0.274 N
ATOM      2  H3  UNL     1      44.302   0.159  28.541  1.00  0.00     0.189 HD
ENDROOT
BRANCH   1   3
HETATM    3  N2  UNL     1      42.592  -0.677  29.395  1.00  0.00    -0.274 N
ATOM      4  H2  UNL     1      41.684  -0.613  28.933  1.00  0.00     0.189 HD
BRANCH   3   5
HETATM    5  C3  UNL     1      42.571  -0.772  30.784  1.00  0.00     0.186 C
HETATM    6  S1  UNL     1      41.087  -0.761  31.585  1.00  0.00    -0.040 SA
BRANCH   5   7
HETATM    7  N1  UNL     1      43.710  -0.881  31.590  1.00  0.00    -0.366 N
ATOM      8  H1  UNL     1      44.622  -0.821  31.137  1.00  0.00     0.161 HD
BRANCH   7   9
HETATM    9  C2  UNL     1      43.678  -1.070  33.010  1.00  0.00     0.117 C
HETATM   10  C1  UNL     1      44.818  -0.217  33.618  1.00  0.00     0.026 C
ENDBRANCH   7   9
ENDBRANCH   5   7
ENDBRANCH   3   5
ENDBRANCH   1   3
BRANCH   1  11
HETATM   11  C4  UNL     1      43.978  -1.811  27.763  1.00  0.00     0.193 C
HETATM   12  S2  UNL     1      44.281  -1.601  26.174  1.00  0.00    -0.039 SA
BRANCH  11  13
HETATM   13  N4  UNL     1      43.990  -3.089  28.356  1.00  0.00    -0.302 N
HETATM   14  C5  UNL     1      42.804  -3.797  28.648  1.00  0.00     0.228 C
HETATM   15  O1  UNL     1      41.699  -3.268  28.366  1.00  0.00    -0.273 OA
ATOM     16  H4  UNL     1      44.887  -3.517  28.584  1.00  0.00     0.171 HD
BRANCH  14  17
HETATM   17  C6  UNL     1      42.792  -5.135  29.269  1.00  0.00     0.082 A
HETATM   18  C7  UNL     1      41.649  -5.591  30.090  1.00  0.00     0.019 A
HETATM   19  C8  UNL     1      42.838  -5.070  30.803  1.00  0.00    -0.005 A
HETATM   20  C9  UNL     1      43.856  -5.963  31.419  1.00  0.00     0.011 C
ENDBRANCH  14  17
ENDBRANCH  11  13
ENDBRANCH   1  11
TORSDOF 7
ENDMDL