MODEL 2
REMARK VINA RESULT: -5.873229624      2.512      5.806
REMARK  3 active torsions:
REMARK  status: ('A' for Active; 'I' for Inactive)
REMARK    1  A    between atoms: C5_5  and  N1_6
REMARK    2  A    between atoms: N1_6  and  C6_8
REMARK    3  A    between atoms: C6_8  and  C7_12
REMARK       I    between atoms: N3_16  and  C10_17
ROOT
HETATM    1  C6  UNL     1      42.726  -4.027  28.217  1.00  0.00     0.096 C
HETATM    2  N2  UNL     1      42.367  -5.250  28.280  1.00  0.00    -0.387 N
ATOM      3  H21 UNL     1      43.028  -5.979  28.010  1.00  0.00     0.157 HD
ATOM      4  H22 UNL     1      41.430  -5.493  28.600  1.00  0.00     0.157 HD
ENDROOT
BRANCH   1   5
HETATM    5  N1  UNL     1      41.811  -3.017  28.592  1.00  0.00    -0.374 N
ATOM      6  H1  UNL     1      41.586  -2.268  27.936  1.00  0.00     0.161 HD
BRANCH   5   7
HETATM    7  C5  UNL     1      41.186  -3.038  29.907  1.00  0.00     0.082 C
HETATM    8  C4  UNL     1      41.846  -2.075  30.835  1.00  0.00     0.025 C
HETATM    9  C3  UNL     1      41.346  -0.671  30.749  1.00  0.00     0.006 C
HETATM   10  C2  UNL     1      39.862  -0.560  30.540  1.00  0.00    -0.019 C
HETATM   11  C1  UNL     1      39.213   0.442  31.463  1.00  0.00     0.010 C
HETATM   12  C12 UNL     1      39.195  -1.901  30.797  1.00  0.00     0.006 C
HETATM   13  C11 UNL     1      39.721  -2.830  29.727  1.00  0.00     0.025 C
ENDBRANCH   5   7
ENDBRANCH   1   5
BRANCH   1  14
HETATM   14  C7  UNL     1      44.079  -3.676  27.757  1.00  0.00     0.173 C
HETATM   15  C8  UNL     1      44.483  -4.015  26.370  1.00  0.00     0.130 C
HETATM   16 CL1  UNL     1      43.503  -5.114  25.430  1.00  0.00    -0.121 Cl
HETATM   17  C9  UNL     1      44.160  -2.570  26.046  1.00  0.00     0.149 C
HETATM   18  N3  UNL     1      44.228  -2.248  27.449  1.00  0.00    -0.341 N
HETATM   19  C10 UNL     1      44.373  -1.070  28.203  1.00  0.00     0.184 C
HETATM   20  N4  UNL     1      43.895   0.081  27.784  1.00  0.00    -0.374 N
HETATM   21  N5  UNL     1      45.030  -1.004  29.453  1.00  0.00    -0.064 NA
ATOM     22  H42 UNL     1      43.421   0.033  26.881  1.00  0.00     0.158 HD
ATOM     23  H41 UNL     1      44.001   0.936  28.331  1.00  0.00     0.158 HD
ENDBRANCH   1  14
TORSDOF 3
ENDMDL