MODEL 3
REMARK VINA RESULT: -5.366656448      0.822      1.127
REMARK  5 active torsions:
REMARK  status: ('A' for Active; 'I' for Inactive)
REMARK    1  A    between atoms: C2_2  and  N1_3
REMARK    2  A    between atoms: C2_2  and  C7_17
REMARK    3  A    between atoms: N1_3  and  C3_5
REMARK    4  A    between atoms: C3_5  and  N2_7
REMARK    5  A    between atoms: N2_7  and  C4_9
ROOT
HETATM    1  C3  UNL     1      42.284  -1.155  30.016  1.00  0.00     0.169 C
HETATM    2  S1  UNL     1      40.975  -2.129  29.833  1.00  0.00    -0.041 SA
ENDROOT
BRANCH   1   3
HETATM    3  N1  UNL     1      42.584  -0.484  31.211  1.00  0.00    -0.361 N
ATOM      4  H1  UNL     1      42.222   0.465  31.314  1.00  0.00     0.162 HD
BRANCH   3   5
HETATM    5  C2  UNL     1      43.348  -1.008  32.294  1.00  0.00     0.102 C
HETATM    6  C1  UNL     1      44.360  -0.049  32.864  1.00  0.00     0.034 C
BRANCH   5   7
HETATM    7  C7  UNL     1      42.489  -1.464  33.453  1.00  0.00     0.050 C
HETATM    8  C8  UNL     1      41.133  -0.811  33.432  1.00  0.00     0.034 C
HETATM    9  C9  UNL     1      42.377  -2.958  33.547  1.00  0.00     0.034 C
HETATM   10 CL1  UNL     1      43.321  -0.915  34.946  1.00  0.00    -0.118 Cl
ENDBRANCH   5   7
ENDBRANCH   3   5
ENDBRANCH   1   3
BRANCH   1  11
HETATM   11  N2  UNL     1      43.108  -1.033  28.867  1.00  0.00    -0.344 N
ATOM     12  H2  UNL     1      42.827  -0.424  28.100  1.00  0.00     0.164 HD
BRANCH  11  13
HETATM   13  C4  UNL     1      44.369  -1.788  28.784  1.00  0.00     0.205 C
HETATM   14  C5  UNL     1      44.113  -3.201  28.284  1.00  0.00     0.171 C
HETATM   15  N3  UNL     1      43.710  -2.970  26.923  1.00  0.00    -0.339 N
HETATM   16  C6  UNL     1      44.326  -1.770  26.503  1.00  0.00     0.317 C
ATOM     17  H3  UNL     1      43.094  -3.563  26.365  1.00  0.00     0.164 HD
HETATM   18  O1  UNL     1      44.296  -1.197  25.368  1.00  0.00    -0.247 OA
HETATM   19  N4  UNL     1      45.065  -1.218  27.618  1.00  0.00    -0.320 N
ATOM     20  H4  UNL     1      45.868  -0.589  27.601  1.00  0.00     0.166 HD
ENDBRANCH  11  13
ENDBRANCH   1  11
TORSDOF 5
ENDMDL