MODEL 5
REMARK VINA RESULT: -5.858387368      2.369      2.980
REMARK  2 active torsions:
REMARK  status: ('A' for Active; 'I' for Inactive)
REMARK       I    between atoms: C1_2  and  N2_4
REMARK    1  A    between atoms: N2_4  and  C2_6
REMARK    2  A    between atoms: C8_12  and  C9_13
ROOT
HETATM    1  C2  UNL     1      43.098  -2.550  29.580  1.00  0.00     0.052 C
HETATM    2  C3  UNL     1      42.649  -3.944  29.061  1.00  0.00     0.037 C
HETATM    3  C4  UNL     1      41.459  -4.398  29.820  1.00  0.00    -0.010 C
HETATM    4  C5  UNL     1      41.926  -4.648  31.250  1.00  0.00     0.011 C
HETATM    5  C6  UNL     1      42.435  -3.358  31.801  1.00  0.00     0.008 C
HETATM    6  C7  UNL     1      41.268  -2.377  31.807  1.00  0.00     0.025 C
HETATM    7  C8  UNL     1      40.778  -2.126  30.410  1.00  0.00     0.041 C
HETATM    8  C10 UNL     1      40.311  -3.440  29.800  1.00  0.00     0.023 C
HETATM    9  C11 UNL     1      41.901  -1.636  29.518  1.00  0.00     0.051 C
HETATM   10  C12 UNL     1      43.561  -2.732  30.985  1.00  0.00     0.114 C
HETATM   11 CL1  UNL     1      43.922  -1.195  31.781  1.00  0.00    -0.122 Cl
ENDROOT
BRANCH   1  12
HETATM   12  N2  UNL     1      44.064  -2.088  28.635  1.00  0.00    -0.335 N
HETATM   13  C1  UNL     1      44.217  -2.337  27.279  1.00  0.00     0.329 C
HETATM   14  N1  UNL     1      45.300  -1.706  26.574  1.00  0.00    -0.040 NA
HETATM   15  O1  UNL     1      43.454  -3.082  26.645  1.00  0.00    -0.251 OA
ATOM     16  H2  UNL     1      44.768  -1.464  29.028  1.00  0.00     0.164 HD
ENDBRANCH   1  12
BRANCH   7  17
HETATM   17  C9  UNL     1      39.723  -1.111  30.449  1.00  0.00     0.240 C
HETATM   18  N3  UNL     1      40.025   0.235  30.794  1.00  0.00    -0.061 NA
HETATM   19  O2  UNL     1      38.521  -1.385  30.181  1.00  0.00    -0.276 OA
ENDBRANCH   7  17
TORSDOF 2
ENDMDL