MODEL 5
REMARK VINA RESULT: -6.067641167      2.518      3.081
REMARK  2 active torsions:
REMARK  status: ('A' for Active; 'I' for Inactive)
REMARK       I    between atoms: C1_2  and  N2_4
REMARK    1  A    between atoms: N2_4  and  N3_6
REMARK       I    between atoms: N3_6  and  C2_8
REMARK       I    between atoms: C2_8  and  N4_10
REMARK    2  A    between atoms: N4_10  and  C3_12
ROOT
HETATM    1  N3  UNL     1      44.121  -3.522  28.164  1.00  0.00    -0.248 N
ATOM      2  H3  UNL     1      44.976  -3.887  28.584  1.00  0.00     0.192 HD
HETATM    3  C2  UNL     1      43.188  -2.886  29.010  1.00  0.00     0.335 C
HETATM    4  O2  UNL     1      42.136  -2.435  28.504  1.00  0.00    -0.246 OA
HETATM    5  N4  UNL     1      43.413  -2.753  30.378  1.00  0.00    -0.332 N
ATOM      6  H4  UNL     1      44.283  -3.136  30.747  1.00  0.00     0.165 HD
ENDROOT
BRANCH   5   7
HETATM    7  C3  UNL     1      42.525  -2.124  31.316  1.00  0.00     0.041 C
HETATM    8  C4  UNL     1      41.978  -0.774  30.922  1.00  0.00     0.036 C
HETATM    9  C5  UNL     1      40.657  -0.596  31.655  1.00  0.00    -0.010 C
HETATM   10  C6  UNL     1      39.670  -1.524  30.967  1.00  0.00     0.025 C
HETATM   11  C10 UNL     1      40.820  -1.047  33.097  1.00  0.00     0.010 C
HETATM   12  C7  UNL     1      40.152  -2.919  31.136  1.00  0.00     0.089 C
HETATM   13 CL1  UNL     1      38.969  -3.910  32.017  1.00  0.00    -0.124 Cl
HETATM   14  C8  UNL     1      41.479  -3.056  31.823  1.00  0.00     0.036 C
HETATM   15  C9  UNL     1      41.584  -2.346  33.139  1.00  0.00    -0.004 C
HETATM   16  C11 UNL     1      43.042  -2.050  32.745  1.00  0.00     0.036 C
ENDBRANCH   5   7
BRANCH   1  17
HETATM   17  N2  UNL     1      43.949  -3.683  26.800  1.00  0.00    -0.250 N
HETATM   18  C1  UNL     1      44.548  -2.792  25.882  1.00  0.00     0.347 C
HETATM   19  N1  UNL     1      44.378  -2.945  24.468  1.00  0.00    -0.038 NA
HETATM   20  O1  UNL     1      45.250  -1.833  26.319  1.00  0.00    -0.249 OA
ATOM     21  H2  UNL     1      43.381  -4.456  26.452  1.00  0.00     0.191 HD
ENDBRANCH   1  17
TORSDOF 2
ENDMDL