MODEL 2
REMARK VINA RESULT: -5.820036208      2.202      3.355
REMARK  3 active torsions:
REMARK  status: ('A' for Active; 'I' for Inactive)
REMARK    1  A    between atoms: C5_5  and  C6_6
REMARK    2  A    between atoms: C6_6  and  C8_9
REMARK       I    between atoms: C8_9  and  N1_11
REMARK    3  A    between atoms: N1_11  and  N2_13
REMARK       I    between atoms: N2_13  and  C9_15
ROOT
HETATM    1  C8  UNL     1      42.907  -3.417  28.913  1.00  0.00     0.255 C
HETATM    2  O1  UNL     1      41.819  -3.276  28.314  1.00  0.00    -0.270 OA
HETATM    3  N1  UNL     1      44.053  -3.682  28.127  1.00  0.00    -0.266 N
ATOM      4  H1  UNL     1      44.947  -3.799  28.604  1.00  0.00     0.190 HD
ENDROOT
BRANCH   1   5
HETATM    5  C6  UNL     1      42.925  -3.298  30.385  1.00  0.00     0.101 C
HETATM    6  C7  UNL     1      43.623  -1.964  30.705  1.00  0.00     0.038 C
HETATM    7 BR1  UNL     1      41.107  -3.066  31.073  1.00  0.00    -0.075 Br
BRANCH   5   8
HETATM    8  C5  UNL     1      43.651  -4.367  31.106  1.00  0.00     0.022 A
HETATM    9  C2  UNL     1      43.396  -5.790  31.079  1.00  0.00    -0.042 A
HETATM   10  C1  UNL     1      44.564  -6.706  31.495  1.00  0.00     0.015 C
HETATM   11  C3  UNL     1      42.441  -6.518  30.189  1.00  0.00     0.015 C
HETATM   12  C4  UNL     1      42.877  -5.024  32.261  1.00  0.00     0.016 A
ENDBRANCH   5   8
ENDBRANCH   1   5
BRANCH   3  13
HETATM   13  N2  UNL     1      44.029  -3.791  26.749  1.00  0.00    -0.271 N
HETATM   14  C9  UNL     1      44.493  -2.785  25.865  1.00  0.00     0.200 C
HETATM   15  N3  UNL     1      45.039  -1.725  26.342  1.00  0.00    -0.372 N
HETATM   16  N4  UNL     1      44.370  -2.922  24.474  1.00  0.00    -0.062 NA
ATOM     17  H32 UNL     1      45.128  -1.625  27.353  1.00  0.00     0.158 HD
ATOM     18  H31 UNL     1      45.374  -1.001  25.706  1.00  0.00     0.158 HD
ATOM     19  H2  UNL     1      43.653  -4.648  26.343  1.00  0.00     0.189 HD
ENDBRANCH   3  13
TORSDOF 3
ENDMDL