MODEL 3
REMARK VINA RESULT: -5.947032051      4.331      6.568
REMARK  3 active torsions:
REMARK  status: ('A' for Active; 'I' for Inactive)
REMARK       I    between atoms: C2_4  and  N2_5
REMARK       I    between atoms: C2_4  and  N3_16
REMARK    1  A    between atoms: N2_5  and  C3_7
REMARK    2  A    between atoms: C3_7  and  C4_8
REMARK    3  A    between atoms: N3_16  and  N4_18
REMARK       I    between atoms: N4_18  and  C11_20
ROOT
HETATM    1  C1  UNL     1      41.229  -4.589  29.758  1.00  0.00     0.165 C
HETATM    2  N1  UNL     1      42.031  -3.967  28.731  1.00  0.00    -0.229 N
ATOM      3  H1  UNL     1      42.143  -4.415  27.821  1.00  0.00     0.177 HD
HETATM    4  C2  UNL     1      42.601  -2.849  28.973  1.00  0.00     0.688 C
HETATM    5  N2  UNL     1      42.416  -2.261  30.260  1.00  0.00    -0.225 N
ATOM      6  H2  UNL     1      42.654  -2.760  31.118  1.00  0.00     0.177 HD
HETATM    7  N3  UNL     1      43.390  -2.232  27.966  1.00  0.00    -0.129 N
ATOM      8  H3  UNL     1      43.676  -1.258  28.060  1.00  0.00     0.205 HD
ENDROOT
BRANCH   5   9
HETATM    9  C3  UNL     1      41.872  -0.919  30.284  1.00  0.00     0.143 C
BRANCH   9  10
HETATM   10  C4  UNL     1      41.068  -0.622  31.512  1.00  0.00     0.009 C
HETATM   11  C5  UNL     1      40.254  -1.837  31.982  1.00  0.00     0.013 C
HETATM   12  C6  UNL     1      39.228  -1.446  30.930  1.00  0.00     0.009 C
HETATM   13  C7  UNL     1      37.795  -1.445  31.406  1.00  0.00     0.086 C
HETATM   14  C10 UNL     1      39.729  -0.026  31.080  1.00  0.00    -0.003 C
HETATM   15 CL1  UNL     1      36.716  -1.765  30.006  1.00  0.00    -0.125 Cl
HETATM   16  C8  UNL     1      37.515  -0.041  31.884  1.00  0.00     0.021 C
HETATM   17  C9  UNL     1      38.889   0.525  32.176  1.00  0.00     0.007 C
ENDBRANCH   9  10
ENDBRANCH   5   9
BRANCH   7  18
HETATM   18  N4  UNL     1      43.767  -2.972  26.852  1.00  0.00    -0.240 N
HETATM   19  C11 UNL     1      44.194  -2.380  25.640  1.00  0.00     0.347 C
HETATM   20  N5  UNL     1      44.578  -3.140  24.508  1.00  0.00    -0.038 NA
HETATM   21  O1  UNL     1      44.225  -1.103  25.593  1.00  0.00    -0.249 OA
ATOM     22  H4  UNL     1      43.734  -3.990  26.910  1.00  0.00     0.192 HD
ENDBRANCH   7  18
TORSDOF 3
ENDMDL