MODEL 1
REMARK VINA RESULT: -6.334492936      0.000      0.000
REMARK  4 active torsions:
REMARK  status: ('A' for Active; 'I' for Inactive)
REMARK    1  A    between atoms: C4_6  and  C5_8
REMARK    2  A    between atoms: C5_8  and  N2_9
REMARK       I    between atoms: N2_9  and  C6_11
REMARK       I    between atoms: C6_11  and  N3_13
REMARK    3  A    between atoms: N3_13  and  N4_15
REMARK       I    between atoms: N4_15  and  C7_17
REMARK       I    between atoms: C7_17  and  N5_19
REMARK    4  A    between atoms: N5_19  and  C8_21
ROOT
HETATM    1  N2  UNL     1      42.701  -0.764  29.903  1.00  0.00    -0.338 N
ATOM      2  H2  UNL     1      42.672   0.225  29.653  1.00  0.00     0.164 HD
HETATM    3  C6  UNL     1      42.922  -1.170  31.244  1.00  0.00     0.335 C
HETATM    4  O1  UNL     1      42.956  -2.404  31.539  1.00  0.00    -0.246 OA
HETATM    5  N3  UNL     1      43.103  -0.169  32.238  1.00  0.00    -0.248 N
ATOM      6  H3  UNL     1      43.072   0.820  31.992  1.00  0.00     0.192 HD
ENDROOT
BRANCH   1   7
HETATM    7  C5  UNL     1      42.519  -1.790  28.896  1.00  0.00     0.174 C
BRANCH   7   8
HETATM    8  C4  UNL     1      43.902  -2.279  28.517  1.00  0.00     0.162 A
HETATM    9  C2  UNL     1      43.992  -2.668  27.023  1.00  0.00     0.027 A
HETATM   10  N1  UNL     1      43.921  -2.294  25.816  1.00  0.00    -0.398 N
HETATM   11  C3  UNL     1      44.179  -3.650  28.174  1.00  0.00     0.107 A
HETATM   12  C1  UNL     1      44.110  -3.271  24.785  1.00  0.00     0.145 C
ATOM     13  H1  UNL     1      43.732  -1.319  25.582  1.00  0.00     0.158 HD
HETATM   14  F1  UNL     1      44.939  -1.490  28.955  1.00  0.00    -0.234 F
ENDBRANCH   7   8
ENDBRANCH   1   7
BRANCH   5  15
HETATM   15  N4  UNL     1      43.321  -0.566  33.552  1.00  0.00    -0.248 N
HETATM   16  C7  UNL     1      44.316   0.065  34.331  1.00  0.00     0.335 C
HETATM   17  O2  UNL     1      45.003   0.986  33.822  1.00  0.00    -0.246 OA
HETATM   18  N5  UNL     1      44.574  -0.306  35.675  1.00  0.00    -0.334 N
ATOM     19  H5  UNL     1      44.025  -1.053  36.099  1.00  0.00     0.165 HD
ATOM     20  H4  UNL     1      42.760  -1.315  33.957  1.00  0.00     0.192 HD
BRANCH  18  21
HETATM   21  C8  UNL     1      45.595   0.349  36.460  1.00  0.00     0.023 C
HETATM   22  C9  UNL     1      45.560  -0.221  37.877  1.00  0.00     0.037 C
HETATM   23  C10 UNL     1      46.917   0.100  35.816  1.00  0.00     0.037 C
HETATM   24  C11 UNL     1      45.292   1.838  36.620  1.00  0.00     0.037 C
ENDBRANCH  18  21
ENDBRANCH   5  15
TORSDOF 4
ENDMDL