MODEL 4
REMARK VINA RESULT: -5.226480056      3.258      4.814
REMARK  4 active torsions:
REMARK  status: ('A' for Active; 'I' for Inactive)
REMARK    1  A    between atoms: C5_5  and  N1_6
REMARK    2  A    between atoms: N1_6  and  C6_8
REMARK    3  A    between atoms: C6_8  and  N2_10
REMARK    4  A    between atoms: N2_10  and  N3_12
ROOT
HETATM    1  N1  UNL     1      44.055  -2.893  29.355  1.00  0.00    -0.361 N
ATOM      2  H1  UNL     1      44.823  -2.789  30.018  1.00  0.00     0.162 HD
ENDROOT
BRANCH   1   3
HETATM    3  C5  UNL     1      43.334  -4.152  29.342  1.00  0.00     0.086 C
HETATM    4  C4  UNL     1      43.809  -4.999  30.496  1.00  0.00     0.035 C
HETATM    5  C2  UNL     1      42.671  -5.020  31.488  1.00  0.00    -0.029 C
HETATM    6  C1  UNL     1      42.716  -6.341  32.221  1.00  0.00     0.016 C
HETATM    7  C3  UNL     1      42.734  -3.919  32.497  1.00  0.00     0.016 C
HETATM    8  C9  UNL     1      41.456  -4.861  30.644  1.00  0.00     0.092 C
HETATM    9  C8  UNL     1      41.863  -3.982  29.489  1.00  0.00     0.046 C
HETATM   10 CL1  UNL     1      40.807  -6.429  30.094  1.00  0.00    -0.124 Cl
ENDBRANCH   1   3
BRANCH   1  11
HETATM   11  C6  UNL     1      43.760  -1.804  28.507  1.00  0.00     0.186 C
HETATM   12  S1  UNL     1      44.136  -1.913  26.924  1.00  0.00    -0.040 SA
BRANCH  11  13
HETATM   13  N2  UNL     1      43.151  -0.601  28.934  1.00  0.00    -0.274 N
ATOM     14  H2  UNL     1      43.591   0.280  28.667  1.00  0.00     0.189 HD
BRANCH  13  15
HETATM   15  N3  UNL     1      41.996  -0.546  29.692  1.00  0.00    -0.274 N
HETATM   16  C7  UNL     1      41.966  -0.382  30.975  1.00  0.00     0.215 C
HETATM   17  N4  UNL     1      40.689  -0.350  31.587  1.00  0.00    -0.065 NA
HETATM   18  N5  UNL     1      43.125  -0.238  31.779  1.00  0.00    -0.065 NA
ATOM     19  H3  UNL     1      41.105  -0.641  29.206  1.00  0.00     0.189 HD
ENDBRANCH  13  15
ENDBRANCH  11  13
ENDBRANCH   1  11
TORSDOF 4
ENDMDL