MODEL 1
REMARK VINA RESULT: -5.357902466      0.000      0.000
REMARK  3 active torsions:
REMARK  status: ('A' for Active; 'I' for Inactive)
REMARK    1  A    between atoms: C2_2  and  N1_4
REMARK       I    between atoms: C4_6  and  N3_8
REMARK       I    between atoms: C5_10  and  N4_11
REMARK       I    between atoms: C5_10  and  N6_15
REMARK    2  A    between atoms: N6_15  and  C7_17
REMARK    3  A    between atoms: C7_17  and  C8_18
ROOT
HETATM    1  N1  UNL     1      40.638  -0.093  31.483  1.00  0.00    -0.360 N
ATOM      2  H1  UNL     1      41.232   0.718  31.655  1.00  0.00     0.162 HD
HETATM    3  C4  UNL     1      41.003  -0.877  30.552  1.00  0.00     0.203 C
HETATM    4  N2  UNL     1      40.241  -2.017  30.246  1.00  0.00    -0.063 NA
HETATM    5  N3  UNL     1      42.173  -0.603  29.821  1.00  0.00    -0.163 N
ATOM      6  H3  UNL     1      42.342   0.366  29.550  1.00  0.00     0.187 HD
HETATM    7  C5  UNL     1      43.041  -1.474  29.469  1.00  0.00     0.689 C
HETATM    8  N4  UNL     1      42.825  -2.827  29.834  1.00  0.00    -0.126 N
ATOM      9  H4  UNL     1      42.798  -3.089  30.820  1.00  0.00     0.197 HD
HETATM   10  C6  UNL     1      42.648  -3.804  28.849  1.00  0.00     0.196 C
HETATM   11  N5  UNL     1      42.492  -4.631  28.040  1.00  0.00    -0.171 NA
HETATM   12  N6  UNL     1      44.174  -1.035  28.730  1.00  0.00    -0.225 N
ATOM     13  H6  UNL     1      45.062  -0.869  29.202  1.00  0.00     0.177 HD
ENDROOT
BRANCH  12  14
HETATM   14  C7  UNL     1      44.053  -0.823  27.286  1.00  0.00     0.149 C
BRANCH  14  15
HETATM   15  C8  UNL     1      45.090  -1.682  26.593  1.00  0.00     0.105 C
HETATM   16 BR1  UNL     1      44.271  -2.866  25.303  1.00  0.00    -0.095 Br
ENDBRANCH  14  15
ENDBRANCH  12  14
BRANCH   1  17
HETATM   17  C2  UNL     1      39.487  -0.225  32.313  1.00  0.00     0.076 C
HETATM   18  C1  UNL     1      38.497   0.919  32.155  1.00  0.00     0.032 C
HETATM   19  C3  UNL     1      39.969  -0.154  33.769  1.00  0.00     0.032 C
ENDBRANCH   1  17
TORSDOF 3
ENDMDL