MODEL 2
REMARK VINA RESULT: -6.332713164      3.190      4.217
REMARK  2 active torsions:
REMARK  status: ('A' for Active; 'I' for Inactive)
REMARK    1  A    between atoms: C2_2  and  C3_3
REMARK    2  A    between atoms: C5_5  and  N1_6
REMARK       I    between atoms: N1_6  and  C6_8
REMARK       I    between atoms: N3_10  and  C7_12
REMARK       I    between atoms: C7_12  and  N4_14
REMARK       I    between atoms: N4_14  and  C8_16
ROOT
HETATM    1  N1  UNL     1      40.972  -5.525  29.682  1.00  0.00    -0.360 N
ATOM      2  H1  UNL     1      40.102  -5.890  29.296  1.00  0.00     0.162 HD
HETATM    3  C6  UNL     1      41.691  -4.487  29.018  1.00  0.00     0.192 C
HETATM    4  N2  UNL     1      41.476  -3.118  29.327  1.00  0.00    -0.063 NA
HETATM    5  N3  UNL     1      42.562  -4.768  28.113  1.00  0.00    -0.283 N
ATOM      6  H3  UNL     1      42.731  -5.746  27.876  1.00  0.00     0.173 HD
HETATM    7  C7  UNL     1      43.284  -3.773  27.444  1.00  0.00     0.329 C
HETATM    8  O1  UNL     1      43.556  -2.694  28.035  1.00  0.00    -0.247 OA
HETATM    9  N4  UNL     1      43.722  -3.949  26.104  1.00  0.00    -0.283 N
ATOM     10  H4  UNL     1      43.507  -4.819  25.617  1.00  0.00     0.173 HD
HETATM   11  C8  UNL     1      44.459  -2.929  25.423  1.00  0.00     0.189 C
HETATM   12  N5  UNL     1      44.819  -3.158  24.220  1.00  0.00    -0.373 N
ATOM     13  H51 UNL     1      45.345  -2.431  23.735  1.00  0.00     0.158 HD
ATOM     14  H52 UNL     1      44.602  -4.029  23.734  1.00  0.00     0.158 HD
HETATM   15  N6  UNL     1      44.760  -1.720  26.097  1.00  0.00    -0.064 NA
ENDROOT
BRANCH   1  16
HETATM   16  C5  UNL     1      41.505  -6.036  30.902  1.00  0.00     0.086 C
HETATM   17  C4  UNL     1      41.147  -5.253  32.115  1.00  0.00     0.035 C
HETATM   18  C3  UNL     1      42.467  -5.038  32.863  1.00  0.00     0.028 C
HETATM   19  C10 UNL     1      43.389  -6.098  32.283  1.00  0.00     0.092 C
HETATM   20  C9  UNL     1      43.024  -6.070  30.812  1.00  0.00     0.046 C
HETATM   21 CL1  UNL     1      42.898  -7.688  32.918  1.00  0.00    -0.124 Cl
BRANCH  18  22
HETATM   22  C2  UNL     1      42.942  -3.680  32.519  1.00  0.00    -0.031 C
HETATM   23  C1  UNL     1      42.584  -2.637  33.241  1.00  0.00     0.007 C
ENDBRANCH  18  22
ENDBRANCH   1  16
TORSDOF 2
ENDMDL