MODEL 4
REMARK VINA RESULT: -7.160140938      4.430      5.457
REMARK  4 active torsions:
REMARK  status: ('A' for Active; 'I' for Inactive)
REMARK       I    between atoms: C1_4  and  N2_5
REMARK       I    between atoms: C1_4  and  N5_21
REMARK       I    between atoms: C2_7  and  N4_9
REMARK    1  A    between atoms: N4_9  and  C3_11
REMARK    2  A    between atoms: C16_25  and  C17_26
REMARK    3  A    between atoms: C17_26  and  C18_27
REMARK    4  A    between atoms: C18_27  and  N6_28
REMARK       I    between atoms: N6_28  and  C19_30
ROOT
HETATM    1  N1  UNL     1      38.655  -3.449  29.251  1.00  0.00    -0.234 N
ATOM      2  H11 UNL     1      38.473  -4.450  29.181  1.00  0.00     0.174 HD
ATOM      3  H12 UNL     1      38.008  -2.722  28.944  1.00  0.00     0.174 HD
HETATM    4  C1  UNL     1      39.787  -3.095  29.766  1.00  0.00     0.676 C
HETATM    5  N2  UNL     1      40.041  -1.698  29.863  1.00  0.00    -0.164 N
ATOM      6  H2  UNL     1      40.667  -1.265  29.183  1.00  0.00     0.187 HD
HETATM    7  C2  UNL     1      39.505  -0.950  30.789  1.00  0.00     0.203 C
HETATM    8  N3  UNL     1      39.886   0.419  30.713  1.00  0.00    -0.063 NA
HETATM    9  N4  UNL     1      38.626  -1.487  31.767  1.00  0.00    -0.355 N
ATOM     10  H4  UNL     1      38.599  -2.501  31.863  1.00  0.00     0.163 HD
HETATM   11  N5  UNL     1      40.672  -4.088  30.185  1.00  0.00    -0.213 N
HETATM   12  C13 UNL     1      40.460  -5.026  31.263  1.00  0.00     0.141 C
HETATM   13  C14 UNL     1      41.837  -5.343  31.821  1.00  0.00     0.022 C
HETATM   14  C15 UNL     1      42.757  -4.435  30.994  1.00  0.00     0.028 C
HETATM   15  C16 UNL     1      42.024  -4.447  29.666  1.00  0.00     0.107 C
ENDROOT
BRANCH  15  16
HETATM   16  C17 UNL     1      42.486  -3.458  28.693  1.00  0.00     0.070 C
BRANCH  16  17
HETATM   17  C18 UNL     1      43.692  -3.783  27.912  1.00  0.00     0.067 C
BRANCH  17  18
HETATM   18  N6  UNL     1      43.782  -3.523  26.542  1.00  0.00    -0.325 N
HETATM   19  C19 UNL     1      44.447  -2.613  25.731  1.00  0.00     0.332 C
HETATM   20  N7  UNL     1      44.306  -2.674  24.294  1.00  0.00    -0.040 NA
HETATM   21  O1  UNL     1      45.184  -1.714  26.163  1.00  0.00    -0.251 OA
ATOM     22  H6  UNL     1      43.213  -4.170  25.997  1.00  0.00     0.169 HD
ENDBRANCH  17  18
ENDBRANCH  16  17
ENDBRANCH  15  16
BRANCH   9  23
HETATM   23  C3  UNL     1      37.781  -0.729  32.624  1.00  0.00     0.033 C
HETATM   24  C4  UNL     1      37.128  -1.588  33.703  1.00  0.00     0.035 C
HETATM   25  C5  UNL     1      36.310  -0.709  34.603  1.00  0.00    -0.012 C
HETATM   26  C6  UNL     1      35.245   0.069  33.876  1.00  0.00     0.009 C
HETATM   27  C10 UNL     1      37.165   0.299  35.352  1.00  0.00     0.009 C
HETATM   28  C7  UNL     1      35.964   0.948  32.850  1.00  0.00    -0.012 C
HETATM   29  C8  UNL     1      36.871   1.925  33.514  1.00  0.00     0.009 C
HETATM   30  C12 UNL     1      36.666  -0.001  31.908  1.00  0.00     0.035 C
HETATM   31  C9  UNL     1      37.877   1.130  34.328  1.00  0.00    -0.012 C
HETATM   32  C11 UNL     1      38.651   0.279  33.379  1.00  0.00     0.035 C
ENDBRANCH   9  23
TORSDOF 4
ENDMDL