MODEL 5
REMARK VINA RESULT: -6.203315764      1.946      3.184
REMARK  8 active torsions:
REMARK  status: ('A' for Active; 'I' for Inactive)
REMARK    1  A    between atoms: C2_2  and  N1_4
REMARK    2  A    between atoms: N1_4  and  C4_6
REMARK    3  A    between atoms: C4_6  and  C5_7
REMARK    4  A    between atoms: C4_6  and  N6_17
REMARK    5  A    between atoms: C5_7  and  N2_8
REMARK    6  A    between atoms: N2_8  and  C6_10
REMARK    7  A    between atoms: C6_10  and  N3_12
REMARK       I    between atoms: N6_17  and  C8_19
REMARK    8  A    between atoms: C8_19  and  C9_21
ROOT
HETATM    1  C4  UNL     1      39.105  -0.942  31.598  1.00  0.00     0.197 C
ENDROOT
BRANCH   1   2
HETATM    2  N1  UNL     1      38.554  -0.343  32.718  1.00  0.00    -0.397 N
ATOM      3  H1  UNL     1      38.466  -0.929  33.548  1.00  0.00     0.155 HD
BRANCH   2   4
HETATM    4  C2  UNL     1      38.110   0.959  32.836  1.00  0.00     0.070 C
HETATM    5  C1  UNL     1      38.425   1.656  34.119  1.00  0.00     0.031 C
HETATM    6  C3  UNL     1      36.590   1.034  32.666  1.00  0.00     0.031 C
ENDBRANCH   2   4
ENDBRANCH   1   2
BRANCH   1   7
HETATM    7  C5  UNL     1      40.094  -0.110  30.846  1.00  0.00     0.168 C
BRANCH   7   8
HETATM    8  N2  UNL     1      40.872  -0.924  29.916  1.00  0.00    -0.363 N
ATOM      9  H2  UNL     1      40.412  -1.417  29.151  1.00  0.00     0.162 HD
BRANCH   8  10
HETATM   10  C6  UNL     1      42.272  -1.020  30.092  1.00  0.00     0.173 C
HETATM   11  S1  UNL     1      42.883  -1.486  31.555  1.00  0.00    -0.041 SA
BRANCH  10  12
HETATM   12  N3  UNL     1      43.169  -0.720  29.014  1.00  0.00    -0.310 N
HETATM   13  C7  UNL     1      43.297  -1.606  28.066  1.00  0.00     0.203 C
HETATM   14  N4  UNL     1      44.163  -1.395  26.961  1.00  0.00    -0.066 NA
HETATM   15  N5  UNL     1      42.579  -2.841  28.075  1.00  0.00    -0.066 NA
ATOM     16  H3  UNL     1      43.690   0.157  28.990  1.00  0.00     0.170 HD
ENDBRANCH  10  12
ENDBRANCH   8  10
ENDBRANCH   7   8
ENDBRANCH   1   7
BRANCH   1  17
HETATM   17  N6  UNL     1      38.057  -1.372  30.630  1.00  0.00    -0.338 N
HETATM   18  C8  UNL     1      37.015  -2.238  30.954  1.00  0.00     0.224 C
HETATM   19  O1  UNL     1      37.035  -2.646  32.185  1.00  0.00    -0.273 OA
ATOM     20  H6  UNL     1      38.106  -1.013  29.677  1.00  0.00     0.164 HD
BRANCH  18  21
HETATM   21  C9  UNL     1      35.931  -2.739  30.134  1.00  0.00     0.086 C
HETATM   22  C10 UNL     1      36.045  -2.550  28.652  1.00  0.00    -0.001 C
HETATM   23  C11 UNL     1      35.621  -1.218  28.132  1.00  0.00     0.010 C
HETATM   24  C15 UNL     1      35.016  -3.542  28.052  1.00  0.00     0.010 C
HETATM   25  C12 UNL     1      34.241  -0.872  28.619  1.00  0.00    -0.013 C
HETATM   26  C13 UNL     1      33.206  -1.857  28.109  1.00  0.00     0.009 C
HETATM   27  C18 UNL     1      34.219  -0.936  30.118  1.00  0.00     0.010 C
HETATM   28  C14 UNL     1      33.622  -3.225  28.550  1.00  0.00    -0.013 C
HETATM   29  C16 UNL     1      33.576  -3.302  30.044  1.00  0.00     0.010 C
HETATM   30  C17 UNL     1      34.586  -2.301  30.610  1.00  0.00    -0.001 C
ENDBRANCH  18  21
ENDBRANCH   1  17
TORSDOF 8
ENDMDL