MODEL 5
REMARK VINA RESULT: -6.728977715      2.316      3.627
REMARK  5 active torsions:
REMARK  status: ('A' for Active; 'I' for Inactive)
REMARK       I    between atoms: N1_2  and  C2_4
REMARK       I    between atoms: C2_4  and  N7_24
REMARK       I    between atoms: N2_5  and  C3_7
REMARK    1  A    between atoms: C3_7  and  C4_9
REMARK    2  A    between atoms: C4_9  and  C5_10
REMARK    3  A    between atoms: C4_9  and  N4_17
REMARK    4  A    between atoms: C5_10  and  N3_11
REMARK       I    between atoms: N4_17  and  C11_19
REMARK    5  A    between atoms: N7_24  and  C12_26
ROOT
HETATM    1  C1  UNL     1      36.808  -5.891  31.187  1.00  0.00     0.165 C
HETATM    2  N1  UNL     1      37.383  -5.315  29.970  1.00  0.00    -0.231 N
ATOM      3  H1  UNL     1      37.149  -5.700  29.055  1.00  0.00     0.177 HD
HETATM    4  C2  UNL     1      38.270  -4.211  30.083  1.00  0.00     0.676 C
HETATM    5  N2  UNL     1      39.489  -4.320  29.605  1.00  0.00    -0.158 N
ATOM      6  H2  UNL     1      39.819  -5.172  29.151  1.00  0.00     0.187 HD
HETATM    7  C3  UNL     1      40.315  -3.179  29.757  1.00  0.00     0.260 C
HETATM    8  O1  UNL     1      39.806  -2.052  29.557  1.00  0.00    -0.270 OA
HETATM    9  N7  UNL     1      37.781  -3.049  30.710  1.00  0.00    -0.222 N
ATOM     10  H7  UNL     1      38.354  -2.565  31.402  1.00  0.00     0.178 HD
ENDROOT
BRANCH   7  11
HETATM   11  C4  UNL     1      41.722  -3.303  30.144  1.00  0.00     0.203 C
BRANCH  11  12
HETATM   12  C5  UNL     1      42.240  -4.710  30.104  1.00  0.00     0.271 C
BRANCH  12  13
HETATM   13  N3  UNL     1      42.789  -5.293  31.249  1.00  0.00    -0.069 N
HETATM   14  C6  UNL     1      42.681  -4.478  32.473  1.00  0.00     0.272 C
HETATM   15  C7  UNL     1      44.086  -5.857  31.144  1.00  0.00     0.237 C
HETATM   16  C8  UNL     1      43.987  -7.353  31.469  1.00  0.00     0.029 C
HETATM   17  C9  UNL     1      42.776  -7.343  32.379  1.00  0.00     0.029 C
HETATM   18  C10 UNL     1      41.879  -6.423  31.576  1.00  0.00     0.237 C
ENDBRANCH  12  13
ENDBRANCH  11  12
BRANCH  11  19
HETATM   19  N4  UNL     1      42.476  -2.654  29.034  1.00  0.00    -0.350 N
HETATM   20  C11 UNL     1      43.107  -1.424  29.342  1.00  0.00     0.182 C
HETATM   21  N5  UNL     1      42.458  -0.525  29.988  1.00  0.00    -0.374 N
HETATM   22  N6  UNL     1      44.448  -1.203  28.919  1.00  0.00    -0.064 NA
ATOM     23  H52 UNL     1      41.496  -0.683  30.291  1.00  0.00     0.158 HD
ATOM     24  H51 UNL     1      42.912   0.361  30.210  1.00  0.00     0.158 HD
ATOM     25  H4  UNL     1      42.533  -3.072  28.105  1.00  0.00     0.163 HD
ENDBRANCH  11  19
ENDBRANCH   7  11
BRANCH   9  26
HETATM   26  C12 UNL     1      36.479  -2.543  30.379  1.00  0.00     0.099 C
HETATM   27  C13 UNL     1      35.972  -1.595  31.441  1.00  0.00     0.026 C
HETATM   28  C14 UNL     1      35.078  -0.521  30.915  1.00  0.00     0.002 C
HETATM   29  C15 UNL     1      33.974  -1.053  30.037  1.00  0.00     0.000 C
HETATM   30  C16 UNL     1      34.074  -0.552  28.617  1.00  0.00     0.000 C
HETATM   31  C17 UNL     1      34.419  -1.627  27.630  1.00  0.00     0.000 C
HETATM   32  C18 UNL     1      35.405  -2.633  28.121  1.00  0.00     0.002 C
HETATM   33  C19 UNL     1      36.473  -2.000  28.992  1.00  0.00     0.026 C
ENDBRANCH   9  26
TORSDOF 5
ENDMDL