MODEL 3
REMARK VINA RESULT: -6.499850943      1.328      1.786
REMARK  7 active torsions:
REMARK  status: ('A' for Active; 'I' for Inactive)
REMARK       I    between atoms: N1_2  and  C2_4
REMARK    1  A    between atoms: C2_4  and  C3_6
REMARK    2  A    between atoms: C3_6  and  C4_7
REMARK    3  A    between atoms: C4_7  and  C5_8
REMARK    4  A    between atoms: C5_8  and  C6_9
REMARK    5  A    between atoms: C6_9  and  C8_11
REMARK    6  A    between atoms: C14_20  and  O2_21
REMARK    7  A    between atoms: C15_23  and  C16_24
ROOT
HETATM    1  C8  UNL     1      41.636  -4.903  30.684  1.00  0.00     0.197 C
HETATM    2  N2  UNL     1      41.462  -6.336  30.771  1.00  0.00    -0.070 N
ATOM      3  H21 UNL     1      41.688  -6.708  31.694  1.00  0.00     0.277 HD
ATOM      4  H22 UNL     1      42.163  -6.854  30.241  1.00  0.00     0.277 HD
HETATM    5  C9  UNL     1      40.111  -6.642  30.360  1.00  0.00     0.233 C
HETATM    6  C10 UNL     1      39.181  -5.487  30.487  1.00  0.00     0.038 C
HETATM    7  C11 UNL     1      39.470  -4.585  31.685  1.00  0.00    -0.027 C
HETATM    8  C12 UNL     1      39.073  -5.434  32.897  1.00  0.00     0.016 C
HETATM    9  C13 UNL     1      40.968  -4.305  31.841  1.00  0.00     0.055 C
HETATM   10  C14 UNL     1      41.149  -2.850  32.129  1.00  0.00     0.139 C
HETATM   11  C15 UNL     1      40.612  -2.061  30.990  1.00  0.00     0.120 C
HETATM   12  C17 UNL     1      39.102  -2.157  31.084  1.00  0.00     0.011 C
HETATM   13  C18 UNL     1      38.345  -2.316  29.813  1.00  0.00     0.007 C
HETATM   14  C19 UNL     1      37.512  -3.350  30.575  1.00  0.00     0.011 C
HETATM   15  C20 UNL     1      38.583  -3.409  31.675  1.00  0.00    -0.032 C
HETATM   16  C21 UNL     1      37.833  -3.173  32.998  1.00  0.00     0.016 C
ENDROOT
BRANCH   1  17
HETATM   17  C6  UNL     1      43.083  -4.612  30.428  1.00  0.00     0.013 C
HETATM   18  C7  UNL     1      43.988  -5.637  31.040  1.00  0.00     0.012 C
BRANCH  17  19
HETATM   19  C5  UNL     1      43.313  -4.337  28.972  1.00  0.00     0.006 C
BRANCH  19  20
HETATM   20  C4  UNL     1      42.867  -3.019  28.451  1.00  0.00     0.010 C
BRANCH  20  21
HETATM   21  C3  UNL     1      43.839  -2.005  28.013  1.00  0.00     0.103 C
BRANCH  21  22
HETATM   22  C2  UNL     1      44.344  -2.192  26.618  1.00  0.00     0.217 C
HETATM   23  N1  UNL     1      43.676  -3.063  25.731  1.00  0.00    -0.365 N
HETATM   24  C1  UNL     1      44.090  -3.303  24.373  1.00  0.00     0.149 C
ATOM     25  H1  UNL     1      42.849  -3.553  26.073  1.00  0.00     0.161 HD
HETATM   26  O1  UNL     1      45.356  -1.584  26.219  1.00  0.00    -0.274 OA
ENDBRANCH  21  22
ENDBRANCH  20  21
ENDBRANCH  19  20
ENDBRANCH  17  19
ENDBRANCH   1  17
BRANCH  10  27
HETATM   27  O2  UNL     1      42.340  -2.458  32.658  1.00  0.00    -0.394 OA
ATOM     28  H2  UNL     1      42.527  -2.711  33.554  1.00  0.00     0.210 HD
ENDBRANCH  10  27
BRANCH  11  29
HETATM   29  C16 UNL     1      41.008  -0.629  30.974  1.00  0.00     0.179 C
HETATM   30  O3  UNL     1      42.143  -0.203  30.739  1.00  0.00    -0.648 OA
HETATM   31  O4  UNL     1      40.022   0.327  31.249  1.00  0.00    -0.648 OA
ENDBRANCH  11  29
TORSDOF 7
ENDMDL