MODEL 2
REMARK VINA RESULT: -6.718586507      1.890      3.535
REMARK  7 active torsions:
REMARK  status: ('A' for Active; 'I' for Inactive)
REMARK    1  A    between atoms: N2_4  and  N3_6
REMARK    2  A    between atoms: N3_6  and  C1_8
REMARK    3  A    between atoms: C4_11  and  C5_12
REMARK    4  A    between atoms: C6_15  and  C7_16
REMARK    5  A    between atoms: C7_16  and  C8_17
REMARK    6  A    between atoms: C7_16  and  C21_30
REMARK    7  A    between atoms: C21_30  and  O3_31
ROOT
HETATM    1  C7  UNL     1      39.971  -4.133  30.316  1.00  0.00     0.039 C
ENDROOT
BRANCH   1   2
HETATM    2  C6  UNL     1      41.341  -3.607  30.177  1.00  0.00     0.034 C
HETATM    3  C1  UNL     1      41.891  -3.232  28.878  1.00  0.00     0.106 C
HETATM    4  C2  UNL     1      43.152  -2.427  29.222  1.00  0.00     0.028 C
HETATM    5  C3  UNL     1      43.241  -2.469  30.763  1.00  0.00     0.018 C
HETATM    6  C4  UNL     1      41.704  -2.464  31.097  1.00  0.00     0.093 C
BRANCH   3   7
HETATM    7  N3  UNL     1      42.386  -4.311  28.034  1.00  0.00    -0.317 N
ATOM      8  H3  UNL     1      41.861  -5.183  27.964  1.00  0.00     0.182 HD
BRANCH   7   9
HETATM    9  N2  UNL     1      43.573  -4.158  27.321  1.00  0.00    -0.253 N
HETATM   10  N1  UNL     1      43.616  -4.231  26.049  1.00  0.00    -0.331 N
ATOM     11  H12 UNL     1      42.743  -4.408  25.552  1.00  0.00     0.178 HD
ATOM     12  H11 UNL     1      44.485  -4.120  25.527  1.00  0.00     0.178 HD
ATOM     13  H2  UNL     1      44.436  -3.982  27.834  1.00  0.00     0.207 HD
ENDBRANCH   7   9
ENDBRANCH   3   7
BRANCH   6  14
HETATM   14  C5  UNL     1      41.293  -1.124  30.672  1.00  0.00     0.177 C
HETATM   15  O1  UNL     1      40.246  -0.768  30.102  1.00  0.00    -0.648 OA
HETATM   16  O2  UNL     1      42.195  -0.055  30.927  1.00  0.00    -0.648 OA
ENDBRANCH   6  14
ENDBRANCH   1   2
BRANCH   1  17
HETATM   17  C8  UNL     1      38.973  -3.801  29.318  1.00  0.00    -0.016 C
HETATM   18  C9  UNL     1      37.663  -3.734  29.467  1.00  0.00    -0.078 C
HETATM   19  C10 UNL     1      36.909  -3.992  30.716  1.00  0.00     0.039 C
HETATM   20  C17 UNL     1      36.814  -3.402  28.292  1.00  0.00     0.019 C
HETATM   21  C11 UNL     1      35.516  -4.455  30.483  1.00  0.00    -0.002 C
HETATM   22  C12 UNL     1      34.399  -3.467  30.548  1.00  0.00    -0.005 C
HETATM   23  C19 UNL     1      35.108  -4.768  29.102  1.00  0.00    -0.004 C
HETATM   24  C13 UNL     1      34.571  -2.202  31.276  1.00  0.00     0.005 C
HETATM   25  C20 UNL     1      34.498  -3.359  29.051  1.00  0.00    -0.001 C
HETATM   26  C14 UNL     1      34.817  -1.005  30.376  1.00  0.00     0.001 C
HETATM   27  C15 UNL     1      35.890  -1.293  29.350  1.00  0.00     0.005 C
HETATM   28  C16 UNL     1      35.643  -2.524  28.566  1.00  0.00    -0.002 C
HETATM   29  C18 UNL     1      36.094  -4.744  28.017  1.00  0.00     0.014 C
ENDBRANCH   1  17
BRANCH   1  30
HETATM   30  C21 UNL     1      40.071  -5.656  30.536  1.00  0.00     0.173 C
BRANCH  30  31
HETATM   31  O3  UNL     1      40.364  -6.325  29.355  1.00  0.00    -0.400 OA
ATOM     32  H3  UNL     1      41.124  -6.888  29.451  1.00  0.00     0.209 HD
ENDBRANCH  30  31
ENDBRANCH   1  30
TORSDOF 7
ENDMDL