MODEL 2
REMARK VINA RESULT: -6.414137517      3.579      6.298
REMARK  6 active torsions:
REMARK  status: ('A' for Active; 'I' for Inactive)
REMARK       I    between atoms: N1_2  and  C2_4
REMARK       I    between atoms: C2_4  and  N5_17
REMARK       I    between atoms: N2_5  and  C3_7
REMARK       I    between atoms: C3_7  and  N4_11
REMARK    1  A    between atoms: N4_11  and  C4_13
REMARK       I    between atoms: N5_17  and  C8_19
REMARK    2  A    between atoms: C8_19  and  C9_21
REMARK    3  A    between atoms: C9_21  and  N6_23
REMARK       I    between atoms: N6_23  and  C11_25
REMARK    4  A    between atoms: C11_25  and  C12_27
REMARK    5  A    between atoms: C12_27  and  C13_28
REMARK    6  A    between atoms: C13_28  and  N7_29
ROOT
HETATM    1  C1  UNL     1      39.540   0.391  33.747  1.00  0.00     0.165 C
HETATM    2  N1  UNL     1      40.678  -0.522  33.898  1.00  0.00    -0.230 N
ATOM      3  H1  UNL     1      40.753  -1.113  34.725  1.00  0.00     0.177 HD
HETATM    4  C2  UNL     1      41.668  -0.577  32.896  1.00  0.00     0.695 C
HETATM    5  N2  UNL     1      41.360  -1.153  31.761  1.00  0.00    -0.023 N
ATOM      6  H2  UNL     1      40.433  -1.549  31.609  1.00  0.00     0.203 HD
HETATM    7  C3  UNL     1      42.350  -1.212  30.750  1.00  0.00     0.686 C
HETATM    8  N3  UNL     1      42.469  -0.296  29.839  1.00  0.00    -0.234 N
ATOM      9  H31 UNL     1      43.182  -0.338  29.111  1.00  0.00     0.174 HD
ATOM     10  H32 UNL     1      41.810   0.481  29.876  1.00  0.00     0.174 HD
HETATM   11  N4  UNL     1      43.281  -2.311  30.698  1.00  0.00    -0.218 N
ATOM     12  H4  UNL     1      44.149  -2.305  31.234  1.00  0.00     0.178 HD
HETATM   13  N5  UNL     1      42.961  -0.026  33.109  1.00  0.00    -0.158 N
ATOM     14  H5  UNL     1      43.671  -0.069  32.378  1.00  0.00     0.187 HD
HETATM   15  C8  UNL     1      43.244   0.587  34.356  1.00  0.00     0.258 C
HETATM   16  O1  UNL     1      42.379   0.647  35.261  1.00  0.00    -0.270 OA
ENDROOT
BRANCH  15  17
HETATM   17  C9  UNL     1      44.572   1.158  34.586  1.00  0.00     0.173 C
HETATM   18  C10 UNL     1      45.478   1.006  33.374  1.00  0.00     0.042 C
BRANCH  17  19
HETATM   19  N6  UNL     1      45.248   0.587  35.725  1.00  0.00    -0.348 N
HETATM   20  C11 UNL     1      45.693   1.374  36.845  1.00  0.00     0.219 C
HETATM   21  O2  UNL     1      45.463   2.593  36.774  1.00  0.00    -0.274 OA
ATOM     22  H6  UNL     1      45.416  -0.419  35.738  1.00  0.00     0.163 HD
BRANCH  20  23
HETATM   23  C12 UNL     1      46.375   0.781  37.991  1.00  0.00     0.130 C
BRANCH  23  24
HETATM   24  C13 UNL     1      46.771  -0.632  37.927  1.00  0.00     0.246 C
BRANCH  24  25
HETATM   25  N7  UNL     1      48.134  -0.976  37.734  1.00  0.00    -0.070 N
HETATM   26  C14 UNL     1      48.396  -1.214  36.337  1.00  0.00     0.272 C
HETATM   27  C15 UNL     1      48.458  -2.234  38.435  1.00  0.00     0.237 C
HETATM   28  C16 UNL     1      49.958  -2.286  38.316  1.00  0.00     0.029 C
HETATM   29  C17 UNL     1      50.416  -0.862  38.102  1.00  0.00     0.029 C
HETATM   30  C18 UNL     1      49.114  -0.103  38.274  1.00  0.00     0.237 C
ENDBRANCH  24  25
ENDBRANCH  23  24
ENDBRANCH  20  23
ENDBRANCH  17  19
ENDBRANCH  15  17
BRANCH  11  31
HETATM   31  C4  UNL     1      42.920  -3.422  29.848  1.00  0.00     0.036 C
HETATM   32  C5  UNL     1      43.345  -4.702  30.578  1.00  0.00     0.038 C
HETATM   33  C6  UNL     1      41.420  -3.519  29.669  1.00  0.00     0.038 C
HETATM   34  C7  UNL     1      43.648  -3.397  28.529  1.00  0.00     0.038 C
ENDBRANCH  11  31
TORSDOF 6
ENDMDL