MODEL 1
REMARK VINA RESULT: -6.486531159      0.000      0.000
REMARK  5 active torsions:
REMARK  status: ('A' for Active; 'I' for Inactive)
REMARK    1  A    between atoms: C2_2  and  C3_3
REMARK    2  A    between atoms: C2_2  and  N1_6
REMARK    3  A    between atoms: C10_13  and  N2_14
REMARK       I    between atoms: N2_14  and  C11_16
REMARK    4  A    between atoms: C13_22  and  C14_23
REMARK    5  A    between atoms: C13_22  and  C15_26
ROOT
HETATM    1  N1  UNL     1      41.823  -3.153  31.557  1.00  0.00    -0.009 N
HETATM    2  C4  UNL     1      41.270  -4.384  32.136  1.00  0.00     0.246 C
HETATM    3  C5  UNL     1      41.267  -5.635  31.354  1.00  0.00     0.029 C
HETATM    4  C6  UNL     1      42.709  -6.176  31.201  1.00  0.00     0.004 C
HETATM    5  C7  UNL     1      43.540  -4.898  31.185  1.00  0.00     0.034 C
HETATM    6  C8  UNL     1      42.748  -3.750  30.618  1.00  0.00     0.200 C
HETATM    7  C9  UNL     1      43.415  -3.008  29.559  1.00  0.00     0.059 C
HETATM    8  C10 UNL     1      42.382  -2.265  28.772  1.00  0.00     0.089 C
HETATM    9  C12 UNL     1      41.431  -1.606  29.658  1.00  0.00     0.075 C
HETATM   10  C13 UNL     1      40.871  -2.329  30.859  1.00  0.00     0.218 C
ENDROOT
BRANCH  10  11
HETATM   11  C14 UNL     1      39.685  -3.097  30.321  1.00  0.00     0.269 C
HETATM   12  N5  UNL     1      39.502  -3.352  28.930  1.00  0.00    -0.060 NA
HETATM   13  O3  UNL     1      38.766  -3.575  31.019  1.00  0.00    -0.274 OA
ENDBRANCH  10  11
BRANCH  10  14
HETATM   14  C15 UNL     1      40.299  -1.168  31.651  1.00  0.00     0.032 C
HETATM   15  C16 UNL     1      39.213  -1.265  32.560  1.00  0.00     0.007 C
HETATM   16  C17 UNL     1      38.073  -0.307  32.113  1.00  0.00     0.000 C
HETATM   17  C18 UNL     1      38.969   0.794  31.575  1.00  0.00     0.000 C
HETATM   18  C19 UNL     1      39.797  -0.115  30.640  1.00  0.00     0.007 C
ENDBRANCH  10  14
BRANCH   1  19
HETATM   19  C2  UNL     1      42.415  -2.507  32.696  1.00  0.00     0.205 C
HETATM   20  C1  UNL     1      42.301  -3.044  33.945  1.00  0.00     0.058 C
BRANCH  19  21
HETATM   21  C3  UNL     1      43.183  -1.292  32.772  1.00  0.00     0.234 C
HETATM   22  O1  UNL     1      43.279  -0.593  33.854  1.00  0.00    -0.643 OA
HETATM   23  O2  UNL     1      43.890  -0.713  31.775  1.00  0.00    -0.643 OA
ENDBRANCH  19  21
ENDBRANCH   1  19
BRANCH   8  24
HETATM   24  N2  UNL     1      42.981  -1.229  27.937  1.00  0.00    -0.360 N
HETATM   25  C11 UNL     1      44.393  -1.144  27.787  1.00  0.00     0.182 C
HETATM   26  N3  UNL     1      45.071  -0.602  28.766  1.00  0.00    -0.374 N
HETATM   27  N4  UNL     1      45.081  -1.607  26.653  1.00  0.00    -0.064 NA
ATOM     28  H32 UNL     1      44.571  -0.266  29.590  1.00  0.00     0.158 HD
ATOM     29  H31 UNL     1      46.083  -0.542  28.659  1.00  0.00     0.158 HD
ATOM     30  H2  UNL     1      42.382  -0.559  27.457  1.00  0.00     0.162 HD
ENDBRANCH   8  24
TORSDOF 5
ENDMDL