MODEL 5
REMARK VINA RESULT: -7.215777962      5.602      7.998
REMARK  5 active torsions:
REMARK  status: ('A' for Active; 'I' for Inactive)
REMARK       I    between atoms: C2_4  and  N2_5
REMARK       I    between atoms: C2_4  and  N8_27
REMARK    1  A    between atoms: N2_5  and  C3_7
REMARK    2  A    between atoms: C3_7  and  C4_8
REMARK    3  A    between atoms: C4_8  and  C5_9
REMARK    4  A    between atoms: C5_9  and  N3_10
REMARK       I    between atoms: N3_10  and  C6_12
REMARK       I    between atoms: N5_14  and  C7_16
REMARK       I    between atoms: C7_16  and  N7_20
REMARK    5  A    between atoms: N7_20  and  C8_22
ROOT
HETATM    1  C5  UNL     1      40.157  -1.544  32.014  1.00  0.00     0.124 C
ENDROOT
BRANCH   1   2
HETATM    2  C4  UNL     1      39.971  -0.070  32.228  1.00  0.00     0.040 C
BRANCH   2   3
HETATM    3  C3  UNL     1      38.804   0.512  31.488  1.00  0.00     0.139 C
BRANCH   3   4
HETATM    4  N2  UNL     1      37.865   1.058  32.413  1.00  0.00    -0.226 N
HETATM    5  C2  UNL     1      36.679   0.396  32.790  1.00  0.00     0.672 C
HETATM    6  N1  UNL     1      35.716   1.079  33.359  1.00  0.00    -0.231 N
HETATM    7  N8  UNL     1      36.431  -0.971  32.604  1.00  0.00    -0.209 N
HETATM    8  C1  UNL     1      35.885   2.505  33.593  1.00  0.00     0.165 C
ATOM      9  H1  UNL     1      34.853   0.613  33.636  1.00  0.00     0.177 HD
HETATM   10  C13 UNL     1      36.617  -2.173  33.374  1.00  0.00     0.145 C
HETATM   11  C15 UNL     1      35.874  -1.787  31.560  1.00  0.00     0.051 C
HETATM   12  C14 UNL     1      35.332  -2.675  32.692  1.00  0.00     0.052 C
HETATM   13  C16 UNL     1      36.833  -2.520  30.669  1.00  0.00     0.032 C
HETATM   14  C19 UNL     1      34.837  -1.155  30.696  1.00  0.00     0.032 C
HETATM   15  C17 UNL     1      36.622  -1.996  29.283  1.00  0.00     0.002 C
HETATM   16  C18 UNL     1      35.369  -1.160  29.290  1.00  0.00     0.002 C
ATOM     17  H2  UNL     1      38.062   1.971  32.822  1.00  0.00     0.177 HD
ENDBRANCH   3   4
ENDBRANCH   2   3
ENDBRANCH   1   2
BRANCH   1  18
HETATM   18  N3  UNL     1      41.412  -1.879  31.418  1.00  0.00    -0.364 N
HETATM   19  C6  UNL     1      41.473  -2.742  30.295  1.00  0.00     0.202 C
HETATM   20  N4  UNL     1      40.461  -2.664  29.302  1.00  0.00    -0.063 NA
HETATM   21  N5  UNL     1      42.434  -3.600  30.159  1.00  0.00    -0.164 N
HETATM   22  C7  UNL     1      42.525  -4.468  29.063  1.00  0.00     0.674 C
ATOM     23  H5  UNL     1      43.154  -3.647  30.880  1.00  0.00     0.187 HD
HETATM   24  N6  UNL     1      42.542  -5.734  29.241  1.00  0.00    -0.235 N
HETATM   25  N7  UNL     1      42.601  -3.982  27.725  1.00  0.00    -0.222 N
ATOM     26  H62 UNL     1      42.487  -6.082  30.198  1.00  0.00     0.174 HD
ATOM     27  H61 UNL     1      42.607  -6.366  28.443  1.00  0.00     0.174 HD
ATOM     28  H7  UNL     1      41.731  -3.818  27.219  1.00  0.00     0.178 HD
ATOM     29  H3  UNL     1      42.273  -1.493  31.805  1.00  0.00     0.162 HD
BRANCH  25  30
HETATM   30  C8  UNL     1      43.839  -3.712  27.055  1.00  0.00     0.099 C
HETATM   31  C9  UNL     1      43.705  -3.836  25.549  1.00  0.00     0.026 C
HETATM   32  C10 UNL     1      44.379  -2.618  24.967  1.00  0.00     0.002 C
HETATM   33  C11 UNL     1      44.080  -1.554  26.003  1.00  0.00     0.002 C
HETATM   34  C12 UNL     1      44.322  -2.286  27.312  1.00  0.00     0.026 C
ENDBRANCH  25  30
ENDBRANCH   1  18
TORSDOF 5
ENDMDL