MODEL 5
REMARK VINA RESULT: -5.902099061      4.566      5.672
REMARK  5 active torsions:
REMARK  status: ('A' for Active; 'I' for Inactive)
REMARK    1  A    between atoms: C2_2  and  N1_3
REMARK    2  A    between atoms: C5_6  and  N2_7
REMARK       I    between atoms: N2_7  and  C6_9
REMARK       I    between atoms: C6_9  and  N3_11
REMARK    3  A    between atoms: N3_11  and  C7_13
REMARK    4  A    between atoms: C7_13  and  N4_15
REMARK    5  A    between atoms: N4_15  and  C8_17
ROOT
HETATM    1  N2  UNL     1      43.472  -0.454  31.768  1.00  0.00    -0.338 N
ATOM      2  H2  UNL     1      44.074  -0.067  31.042  1.00  0.00     0.164 HD
HETATM    3  C6  UNL     1      43.576   0.018  33.106  1.00  0.00     0.322 C
HETATM    4  O1  UNL     1      42.801  -0.510  33.941  1.00  0.00    -0.247 OA
HETATM    5  N3  UNL     1      44.520   1.013  33.360  1.00  0.00    -0.286 N
ATOM      6  H3  UNL     1      45.076   1.334  32.567  1.00  0.00     0.173 HD
ENDROOT
BRANCH   5   7
HETATM    7  C7  UNL     1      44.777   1.609  34.588  1.00  0.00     0.175 C
HETATM    8  S1  UNL     1      43.596   2.571  35.302  1.00  0.00    -0.041 SA
BRANCH   7   9
HETATM    9  N4  UNL     1      45.980   1.426  35.301  1.00  0.00    -0.362 N
ATOM     10  H4  UNL     1      46.609   2.219  35.422  1.00  0.00     0.162 HD
BRANCH   9  11
HETATM   11  C8  UNL     1      46.358   0.110  35.879  1.00  0.00     0.083 C
HETATM   12  C9  UNL     1      46.349   0.251  37.345  1.00  0.00     0.025 C
HETATM   13  C10 UNL     1      46.979  -0.996  37.936  1.00  0.00     0.006 C
HETATM   14  C11 UNL     1      48.419  -0.962  37.563  1.00  0.00    -0.019 C
HETATM   15  C12 UNL     1      49.058   0.209  38.298  1.00  0.00     0.010 C
HETATM   16  C13 UNL     1      48.678  -0.874  36.097  1.00  0.00     0.006 C
HETATM   17  C14 UNL     1      47.577  -0.415  35.251  1.00  0.00     0.025 C
ENDBRANCH   9  11
ENDBRANCH   7   9
ENDBRANCH   5   7
BRANCH   1  18
HETATM   18  C5  UNL     1      42.522  -1.472  31.442  1.00  0.00     0.089 C
HETATM   19  C4  UNL     1      41.765  -1.098  30.167  1.00  0.00     0.055 C
HETATM   20  C3  UNL     1      42.525  -1.670  29.012  1.00  0.00     0.274 C
HETATM   21  N1  UNL     1      42.274  -3.120  28.929  1.00  0.00     0.088 N
HETATM   22  C16 UNL     1      42.314  -3.674  30.263  1.00  0.00     0.274 C
HETATM   23  C15 UNL     1      43.167  -2.822  31.197  1.00  0.00     0.055 C
BRANCH  21  24
HETATM   24  C2  UNL     1      43.272  -3.652  28.044  1.00  0.00     0.268 C
HETATM   25  C1  UNL     1      44.022  -2.616  27.271  1.00  0.00     0.037 C
ENDBRANCH  21  24
ENDBRANCH   1  18
TORSDOF 5
ENDMDL