MODEL 5
REMARK VINA RESULT: -6.308015050      4.471      5.629
REMARK  4 active torsions:
REMARK  status: ('A' for Active; 'I' for Inactive)
REMARK       I    between atoms: N1_2  and  C2_4
REMARK       I    between atoms: C2_4  and  N2_6
REMARK    1  A    between atoms: N2_6  and  C3_7
REMARK    2  A    between atoms: C3_7  and  C5_9
REMARK    3  A    between atoms: C5_9  and  N3_12
REMARK       I    between atoms: N3_12  and  C8_14
REMARK       I    between atoms: C8_14  and  N4_16
REMARK    4  A    between atoms: N4_16  and  C9_18
ROOT
HETATM    1  N3  UNL     1      43.689  -0.507  32.075  1.00  0.00    -0.332 N
ATOM      2  H3  UNL     1      44.502  -0.232  31.524  1.00  0.00     0.165 HD
HETATM    3  C8  UNL     1      43.484   0.027  33.389  1.00  0.00     0.317 C
HETATM    4  O2  UNL     1      42.461  -0.313  34.063  1.00  0.00    -0.247 OA
HETATM    5  N4  UNL     1      44.388   0.935  33.982  1.00  0.00    -0.333 N
ATOM      6  H4  UNL     1      45.222   1.225  33.471  1.00  0.00     0.165 HD
ENDROOT
BRANCH   1   7
HETATM    7  C5  UNL     1      42.738  -1.427  31.553  1.00  0.00     0.059 C
HETATM    8  C6  UNL     1      41.674  -0.698  30.785  1.00  0.00     0.041 C
HETATM    9  C7  UNL     1      42.160  -2.192  32.742  1.00  0.00     0.041 C
BRANCH   7  10
HETATM   10  C3  UNL     1      43.374  -2.478  30.619  1.00  0.00     0.192 C
HETATM   11  C4  UNL     1      42.228  -3.490  30.352  1.00  0.00     0.050 C
BRANCH  10  12
HETATM   12  N2  UNL     1      43.726  -1.936  29.389  1.00  0.00    -0.389 NA
HETATM   13  C2  UNL     1      44.064  -1.415  28.207  1.00  0.00     0.388 C
HETATM   14  N1  UNL     1      44.001  -2.207  26.965  1.00  0.00    -0.336 N
HETATM   15  O1  UNL     1      44.468  -0.231  27.979  1.00  0.00    -0.231 OA
HETATM   16  C1  UNL     1      44.366  -1.672  25.695  1.00  0.00     0.152 C
ATOM     17  H1  UNL     1      43.684  -3.175  27.017  1.00  0.00     0.164 HD
ENDBRANCH  10  12
ENDBRANCH   7  10
ENDBRANCH   1   7
BRANCH   5  18
HETATM   18  C9  UNL     1      44.148   1.446  35.282  1.00  0.00     0.039 C
HETATM   19  C10 UNL     1      43.647   0.393  36.270  1.00  0.00     0.036 C
HETATM   20  C11 UNL     1      42.952   1.308  37.287  1.00  0.00    -0.011 C
HETATM   21  C12 UNL     1      44.048   2.121  37.928  1.00  0.00     0.009 C
HETATM   22  C16 UNL     1      42.100   2.147  36.356  1.00  0.00     0.012 C
HETATM   23  C13 UNL     1      44.799   2.954  36.943  1.00  0.00    -0.011 C
HETATM   24  C14 UNL     1      43.892   3.738  36.013  1.00  0.00     0.012 C
HETATM   25  C17 UNL     1      45.433   1.986  35.934  1.00  0.00     0.036 C
HETATM   26  C15 UNL     1      43.162   2.572  35.333  1.00  0.00     0.014 C
ENDBRANCH   5  18
TORSDOF 4
ENDMDL