MODEL 2
REMARK VINA RESULT: -5.365051548      1.740      2.708
REMARK  6 active torsions:
REMARK  status: ('A' for Active; 'I' for Inactive)
REMARK       I    between atoms: C2_4  and  N2_5
REMARK       I    between atoms: C2_4  and  N3_11
REMARK    1  A    between atoms: N2_5  and  C3_7
REMARK    2  A    between atoms: C9_14  and  C10_15
REMARK    3  A    between atoms: C10_15  and  N4_16
REMARK    4  A    between atoms: N4_16  and  C11_18
REMARK    5  A    between atoms: C11_18  and  N5_20
REMARK    6  A    between atoms: N5_20  and  C12_22
ROOT
HETATM    1  C1  UNL     1      40.030   3.144  37.028  1.00  0.00     0.165 C
HETATM    2  N1  UNL     1      41.190   2.612  36.391  1.00  0.00    -0.231 N
ATOM      3  H1  UNL     1      41.093   2.378  35.403  1.00  0.00     0.177 HD
HETATM    4  C2  UNL     1      42.331   2.393  36.906  1.00  0.00     0.672 C
HETATM    5  N2  UNL     1      42.559   2.684  38.263  1.00  0.00    -0.218 N
ATOM      6  H2  UNL     1      42.116   2.076  38.952  1.00  0.00     0.178 HD
HETATM    7  N3  UNL     1      43.364   1.857  36.119  1.00  0.00    -0.218 N
HETATM    8  C7  UNL     1      43.948   2.591  35.017  1.00  0.00     0.141 C
HETATM    9  C8  UNL     1      44.164   1.717  33.805  1.00  0.00     0.027 C
HETATM   10  C9  UNL     1      43.481   0.398  34.066  1.00  0.00     0.006 C
HETATM   11  C15 UNL     1      44.180  -0.267  35.210  1.00  0.00     0.027 C
HETATM   12  C16 UNL     1      43.822   0.506  36.470  1.00  0.00     0.141 C
ENDROOT
BRANCH   5  13
HETATM   13  C3  UNL     1      43.365   3.769  38.761  1.00  0.00     0.036 C
HETATM   14  C4  UNL     1      43.365   4.991  37.897  1.00  0.00     0.038 C
HETATM   15  C5  UNL     1      44.790   3.285  38.910  1.00  0.00     0.038 C
HETATM   16  C6  UNL     1      42.817   4.141  40.143  1.00  0.00     0.038 C
ENDBRANCH   5  13
BRANCH  10  17
HETATM   17  C10 UNL     1      43.362  -0.455  32.847  1.00  0.00     0.126 C
BRANCH  17  18
HETATM   18  N4  UNL     1      41.944  -0.492  32.474  1.00  0.00    -0.367 N
ATOM     19  H4  UNL     1      41.210  -0.472  33.182  1.00  0.00     0.161 HD
BRANCH  18  20
HETATM   20  C11 UNL     1      41.634  -0.555  31.098  1.00  0.00     0.167 C
HETATM   21  S1  UNL     1      40.059  -0.591  30.656  1.00  0.00    -0.041 SA
BRANCH  20  22
HETATM   22  N5  UNL     1      42.648  -0.586  30.124  1.00  0.00    -0.363 N
ATOM     23  H5  UNL     1      43.300   0.193  30.038  1.00  0.00     0.162 HD
BRANCH  22  24
HETATM   24  C12 UNL     1      42.759  -1.726  29.249  1.00  0.00     0.075 C
HETATM   25  C13 UNL     1      43.231  -2.906  30.068  1.00  0.00     0.032 C
HETATM   26  C14 UNL     1      43.732  -1.392  28.143  1.00  0.00     0.032 C
ENDBRANCH  22  24
ENDBRANCH  20  22
ENDBRANCH  18  20
ENDBRANCH  17  18
ENDBRANCH  10  17
TORSDOF 6
ENDMDL