MODEL 3
REMARK VINA RESULT: -6.101445238      4.185      5.463
REMARK  6 active torsions:
REMARK  status: ('A' for Active; 'I' for Inactive)
REMARK    1  A    between atoms: C2_2  and  N1_4
REMARK       I    between atoms: N1_4  and  C4_6
REMARK       I    between atoms: C4_6  and  N2_8
REMARK    2  A    between atoms: N2_8  and  N3_10
REMARK    3  A    between atoms: N3_10  and  C5_12
REMARK    4  A    between atoms: C5_12  and  N4_14
REMARK    5  A    between atoms: N4_14  and  C6_16
REMARK    6  A    between atoms: C6_16  and  C7_17
ROOT
HETATM    1  C5  UNL     1      42.643  -1.090  31.766  1.00  0.00     0.186 C
HETATM    2  S1  UNL     1      42.612  -2.709  31.941  1.00  0.00    -0.040 SA
ENDROOT
BRANCH   1   3
HETATM    3  N3  UNL     1      42.497  -0.471  30.491  1.00  0.00    -0.272 N
ATOM      4  H3  UNL     1      42.476   0.544  30.398  1.00  0.00     0.189 HD
BRANCH   3   5
HETATM    5  N2  UNL     1      42.384  -1.299  29.375  1.00  0.00    -0.249 N
HETATM    6  C4  UNL     1      43.497  -1.432  28.509  1.00  0.00     0.335 C
HETATM    7  N1  UNL     1      43.392  -2.276  27.383  1.00  0.00    -0.338 N
HETATM    8  O1  UNL     1      44.553  -0.805  28.749  1.00  0.00    -0.246 OA
ATOM      9  H1  UNL     1      42.508  -2.766  27.243  1.00  0.00     0.164 HD
ATOM     10  H2  UNL     1      41.516  -1.799  29.185  1.00  0.00     0.192 HD
BRANCH   7  11
HETATM   11  C2  UNL     1      44.443  -2.500  26.410  1.00  0.00     0.078 C
HETATM   12  C1  UNL     1      44.114  -3.878  25.800  1.00  0.00     0.032 C
HETATM   13  C3  UNL     1      44.325  -1.438  25.346  1.00  0.00     0.032 C
ENDBRANCH   7  11
ENDBRANCH   3   5
ENDBRANCH   1   3
BRANCH   1  14
HETATM   14  N4  UNL     1      42.829  -0.251  32.893  1.00  0.00    -0.365 N
ATOM     15  H4  UNL     1      42.060  -0.052  33.534  1.00  0.00     0.161 HD
BRANCH  14  16
HETATM   16  C6  UNL     1      44.152   0.317  33.109  1.00  0.00     0.131 C
BRANCH  16  17
HETATM   17  C7  UNL     1      44.322   0.676  34.572  1.00  0.00    -0.023 C
HETATM   18  C8  UNL     1      45.794   0.617  34.915  1.00  0.00     0.015 C
HETATM   19  C9  UNL     1      45.933   0.885  36.396  1.00  0.00    -0.013 C
HETATM   20  C10 UNL     1      45.186  -0.114  37.226  1.00  0.00     0.009 C
HETATM   21  C14 UNL     1      45.425   2.303  36.609  1.00  0.00     0.009 C
HETATM   22  C11 UNL     1      43.712  -0.042  36.866  1.00  0.00    -0.013 C
HETATM   23  C12 UNL     1      43.167   1.344  37.086  1.00  0.00     0.009 C
HETATM   24  C16 UNL     1      43.601  -0.368  35.390  1.00  0.00     0.015 C
HETATM   25  C13 UNL     1      43.959   2.364  36.310  1.00  0.00    -0.013 C
HETATM   26  C15 UNL     1      43.759   2.041  34.833  1.00  0.00     0.015 C
ENDBRANCH  16  17
ENDBRANCH  14  16
ENDBRANCH   1  14
TORSDOF 6
ENDMDL