MODEL 2
REMARK VINA RESULT: -6.412320048      1.610      7.859
REMARK  5 active torsions:
REMARK  status: ('A' for Active; 'I' for Inactive)
REMARK    1  A    between atoms: C3_3  and  C4_4
REMARK    2  A    between atoms: C4_4  and  C7_7
REMARK    3  A    between atoms: C7_7  and  N1_9
REMARK       I    between atoms: N1_9  and  C9_11
REMARK       I    between atoms: C9_11  and  N2_13
REMARK    4  A    between atoms: N2_13  and  C10_15
REMARK    5  A    between atoms: C17_22  and  C18_23
REMARK       I    between atoms: C18_23  and  N3_25
ROOT
HETATM    1  C1  UNL     1      48.947  -1.212  35.674  1.00  0.00     0.112 C
HETATM    2  C2  UNL     1      47.709  -0.511  36.021  1.00  0.00    -0.110 C
HETATM    3  C3  UNL     1      46.697   0.049  36.318  1.00  0.00    -0.096 C
ENDROOT
BRANCH   3   4
HETATM    4  C4  UNL     1      45.453   0.718  36.698  1.00  0.00     0.036 C
HETATM    5  C5  UNL     1      44.496  -0.303  37.257  1.00  0.00     0.031 C
HETATM    6  C6  UNL     1      45.736   1.738  37.767  1.00  0.00     0.031 C
BRANCH   4   7
HETATM    7  C7  UNL     1      44.840   1.316  35.462  1.00  0.00     0.102 C
HETATM    8  C8  UNL     1      44.163   2.602  35.855  1.00  0.00     0.034 C
BRANCH   7   9
HETATM    9  N1  UNL     1      43.949   0.381  34.837  1.00  0.00    -0.337 N
HETATM   10  C9  UNL     1      43.695   0.344  33.454  1.00  0.00     0.316 C
HETATM   11  O1  UNL     1      44.270   1.165  32.712  1.00  0.00    -0.247 OA
HETATM   12  N2  UNL     1      42.813  -0.587  32.865  1.00  0.00    -0.337 N
ATOM     13  H2  UNL     1      42.344  -1.257  33.474  1.00  0.00     0.164 HD
ATOM     14  H1  UNL     1      43.471  -0.297  35.431  1.00  0.00     0.164 HD
BRANCH  12  15
HETATM   15  C10 UNL     1      42.537  -0.643  31.445  1.00  0.00     0.103 C
HETATM   16  C11 UNL     1      43.314  -1.809  30.870  1.00  0.00     0.010 C
HETATM   17  C12 UNL     1      43.185  -1.858  29.365  1.00  0.00     0.007 C
HETATM   18  C16 UNL     1      42.532  -2.973  31.439  1.00  0.00     0.012 C
HETATM   19  C13 UNL     1      42.236  -2.893  28.876  1.00  0.00     0.001 C
HETATM   20  C14 UNL     1      40.937  -2.971  29.616  1.00  0.00     0.005 C
HETATM   21  C15 UNL     1      41.114  -2.534  31.077  1.00  0.00     0.001 C
HETATM   22  C17 UNL     1      41.139  -1.026  31.094  1.00  0.00     0.105 C
BRANCH  22  23
HETATM   23  C18 UNL     1      40.108  -0.437  31.937  1.00  0.00     0.223 C
HETATM   24  O2  UNL     1      40.001  -0.801  33.126  1.00  0.00    -0.273 OA
HETATM   25  N3  UNL     1      39.217   0.538  31.449  1.00  0.00    -0.365 N
HETATM   26  C19 UNL     1      38.203   1.102  32.313  1.00  0.00     0.149 C
ATOM     27  H3  UNL     1      39.287   0.849  30.480  1.00  0.00     0.161 HD
ENDBRANCH  22  23
ENDBRANCH  12  15
ENDBRANCH   7   9
ENDBRANCH   4   7
ENDBRANCH   3   4
TORSDOF 5
ENDMDL