MODEL 4
REMARK VINA RESULT: -6.368130701      2.854      4.161
REMARK  6 active torsions:
REMARK  status: ('A' for Active; 'I' for Inactive)
REMARK       I    between atoms: N1_2  and  C2_4
REMARK    1  A    between atoms: C2_4  and  C3_6
REMARK    2  A    between atoms: C6_9  and  C7_10
REMARK    3  A    between atoms: C7_10  and  N2_11
REMARK    4  A    between atoms: N2_11  and  C8_13
REMARK    5  A    between atoms: C8_13  and  N3_15
REMARK       I    between atoms: N3_15  and  C9_17
REMARK       I    between atoms: C9_17  and  N4_19
REMARK    6  A    between atoms: N4_19  and  C10_21
ROOT
HETATM    1  N2  UNL     1      41.138  -2.429  31.683  1.00  0.00    -0.367 N
ATOM      2  H2  UNL     1      41.764  -3.219  31.842  1.00  0.00     0.161 HD
ENDROOT
BRANCH   1   3
HETATM    3  C7  UNL     1      40.307  -2.562  30.535  1.00  0.00     0.126 C
BRANCH   3   4
HETATM    4  C6  UNL     1      41.220  -2.971  29.351  1.00  0.00     0.003 C
HETATM    5  C5  UNL     1      42.150  -1.856  28.986  1.00  0.00     0.007 C
HETATM    6  C4  UNL     1      43.610  -2.257  29.148  1.00  0.00     0.014 C
HETATM    7  C3  UNL     1      43.941  -3.495  28.380  1.00  0.00     0.078 C
HETATM    8  C15 UNL     1      42.870  -4.530  28.498  1.00  0.00     0.014 C
HETATM    9  C14 UNL     1      42.024  -4.202  29.711  1.00  0.00     0.007 C
BRANCH   7  10
HETATM   10  C2  UNL     1      44.209  -3.109  26.975  1.00  0.00     0.221 C
HETATM   11  N1  UNL     1      43.787  -3.978  25.950  1.00  0.00    -0.365 N
HETATM   12  C1  UNL     1      44.037  -3.623  24.576  1.00  0.00     0.149 C
ATOM     13  H1  UNL     1      43.311  -4.850  26.178  1.00  0.00     0.161 HD
HETATM   14  O1  UNL     1      44.796  -2.034  26.704  1.00  0.00    -0.273 OA
ENDBRANCH   7  10
ENDBRANCH   3   4
ENDBRANCH   1   3
BRANCH   1  15
HETATM   15  C8  UNL     1      41.245  -1.423  32.615  1.00  0.00     0.175 C
HETATM   16  S1  UNL     1      39.879  -0.360  32.643  1.00  0.00    -0.041 SA
BRANCH  15  17
HETATM   17  N3  UNL     1      42.204  -1.078  33.530  1.00  0.00    -0.286 N
HETATM   18  C9  UNL     1      43.235  -0.149  33.575  1.00  0.00     0.323 C
HETATM   19  O2  UNL     1      43.532   0.648  32.704  1.00  0.00    -0.247 OA
HETATM   20  N4  UNL     1      44.057  -0.112  34.793  1.00  0.00    -0.335 N
ATOM     21  H4  UNL     1      43.854  -0.757  35.556  1.00  0.00     0.165 HD
ATOM     22  H3  UNL     1      42.148  -1.638  34.382  1.00  0.00     0.173 HD
BRANCH  20  23
HETATM   23  C10 UNL     1      45.149   0.823  34.923  1.00  0.00     0.023 C
HETATM   24  C11 UNL     1      45.789   1.033  33.565  1.00  0.00     0.037 C
HETATM   25  C12 UNL     1      46.143   0.272  35.920  1.00  0.00     0.037 C
HETATM   26  C13 UNL     1      44.578   2.144  35.406  1.00  0.00     0.037 C
ENDBRANCH  20  23
ENDBRANCH  15  17
ENDBRANCH   1  15
TORSDOF 6
ENDMDL