MODEL 1
REMARK VINA RESULT: -6.701845797      0.000      0.000
REMARK  6 active torsions:
REMARK  status: ('A' for Active; 'I' for Inactive)
REMARK       I    between atoms: N1_2  and  C2_4
REMARK       I    between atoms: C2_4  and  N3_8
REMARK    1  A    between atoms: N3_8  and  C3_10
REMARK    2  A    between atoms: C3_10  and  C17_29
REMARK    3  A    between atoms: C6_13  and  C7_14
REMARK    4  A    between atoms: C7_14  and  C8_15
REMARK    5  A    between atoms: C8_15  and  N4_16
REMARK    6  A    between atoms: N5_20  and  C11_23
ROOT
HETATM    1  C3  UNL     1      41.756  -2.437  30.560  1.00  0.00     0.053 C
HETATM    2  C4  UNL     1      41.909  -1.549  29.381  1.00  0.00     0.038 C
HETATM    3  C5  UNL     1      43.210  -1.557  28.681  1.00  0.00     0.059 C
HETATM    4  C6  UNL     1      43.675  -2.901  28.056  1.00  0.00     0.009 C
HETATM    5  N5  UNL     1      42.986  -3.868  28.680  1.00  0.00    -0.357 N
HETATM    6  C9  UNL     1      43.618  -4.105  29.992  1.00  0.00     0.131 C
HETATM    7  C10 UNL     1      43.089  -3.114  30.900  1.00  0.00     0.052 C
ENDROOT
BRANCH   1   8
HETATM    8  N3  UNL     1      41.684  -1.496  31.700  1.00  0.00    -0.217 N
HETATM    9  C2  UNL     1      42.792  -0.822  32.226  1.00  0.00     0.667 C
HETATM   10  N1  UNL     1      42.716  -0.290  33.540  1.00  0.00    -0.231 N
HETATM   11  N2  UNL     1      43.877  -0.664  31.569  1.00  0.00    -0.235 N
HETATM   12  C1  UNL     1      42.912  -1.189  34.650  1.00  0.00     0.165 C
ATOM     13  H1  UNL     1      42.527   0.700  33.695  1.00  0.00     0.177 HD
ATOM     14  H22 UNL     1      44.685  -0.173  31.952  1.00  0.00     0.174 HD
ATOM     15  H21 UNL     1      43.932  -1.046  30.624  1.00  0.00     0.174 HD
ATOM     16  H3  UNL     1      40.773  -1.328  32.127  1.00  0.00     0.178 HD
ENDBRANCH   1   8
BRANCH   1  17
HETATM   17  C17 UNL     1      40.614  -3.384  30.590  1.00  0.00     0.019 C
HETATM   18  C16 UNL     1      39.568  -3.046  29.511  1.00  0.00     0.018 C
HETATM   19  C15 UNL     1      38.599  -2.057  29.943  1.00  0.00     0.032 C
HETATM   20  C11 UNL     1      38.964  -1.003  31.002  1.00  0.00    -0.006 C
HETATM   21  C14 UNL     1      37.606  -2.891  30.802  1.00  0.00     0.015 C
HETATM   22  C12 UNL     1      38.606  -1.568  32.321  1.00  0.00     0.058 C
HETATM   23  C13 UNL     1      38.502  -3.054  31.995  1.00  0.00    -0.004 C
HETATM   24  C18 UNL     1      39.830  -3.712  31.776  1.00  0.00    -0.008 C
HETATM   25  C19 UNL     1      39.449  -5.219  31.780  1.00  0.00     0.011 C
ENDBRANCH   1  17
BRANCH   4  26
HETATM   26  C7  UNL     1      44.059  -2.691  26.668  1.00  0.00     0.025 C
BRANCH  26  27
HETATM   27  C8  UNL     1      44.082  -3.763  25.654  1.00  0.00     0.259 C
BRANCH  27  28
HETATM   28  N4  UNL     1      44.570  -3.488  24.345  1.00  0.00    -0.076 N
ATOM     29  H43 UNL     1      44.205  -4.194  23.707  1.00  0.00     0.274 HD
ATOM     30  H42 UNL     1      44.111  -2.645  23.999  1.00  0.00     0.274 HD
ATOM     31  H41 UNL     1      45.574  -3.398  24.189  1.00  0.00     0.274 HD
ENDBRANCH  27  28
ENDBRANCH  26  27
ENDBRANCH   4  26
TORSDOF 6
ENDMDL