MODEL 2
REMARK VINA RESULT: -7.284003989      1.187      2.133
REMARK  6 active torsions:
REMARK  status: ('A' for Active; 'I' for Inactive)
REMARK    1  A    between atoms: C2_2  and  C3_3
REMARK    2  A    between atoms: C3_3  and  C4_4
REMARK       I    between atoms: C4_4  and  N1_6
REMARK    3  A    between atoms: N1_6  and  C5_8
REMARK    4  A    between atoms: C5_8  and  N2_10
REMARK    5  A    between atoms: N2_10  and  N3_12
REMARK       I    between atoms: N3_12  and  C6_14
REMARK       I    between atoms: C6_14  and  N4_16
REMARK    6  A    between atoms: N4_16  and  C7_18
ROOT
HETATM    1  N3  UNL     1      43.789  -0.543  31.398  1.00  0.00    -0.249 N
ATOM      2  H3  UNL     1      44.801  -0.536  31.266  1.00  0.00     0.192 HD
HETATM    3  C6  UNL     1      43.205  -0.170  32.632  1.00  0.00     0.335 C
HETATM    4  O2  UNL     1      41.967  -0.174  32.811  1.00  0.00    -0.246 OA
HETATM    5  N4  UNL     1      44.061   0.223  33.695  1.00  0.00    -0.337 N
ATOM      6  H4  UNL     1      45.070   0.225  33.544  1.00  0.00     0.164 HD
ENDROOT
BRANCH   1   7
HETATM    7  N2  UNL     1      42.922  -0.924  30.366  1.00  0.00    -0.272 N
ATOM      8  H2  UNL     1      42.164  -0.311  30.066  1.00  0.00     0.189 HD
BRANCH   7   9
HETATM    9  C5  UNL     1      43.127  -2.177  29.751  1.00  0.00     0.193 C
HETATM   10  S1  UNL     1      43.095  -3.518  30.660  1.00  0.00    -0.039 SA
BRANCH   9  11
HETATM   11  N1  UNL     1      43.349  -2.260  28.366  1.00  0.00    -0.302 N
HETATM   12  C4  UNL     1      44.256  -1.389  27.648  1.00  0.00     0.227 C
HETATM   13  O1  UNL     1      44.835  -0.548  28.350  1.00  0.00    -0.273 OA
ATOM     14  H1  UNL     1      42.845  -2.972  27.839  1.00  0.00     0.171 HD
BRANCH  12  15
HETATM   15  C3  UNL     1      44.414  -1.559  26.214  1.00  0.00     0.129 C
BRANCH  15  16
HETATM   16  C2  UNL     1      44.156  -2.879  25.690  1.00  0.00    -0.028 C
HETATM   17  C1  UNL     1      44.139  -3.334  24.488  1.00  0.00     0.007 C
ENDBRANCH  15  16
ENDBRANCH  12  15
ENDBRANCH   9  11
ENDBRANCH   7   9
ENDBRANCH   1   7
BRANCH   5  18
HETATM   18  C7  UNL     1      43.544   0.620  34.988  1.00  0.00     0.091 C
HETATM   19  C8  UNL     1      43.467   2.102  35.034  1.00  0.00     0.030 C
HETATM   20  C9  UNL     1      43.801   2.592  36.428  1.00  0.00    -0.012 C
HETATM   21  C10 UNL     1      45.279   2.752  36.625  1.00  0.00     0.009 C
HETATM   22  C14 UNL     1      43.128   1.686  37.400  1.00  0.00     0.010 C
HETATM   23  C11 UNL     1      45.975   1.471  37.006  1.00  0.00    -0.013 C
HETATM   24  C12 UNL     1      45.242   0.808  38.155  1.00  0.00     0.010 C
HETATM   25  C16 UNL     1      45.852   0.407  35.934  1.00  0.00     0.011 C
HETATM   26  C13 UNL     1      43.966   0.397  37.449  1.00  0.00    -0.008 C
HETATM   27  C15 UNL     1      44.410   0.015  36.051  1.00  0.00     0.013 C
ENDBRANCH   5  18
TORSDOF 6
ENDMDL