MODEL 3
REMARK VINA RESULT: -6.617575061      3.103      8.149
REMARK  4 active torsions:
REMARK  status: ('A' for Active; 'I' for Inactive)
REMARK    1  A    between atoms: C2_2  and  N2_6
REMARK    2  A    between atoms: N2_6  and  C3_8
REMARK    3  A    between atoms: C6_11  and  N3_12
REMARK       I    between atoms: N3_12  and  C7_14
REMARK       I    between atoms: C7_14  and  N4_15
REMARK    4  A    between atoms: N7_20  and  C9_22
ROOT
HETATM    1  N3  UNL     1      41.411  -3.089  31.554  1.00  0.00    -0.222 N
ATOM      2  H3  UNL     1      41.330  -3.991  32.025  1.00  0.00     0.178 HD
HETATM    3  C7  UNL     1      40.979  -1.945  32.246  1.00  0.00     0.677 C
HETATM    4  N4  UNL     1      41.969  -1.163  32.903  1.00  0.00    -0.166 N
ATOM      5  H4  UNL     1      42.193  -0.224  32.574  1.00  0.00     0.186 HD
HETATM    6  C8  UNL     1      42.577  -1.665  33.919  1.00  0.00     0.215 C
HETATM    7  N5  UNL     1      43.587  -0.939  34.634  1.00  0.00    -0.066 NA
HETATM    8  N6  UNL     1      42.283  -2.964  34.390  1.00  0.00    -0.066 NA
HETATM    9  N7  UNL     1      39.739  -1.575  32.311  1.00  0.00    -0.212 N
ATOM     10  H7  UNL     1      39.016  -2.123  31.846  1.00  0.00     0.179 HD
ENDROOT
BRANCH   1  11
HETATM   11  C6  UNL     1      41.962  -3.069  30.223  1.00  0.00     0.099 C
HETATM   12  C5  UNL     1      42.003  -1.662  29.721  1.00  0.00     0.028 C
HETATM   13  C4  UNL     1      43.146  -1.438  28.780  1.00  0.00     0.027 C
HETATM   14  C3  UNL     1      43.374  -2.640  27.899  1.00  0.00     0.083 C
HETATM   15  C17 UNL     1      43.718  -3.846  28.729  1.00  0.00     0.027 C
HETATM   16  C16 UNL     1      43.376  -3.632  30.190  1.00  0.00     0.028 C
BRANCH  14  17
HETATM   17  N2  UNL     1      44.468  -2.311  26.986  1.00  0.00    -0.376 N
ATOM     18  H2  UNL     1      45.394  -2.091  27.354  1.00  0.00     0.161 HD
BRANCH  17  19
HETATM   19  C2  UNL     1      44.237  -2.298  25.591  1.00  0.00     0.066 C
HETATM   20  C1  UNL     1      44.111  -3.556  24.821  1.00  0.00     0.088 C
HETATM   21  N1  UNL     1      44.137  -1.165  24.999  1.00  0.00    -0.389 N
ATOM     22  H12 UNL     1      43.970  -1.156  23.993  1.00  0.00     0.157 HD
ATOM     23  H11 UNL     1      44.224  -0.299  25.529  1.00  0.00     0.157 HD
ENDBRANCH  17  19
ENDBRANCH  14  17
ENDBRANCH   1  11
BRANCH   9  24
HETATM   24  C9  UNL     1      39.381  -0.360  33.061  1.00  0.00     0.169 C
HETATM   25  C10 UNL     1      38.853   0.639  31.969  1.00  0.00     0.064 C
HETATM   26  C11 UNL     1      37.652   1.431  32.469  1.00  0.00    -0.028 C
HETATM   27  C12 UNL     1      36.445   0.819  32.940  1.00  0.00    -0.030 C
HETATM   28  C13 UNL     1      36.211   0.466  34.409  1.00  0.00     0.038 C
HETATM   29  C14 UNL     1      37.298  -0.531  34.939  1.00  0.00     0.086 C
HETATM   30  C15 UNL     1      38.364  -0.469  34.021  1.00  0.00    -0.157 C
ENDBRANCH   9  24
TORSDOF 4
ENDMDL