MODEL 3
REMARK VINA RESULT: -6.432687915      0.845      1.117
REMARK  3 active torsions:
REMARK  status: ('A' for Active; 'I' for Inactive)
REMARK    1  A    between atoms: C2_2  and  N1_4
REMARK    2  A    between atoms: C6_7  and  N2_8
REMARK       I    between atoms: N2_8  and  C7_10
REMARK       I    between atoms: C7_10  and  N3_12
REMARK    3  A    between atoms: N3_12  and  C8_14
ROOT
HETATM    1  N2  UNL     1      43.348  -1.992  31.349  1.00  0.00    -0.338 N
ATOM      2  H2  UNL     1      43.843  -2.779  31.769  1.00  0.00     0.164 HD
HETATM    3  C7  UNL     1      43.051  -0.874  32.140  1.00  0.00     0.316 C
HETATM    4  O1  UNL     1      42.443   0.095  31.628  1.00  0.00    -0.247 OA
HETATM    5  N3  UNL     1      43.410  -0.786  33.506  1.00  0.00    -0.336 N
ATOM      6  H3  UNL     1      43.905  -1.577  33.921  1.00  0.00     0.164 HD
ENDROOT
BRANCH   5   7
HETATM    7  C8  UNL     1      43.123   0.351  34.355  1.00  0.00     0.122 C
HETATM    8  C9  UNL     1      42.335  -0.081  35.564  1.00  0.00     0.032 C
HETATM    9  C10 UNL     1      42.855   0.695  36.765  1.00  0.00    -0.010 C
HETATM   10  C11 UNL     1      42.704   2.162  36.625  1.00  0.00     0.037 C
HETATM   11  C15 UNL     1      44.282   0.225  36.955  1.00  0.00     0.012 C
HETATM   12  C12 UNL     1      43.828   2.911  36.016  1.00  0.00     0.187 C
HETATM   13  C13 UNL     1      45.208   2.383  36.435  1.00  0.00     0.040 C
HETATM   14  N4  UNL     1      43.911   2.592  34.581  1.00  0.00    -0.060 N
HETATM   15  C14 UNL     1      45.075   0.959  35.864  1.00  0.00     0.026 C
HETATM   16  C16 UNL     1      44.304   1.197  34.623  1.00  0.00     0.146 C
HETATM   17  C17 UNL     1      45.282   0.994  33.454  1.00  0.00     0.049 C
ATOM     18  H42 UNL     1      43.070   2.792  34.040  1.00  0.00     0.278 HD
ATOM     19  H41 UNL     1      44.519   3.201  34.033  1.00  0.00     0.278 HD
ENDBRANCH   5   7
BRANCH   1  20
HETATM   20  C6  UNL     1      42.975  -2.064  29.963  1.00  0.00     0.089 C
HETATM   21  C5  UNL     1      42.862  -3.473  29.464  1.00  0.00     0.055 C
HETATM   22  C4  UNL     1      43.716  -3.671  28.205  1.00  0.00     0.275 C
HETATM   23  N1  UNL     1      43.297  -2.684  27.252  1.00  0.00     0.092 N
HETATM   24  C19 UNL     1      43.757  -1.396  27.683  1.00  0.00     0.275 C
HETATM   25  C18 UNL     1      44.042  -1.343  29.157  1.00  0.00     0.055 C
BRANCH  23  26
HETATM   26  C2  UNL     1      43.800  -2.943  25.917  1.00  0.00     0.215 C
HETATM   27  C1  UNL     1      44.832  -1.951  25.482  1.00  0.00     0.042 C
HETATM   28  C3  UNL     1      44.459  -4.326  25.970  1.00  0.00     0.042 C
ENDBRANCH  23  26
ENDBRANCH   1  20
TORSDOF 3
ENDMDL