MODEL 5
REMARK VINA RESULT: -7.109097481      1.072      1.466
REMARK  2 active torsions:
REMARK  status: ('A' for Active; 'I' for Inactive)
REMARK    1  A    between atoms: C6_6  and  N1_7
REMARK       I    between atoms: N1_7  and  C7_9
REMARK       I    between atoms: C7_9  and  N2_11
REMARK    2  A    between atoms: N2_11  and  C8_13
ROOT
HETATM    1  N1  UNL     1      43.332  -2.199  31.678  1.00  0.00    -0.330 N
ATOM      2  H1  UNL     1      44.278  -2.453  31.961  1.00  0.00     0.165 HD
HETATM    3  C7  UNL     1      43.014  -2.140  30.309  1.00  0.00     0.317 C
HETATM    4  O1  UNL     1      41.867  -1.834  29.900  1.00  0.00    -0.247 OA
HETATM    5  N2  UNL     1      44.001  -2.430  29.325  1.00  0.00    -0.338 N
ATOM      6  H2  UNL     1      44.946  -2.684  29.613  1.00  0.00     0.164 HD
ENDROOT
BRANCH   1   7
HETATM    7  C6  UNL     1      42.351  -1.909  32.682  1.00  0.00     0.061 C
HETATM    8  C5  UNL     1      43.040  -2.083  34.084  1.00  0.00     0.042 C
HETATM    9  C4  UNL     1      41.846  -2.228  35.014  1.00  0.00     0.004 C
HETATM   10  C2  UNL     1      41.485  -3.734  34.854  1.00  0.00    -0.039 C
HETATM   11  C15 UNL     1      40.748  -1.333  34.547  1.00  0.00     0.013 C
HETATM   12  C1  UNL     1      40.246  -4.131  35.542  1.00  0.00     0.015 C
HETATM   13  C3  UNL     1      42.604  -4.399  35.698  1.00  0.00     0.015 C
HETATM   14  C19 UNL     1      41.677  -4.043  33.439  1.00  0.00     0.006 A
HETATM   15  C17 UNL     1      41.179  -2.753  32.684  1.00  0.00    -0.006 A
HETATM   16  C18 UNL     1      40.881  -4.086  32.268  1.00  0.00     0.019 A
HETATM   17  C16 UNL     1      40.057  -2.098  33.418  1.00  0.00     0.021 C
HETATM   18  C14 UNL     1      41.223  -0.138  33.783  1.00  0.00    -0.023 C
HETATM   19  C13 UNL     1      42.064  -0.449  32.791  1.00  0.00     0.001 C
ENDBRANCH   1   7
BRANCH   5  20
HETATM   20  C8  UNL     1      43.674  -2.368  27.936  1.00  0.00     0.094 C
HETATM   21  C9  UNL     1      44.772  -1.581  27.234  1.00  0.00     0.045 C
HETATM   22  C10 UNL     1      44.365  -1.341  25.798  1.00  0.00     0.123 C
HETATM   23  N3  UNL     1      44.319  -2.642  25.156  1.00  0.00    -0.380 N
HETATM   24  C11 UNL     1      44.122  -3.811  25.952  1.00  0.00     0.072 C
ATOM     25  H3  UNL     1      44.428  -2.721  24.145  1.00  0.00     0.160 HD
HETATM   26  N4  UNL     1      44.473  -4.949  25.455  1.00  0.00    -0.389 N
HETATM   27  C12 UNL     1      43.533  -3.741  27.310  1.00  0.00     0.101 C
ATOM     28  H42 UNL     1      44.879  -4.996  24.521  1.00  0.00     0.157 HD
ATOM     29  H41 UNL     1      44.332  -5.783  26.025  1.00  0.00     0.157 HD
ENDBRANCH   5  20
TORSDOF 2
ENDMDL