MODEL 3
REMARK VINA RESULT: -6.859395113      3.559      5.862
REMARK  4 active torsions:
REMARK  status: ('A' for Active; 'I' for Inactive)
REMARK    1  A    between atoms: N1_2  and  C2_4
REMARK    2  A    between atoms: C4_8  and  C5_9
REMARK    3  A    between atoms: C13_17  and  N3_18
REMARK       I    between atoms: N3_18  and  C14_20
REMARK       I    between atoms: C14_20  and  N4_22
REMARK    4  A    between atoms: N4_22  and  C15_24
ROOT
HETATM    1  C5  UNL     1      42.833  -2.622  29.679  1.00  0.00     0.007 C
HETATM    2  C6  UNL     1      42.276  -1.357  30.164  1.00  0.00     0.020 C
HETATM    3  C7  UNL     1      41.023  -1.363  30.956  1.00  0.00    -0.013 C
HETATM    4  C8  UNL     1      39.767  -1.966  30.513  1.00  0.00     0.005 C
HETATM    5  C9  UNL     1      39.787  -3.486  30.865  1.00  0.00     0.012 C
HETATM    6  C10 UNL     1      41.203  -3.611  30.896  1.00  0.00    -0.018 C
HETATM    7  C11 UNL     1      41.445  -2.492  31.901  1.00  0.00     0.016 C
HETATM    8  C12 UNL     1      41.528  -3.360  29.431  1.00  0.00     0.027 C
HETATM    9  C13 UNL     1      42.257  -4.479  31.187  1.00  0.00     0.095 C
HETATM   10  C18 UNL     1      43.397  -3.680  30.545  1.00  0.00     0.042 C
ENDROOT
BRANCH   1  11
HETATM   11  C4  UNL     1      43.631  -2.377  28.467  1.00  0.00     0.051 A
HETATM   12  C3  UNL     1      44.588  -1.353  28.411  1.00  0.00     0.132 A
HETATM   13  N2  UNL     1      45.185  -1.322  27.213  1.00  0.00    -0.200 N
HETATM   14  C2  UNL     1      44.623  -2.315  26.502  1.00  0.00     0.677 A
ATOM     15  H2  UNL     1      45.915  -0.679  26.905  1.00  0.00     0.183 HD
HETATM   16  N5  UNL     1      43.691  -2.939  27.272  1.00  0.00    -0.194 N
ATOM     17  H5  UNL     1      43.119  -3.727  26.970  1.00  0.00     0.184 HD
BRANCH  14  18
HETATM   18  N1  UNL     1      44.918  -2.638  25.281  1.00  0.00    -0.230 N
HETATM   19  C1  UNL     1      44.086  -3.465  24.473  1.00  0.00     0.165 C
ATOM     20  H1  UNL     1      45.787  -2.284  24.880  1.00  0.00     0.177 HD
ENDBRANCH  14  18
ENDBRANCH   1  11
BRANCH   9  21
HETATM   21  N3  UNL     1      42.175  -5.852  30.821  1.00  0.00    -0.338 N
HETATM   22  C14 UNL     1      43.123  -6.793  31.355  1.00  0.00     0.316 C
HETATM   23  O1  UNL     1      44.030  -6.307  32.121  1.00  0.00    -0.247 OA
HETATM   24  N4  UNL     1      43.088  -8.184  31.080  1.00  0.00    -0.339 N
ATOM     25  H4  UNL     1      42.364  -8.577  30.479  1.00  0.00     0.164 HD
ATOM     26  H3  UNL     1      41.447  -6.167  30.180  1.00  0.00     0.164 HD
BRANCH  24  27
HETATM   27  C15 UNL     1      44.092  -9.028  31.662  1.00  0.00     0.086 A
HETATM   28  C16 UNL     1      44.321 -10.333  30.827  1.00  0.00     0.027 A
HETATM   29  C17 UNL     1      45.395  -9.326  31.082  1.00  0.00     0.027 A
ENDBRANCH  24  27
ENDBRANCH   9  21
TORSDOF 4
ENDMDL