MODEL 2
REMARK VINA RESULT: -6.275634888      3.120      6.603
REMARK  4 active torsions:
REMARK  status: ('A' for Active; 'I' for Inactive)
REMARK    1  A    between atoms: C3_3  and  C4_4
REMARK    2  A    between atoms: C4_4  and  C5_5
REMARK       I    between atoms: N1_6  and  C6_8
REMARK       I    between atoms: C6_8  and  N2_10
REMARK       I    between atoms: N2_10  and  C7_12
REMARK       I    between atoms: C7_12  and  N4_16
REMARK    3  A    between atoms: N4_16  and  C8_18
REMARK    4  A    between atoms: C14_24  and  C15_25
ROOT
HETATM    1  C1  UNL     1      49.593  -0.578  42.408  1.00  0.00     0.112 C
HETATM    2  C2  UNL     1      49.051  -1.011  41.121  1.00  0.00    -0.111 C
HETATM    3  C3  UNL     1      48.620  -1.371  40.054  1.00  0.00    -0.102 C
ENDROOT
BRANCH   3   4
HETATM    4  C4  UNL     1      48.113  -1.816  38.735  1.00  0.00     0.138 C
BRANCH   4   5
HETATM    5  C5  UNL     1      49.250  -2.130  37.872  1.00  0.00     0.077 C
HETATM    6  N1  UNL     1      49.352  -1.612  36.706  1.00  0.00    -0.321 N
HETATM    7  C6  UNL     1      48.295  -0.712  36.293  1.00  0.00     0.338 C
ATOM      8  H1  UNL     1      50.141  -1.824  36.096  1.00  0.00     0.169 HD
HETATM    9  O1  UNL     1      48.253   0.404  36.809  1.00  0.00    -0.246 OA
HETATM   10  N2  UNL     1      47.350  -1.126  35.320  1.00  0.00    -0.142 N
HETATM   11  C7  UNL     1      46.321  -0.262  34.913  1.00  0.00     0.676 C
ATOM     12  H2  UNL     1      47.419  -2.058  34.913  1.00  0.00     0.189 HD
HETATM   13  N3  UNL     1      45.487  -0.680  34.022  1.00  0.00    -0.235 N
HETATM   14  N4  UNL     1      46.176   1.032  35.443  1.00  0.00    -0.217 N
ATOM     15  H32 UNL     1      45.592  -1.620  33.638  1.00  0.00     0.174 HD
ATOM     16  H31 UNL     1      44.740  -0.053  33.726  1.00  0.00     0.174 HD
ATOM     17  H4  UNL     1      46.948   1.689  35.332  1.00  0.00     0.178 HD
BRANCH  14  18
HETATM   18  C8  UNL     1      44.978   1.487  36.143  1.00  0.00     0.048 C
HETATM   19  C9  UNL     1      43.835   1.562  35.157  1.00  0.00     0.036 C
HETATM   20  C10 UNL     1      42.592   1.987  35.868  1.00  0.00    -0.011 C
HETATM   21  C11 UNL     1      42.195   0.928  36.875  1.00  0.00     0.009 C
HETATM   22  C17 UNL     1      42.776   3.305  36.579  1.00  0.00     0.014 C
HETATM   23  C12 UNL     1      43.326   0.759  37.837  1.00  0.00    -0.011 C
HETATM   24  C13 UNL     1      43.612   2.053  38.591  1.00  0.00     0.014 C
HETATM   25  C19 UNL     1      44.600   0.394  37.145  1.00  0.00     0.036 C
HETATM   26  C14 UNL     1      43.879   3.130  37.585  1.00  0.00    -0.038 C
HETATM   27  C18 UNL     1      45.154   2.811  36.822  1.00  0.00     0.041 C
BRANCH  26  28
HETATM   28  C15 UNL     1      44.146   4.416  38.358  1.00  0.00     0.005 C
HETATM   29  C16 UNL     1      43.182   5.504  38.017  1.00  0.00     0.006 C
ENDBRANCH  26  28
ENDBRANCH  14  18
ENDBRANCH   4   5
ENDBRANCH   3   4
TORSDOF 4
ENDMDL