MODEL 3
REMARK VINA RESULT: -7.631200318      2.041      3.177
REMARK  4 active torsions:
REMARK  status: ('A' for Active; 'I' for Inactive)
REMARK    1  A    between atoms: C3_3  and  N1_4
REMARK       I    between atoms: N1_4  and  C4_6
REMARK    2  A    between atoms: C4_6  and  C5_8
REMARK    3  A    between atoms: C14_17  and  C15_18
REMARK    4  A    between atoms: C17_22  and  N3_23
ROOT
HETATM    1  C1  UNL     1      36.582   0.099  32.269  1.00  0.00     0.014 C
HETATM    2  C2  UNL     1      37.771   0.321  32.258  1.00  0.00    -0.098 C
HETATM    3  C3  UNL     1      39.239   0.537  32.253  1.00  0.00     0.216 C
ENDROOT
BRANCH   3   4
HETATM    4  N1  UNL     1      39.927  -0.626  31.774  1.00  0.00    -0.350 N
HETATM    5  C4  UNL     1      41.326  -0.780  31.700  1.00  0.00     0.227 C
HETATM    6  O1  UNL     1      42.070   0.152  32.060  1.00  0.00    -0.273 OA
ATOM      7  H1  UNL     1      39.354  -1.410  31.461  1.00  0.00     0.163 HD
BRANCH   5   8
HETATM    8  C5  UNL     1      41.762  -2.098  31.181  1.00  0.00     0.043 C
HETATM    9  C6  UNL     1      40.652  -3.059  31.484  1.00  0.00     0.024 C
HETATM   10  C7  UNL     1      40.782  -4.409  30.798  1.00  0.00    -0.012 C
HETATM   11  C8  UNL     1      41.358  -5.431  31.668  1.00  0.00     0.009 C
HETATM   12  C18 UNL     1      41.384  -4.221  29.451  1.00  0.00     0.021 C
HETATM   13  C9  UNL     1      42.740  -5.907  31.414  1.00  0.00    -0.018 C
HETATM   14  C10 UNL     1      42.607  -7.101  30.449  1.00  0.00     0.010 C
HETATM   15  C11 UNL     1      43.765  -4.962  31.003  1.00  0.00     0.010 C
HETATM   16  C12 UNL     1      43.493  -3.571  30.639  1.00  0.00     0.002 C
HETATM   17  C13 UNL     1      43.050  -2.620  31.724  1.00  0.00     0.025 C
HETATM   18  C14 UNL     1      42.624  -3.356  29.450  1.00  0.00     0.009 C
HETATM   19  C19 UNL     1      42.090  -1.947  29.725  1.00  0.00     0.035 C
BRANCH  18  20
HETATM   20  C15 UNL     1      43.304  -3.382  28.142  1.00  0.00     0.051 A
HETATM   21  C16 UNL     1      44.003  -2.318  27.582  1.00  0.00     0.132 A
HETATM   22  N2  UNL     1      44.474  -2.734  26.403  1.00  0.00    -0.200 N
HETATM   23  C17 UNL     1      44.082  -3.997  26.248  1.00  0.00     0.675 A
ATOM     24  H2  UNL     1      45.030  -2.187  25.745  1.00  0.00     0.183 HD
HETATM   25  N4  UNL     1      43.360  -4.406  27.311  1.00  0.00    -0.194 N
ATOM     26  H4  UNL     1      42.941  -5.325  27.446  1.00  0.00     0.184 HD
BRANCH  23  27
HETATM   27  N3  UNL     1      44.316  -4.796  25.241  1.00  0.00    -0.234 N
ATOM     28  H32 UNL     1      45.204  -4.769  24.741  1.00  0.00     0.174 HD
ATOM     29  H31 UNL     1      43.700  -5.505  24.842  1.00  0.00     0.174 HD
ENDBRANCH  23  27
ENDBRANCH  18  20
ENDBRANCH   5   8
ENDBRANCH   3   4
TORSDOF 4
ENDMDL