MODEL 1
REMARK VINA RESULT: -6.308970128      0.000      0.000
REMARK  7 active torsions:
REMARK  status: ('A' for Active; 'I' for Inactive)
REMARK    1  A    between atoms: C2_2  and  C3_3
REMARK    2  A    between atoms: C3_3  and  C4_4
REMARK    3  A    between atoms: C5_9  and  N3_10
REMARK    4  A    between atoms: N3_10  and  C6_12
REMARK    5  A    between atoms: C8_17  and  N5_18
REMARK       I    between atoms: N5_18  and  C9_20
REMARK       I    between atoms: C9_20  and  N6_22
REMARK    6  A    between atoms: N6_22  and  C10_24
REMARK    7  A    between atoms: C14_28  and  C15_29
ROOT
HETATM    1  C4  UNL     1      39.914  -3.020  30.136  1.00  0.00     0.034 A
HETATM    2  N1  UNL     1      40.670  -3.762  29.271  1.00  0.00    -0.303 N
ATOM      3  H1  UNL     1      40.246  -4.579  28.830  1.00  0.00     0.186 HD
HETATM    4  N2  UNL     1      41.912  -3.470  28.985  1.00  0.00    -0.283 N
ATOM      5  H2  UNL     1      42.418  -4.067  28.331  1.00  0.00     0.188 HD
HETATM    6  C5  UNL     1      42.553  -2.402  29.528  1.00  0.00     0.149 A
HETATM    7  C8  UNL     1      41.872  -1.610  30.402  1.00  0.00     0.090 A
HETATM    8  C14 UNL     1      40.542  -1.934  30.699  1.00  0.00    -0.004 A
ENDROOT
BRANCH   7   9
HETATM    9  N5  UNL     1      42.414  -0.593  30.949  1.00  0.00    -0.305 N
HETATM   10  C9  UNL     1      43.180  -0.481  32.090  1.00  0.00     0.321 C
HETATM   11  O1  UNL     1      44.446  -0.635  32.023  1.00  0.00    -0.247 OA
HETATM   12  N6  UNL     1      42.679  -0.196  33.395  1.00  0.00    -0.335 N
ATOM     13  H6  UNL     1      41.671  -0.070  33.493  1.00  0.00     0.165 HD
ATOM     14  H5  UNL     1      42.253   0.288  30.459  1.00  0.00     0.171 HD
BRANCH  12  15
HETATM   15  C10 UNL     1      43.471  -0.075  34.571  1.00  0.00     0.023 C
HETATM   16  C11 UNL     1      42.592  -0.249  35.810  1.00  0.00     0.037 C
HETATM   17  C12 UNL     1      44.593  -1.066  34.697  1.00  0.00     0.037 C
HETATM   18  C13 UNL     1      44.006   1.361  34.598  1.00  0.00     0.037 C
ENDBRANCH  12  15
ENDBRANCH   7   9
BRANCH   6  19
HETATM   19  N3  UNL     1      43.784  -2.147  29.218  1.00  0.00    -0.330 N
ATOM     20  H3  UNL     1      44.516  -2.401  29.882  1.00  0.00     0.168 HD
BRANCH  19  21
HETATM   21  C6  UNL     1      44.160  -1.533  28.000  1.00  0.00     0.072 C
HETATM   22  C7  UNL     1      44.565  -2.327  26.799  1.00  0.00     0.088 C
HETATM   23  N4  UNL     1      44.165  -0.250  27.887  1.00  0.00    -0.389 N
ATOM     24  H42 UNL     1      43.888   0.292  28.707  1.00  0.00     0.157 HD
ATOM     25  H41 UNL     1      44.436   0.193  27.010  1.00  0.00     0.157 HD
ENDBRANCH  19  21
ENDBRANCH   6  19
BRANCH   8  26
HETATM   26  C15 UNL     1      39.824  -1.095  31.669  1.00  0.00     0.039 C
HETATM   27  C16 UNL     1      39.271   0.136  30.978  1.00  0.00     0.010 C
ENDBRANCH   8  26
BRANCH   1  28
HETATM   28  C3  UNL     1      38.501  -3.404  30.380  1.00  0.00     0.059 C
BRANCH  28  29
HETATM   29  C2  UNL     1      37.595  -3.272  29.211  1.00  0.00     0.002 C
HETATM   30  C1  UNL     1      36.654  -2.069  29.355  1.00  0.00     0.005 C
ENDBRANCH  28  29
ENDBRANCH   1  28
TORSDOF 7
ENDMDL