MODEL 3
REMARK VINA RESULT: -6.929631380      1.225      2.043
REMARK  4 active torsions:
REMARK  status: ('A' for Active; 'I' for Inactive)
REMARK       I    between atoms: C1_4  and  N2_5
REMARK       I    between atoms: C1_4  and  N5_24
REMARK    1  A    between atoms: N2_5  and  C2_7
REMARK    2  A    between atoms: C4_11  and  C5_12
REMARK    3  A    between atoms: N5_24  and  C15_26
REMARK    4  A    between atoms: C15_26  and  C16_27
ROOT
HETATM    1  C2  UNL     1      45.576   0.252  34.328  1.00  0.00     0.697 A
HETATM    2  N3  UNL     1      45.483   1.298  35.123  1.00  0.00    -0.199 N
ATOM      3  H3  UNL     1      45.000   2.168  34.900  1.00  0.00     0.183 HD
HETATM    4  C3  UNL     1      46.130   1.035  36.279  1.00  0.00     0.132 A
HETATM    5  C4  UNL     1      46.658  -0.251  36.218  1.00  0.00     0.051 A
HETATM    6  N4  UNL     1      46.292  -0.704  35.001  1.00  0.00    -0.193 N
ATOM      7  H4  UNL     1      46.517  -1.628  34.634  1.00  0.00     0.184 HD
ENDROOT
BRANCH   1   8
HETATM    8  N2  UNL     1      45.175   0.143  33.113  1.00  0.00    -0.023 N
HETATM    9  C1  UNL     1      44.025  -0.652  32.711  1.00  0.00     0.686 C
HETATM   10  N1  UNL     1      43.026  -0.708  33.489  1.00  0.00    -0.234 N
HETATM   11  N5  UNL     1      44.048  -1.285  31.459  1.00  0.00    -0.226 N
ATOM     12  H12 UNL     1      43.009  -0.247  34.398  1.00  0.00     0.174 HD
ATOM     13  H11 UNL     1      42.220  -1.265  33.206  1.00  0.00     0.174 HD
ATOM     14  H5  UNL     1      44.872  -1.104  30.886  1.00  0.00     0.177 HD
ATOM     15  H2  UNL     1      45.692   0.643  32.389  1.00  0.00     0.203 HD
BRANCH  11  16
HETATM   16  C15 UNL     1      43.064  -2.153  30.879  1.00  0.00     0.142 C
BRANCH  16  17
HETATM   17  C16 UNL     1      42.893  -1.901  29.400  1.00  0.00     0.004 C
HETATM   18  C17 UNL     1      44.169  -1.812  28.600  1.00  0.00     0.006 C
HETATM   19  C18 UNL     1      44.022  -3.273  28.247  1.00  0.00     0.001 C
HETATM   20  C19 UNL     1      42.571  -3.178  28.599  1.00  0.00     0.006 C
ENDBRANCH  16  17
ENDBRANCH  11  16
ENDBRANCH   1   8
BRANCH   5  21
HETATM   21  C5  UNL     1      47.500  -0.837  37.278  1.00  0.00     0.005 C
HETATM   22  C6  UNL     1      48.057   0.317  38.109  1.00  0.00     0.020 C
HETATM   23  C7  UNL     1      49.122  -0.169  39.066  1.00  0.00    -0.013 C
HETATM   24  C8  UNL     1      48.463  -1.100  40.028  1.00  0.00     0.009 C
HETATM   25  C12 UNL     1      50.216  -0.786  38.243  1.00  0.00     0.009 C
HETATM   26  C9  UNL     1      47.859  -2.242  39.229  1.00  0.00    -0.013 C
HETATM   27  C10 UNL     1      49.005  -2.947  38.582  1.00  0.00     0.009 C
HETATM   28  C14 UNL     1      46.806  -1.739  38.248  1.00  0.00     0.020 C
HETATM   29  C11 UNL     1      49.687  -2.027  37.585  1.00  0.00    -0.013 C
HETATM   30  C13 UNL     1      48.609  -1.609  36.600  1.00  0.00     0.020 C
ENDBRANCH   5  21
TORSDOF 4
ENDMDL