MODEL 2
REMARK VINA RESULT: -6.879672032      1.090      1.210
REMARK  2 active torsions:
REMARK  status: ('A' for Active; 'I' for Inactive)
REMARK       I    between atoms: N1_2  and  C2_4
REMARK       I    between atoms: C2_4  and  N3_8
REMARK    1  A    between atoms: C4_10  and  N4_11
REMARK       I    between atoms: N4_11  and  C5_13
REMARK       I    between atoms: C5_13  and  N5_15
REMARK    2  A    between atoms: N5_15  and  C6_17
ROOT
HETATM    1  C1  UNL     1      43.803  -3.306  27.078  1.00  0.00     0.165 C
HETATM    2  N1  UNL     1      43.216  -2.522  28.124  1.00  0.00    -0.231 N
ATOM      3  H1  UNL     1      42.207  -2.370  28.106  1.00  0.00     0.177 HD
HETATM    4  C2  UNL     1      43.966  -1.944  29.185  1.00  0.00     0.670 C
HETATM    5  N2  UNL     1      44.928  -1.149  28.873  1.00  0.00    -0.235 N
ATOM      6  H21 UNL     1      45.465  -0.735  29.634  1.00  0.00     0.174 HD
ATOM      7  H22 UNL     1      45.138  -0.943  27.897  1.00  0.00     0.174 HD
HETATM    8  N3  UNL     1      43.671  -2.234  30.559  1.00  0.00    -0.208 N
HETATM    9  C3  UNL     1      43.997  -1.362  31.671  1.00  0.00     0.167 C
HETATM   10  C4  UNL     1      42.991  -1.765  32.696  1.00  0.00     0.107 C
HETATM   11  C14 UNL     1      43.053  -3.294  32.578  1.00  0.00     0.057 C
HETATM   12  C15 UNL     1      43.006  -3.427  31.049  1.00  0.00     0.044 C
HETATM   13  C16 UNL     1      41.526  -3.422  30.689  1.00  0.00     0.039 C
HETATM   14  C17 UNL     1      43.640  -4.693  30.576  1.00  0.00     0.039 C
ENDROOT
BRANCH  10  15
HETATM   15  N4  UNL     1      43.241  -1.314  34.013  1.00  0.00    -0.337 N
HETATM   16  C5  UNL     1      43.159   0.071  34.322  1.00  0.00     0.316 C
HETATM   17  O1  UNL     1      42.859   0.924  33.415  1.00  0.00    -0.247 OA
HETATM   18  N5  UNL     1      43.397   0.585  35.622  1.00  0.00    -0.338 N
ATOM     19  H5  UNL     1      43.639  -0.050  36.382  1.00  0.00     0.164 HD
ATOM     20  H4  UNL     1      43.482  -1.984  34.743  1.00  0.00     0.164 HD
BRANCH  18  21
HETATM   21  C6  UNL     1      43.300   1.985  35.870  1.00  0.00     0.090 C
HETATM   22  C7  UNL     1      42.530   2.339  37.121  1.00  0.00     0.030 C
HETATM   23  C8  UNL     1      43.110   3.671  37.606  1.00  0.00    -0.012 C
HETATM   24  C9  UNL     1      43.877   3.465  38.919  1.00  0.00     0.005 C
HETATM   25  C13 UNL     1      44.175   4.035  36.573  1.00  0.00     0.011 C
HETATM   26  C10 UNL     1      45.242   2.903  38.611  1.00  0.00     0.001 C
HETATM   27  C11 UNL     1      45.191   1.957  37.412  1.00  0.00     0.007 C
HETATM   28  C12 UNL     1      44.656   2.629  36.186  1.00  0.00     0.009 C
ENDBRANCH  18  21
ENDBRANCH  10  15
TORSDOF 2
ENDMDL