MODEL 5
REMARK VINA RESULT: -6.349119296      3.033      8.299
REMARK  4 active torsions:
REMARK  status: ('A' for Active; 'I' for Inactive)
REMARK    1  A    between atoms: C2_2  and  C5_5
REMARK    2  A    between atoms: C5_5  and  C6_6
REMARK    3  A    between atoms: C6_6  and  N1_7
REMARK       I    between atoms: N1_7  and  C7_9
REMARK       I    between atoms: C7_9  and  N2_11
REMARK       I    between atoms: C8_13  and  N4_15
REMARK    4  A    between atoms: N4_15  and  C9_17
ROOT
HETATM    1  N1  UNL     1      42.299  -0.517  30.908  1.00  0.00    -0.343 N
ATOM      2  H1  UNL     1      42.239   0.460  30.624  1.00  0.00     0.164 HD
HETATM    3  C7  UNL     1      42.640  -0.861  32.235  1.00  0.00     0.322 C
HETATM    4  O1  UNL     1      42.703  -2.083  32.539  1.00  0.00    -0.247 OA
HETATM    5  N2  UNL     1      42.895   0.172  33.167  1.00  0.00    -0.283 N
ATOM      6  H2  UNL     1      42.120   0.664  33.612  1.00  0.00     0.173 HD
HETATM    7  C8  UNL     1      44.104   0.487  33.447  1.00  0.00     0.192 C
HETATM    8  N3  UNL     1      45.153  -0.218  32.807  1.00  0.00    -0.063 NA
HETATM    9  N4  UNL     1      44.402   1.520  34.379  1.00  0.00    -0.359 N
ATOM     10  H4  UNL     1      44.528   2.480  34.059  1.00  0.00     0.162 HD
ENDROOT
BRANCH   9  11
HETATM   11  C9  UNL     1      44.526   1.195  35.805  1.00  0.00     0.088 C
HETATM   12  C10 UNL     1      43.152   1.204  36.387  1.00  0.00     0.030 C
HETATM   13  C11 UNL     1      43.129   1.083  37.881  1.00  0.00    -0.012 C
HETATM   14  C12 UNL     1      44.241   0.265  38.439  1.00  0.00     0.009 C
HETATM   15  C16 UNL     1      43.014   2.457  38.471  1.00  0.00     0.009 C
HETATM   16  C13 UNL     1      45.493   1.009  38.733  1.00  0.00    -0.013 C
HETATM   17  C14 UNL     1      45.268   2.354  39.379  1.00  0.00     0.009 C
HETATM   18  C19 UNL     1      46.303   1.269  37.465  1.00  0.00     0.011 C
HETATM   19  C15 UNL     1      44.356   3.141  38.466  1.00  0.00    -0.013 C
HETATM   20  C17 UNL     1      44.899   3.314  37.091  1.00  0.00     0.011 C
HETATM   21  C18 UNL     1      45.502   2.091  36.491  1.00  0.00     0.009 C
ENDBRANCH   9  11
BRANCH   1  22
HETATM   22  C6  UNL     1      42.038  -1.578  29.959  1.00  0.00     0.125 C
BRANCH  22  23
HETATM   23  C5  UNL     1      43.352  -1.987  29.341  1.00  0.00     0.028 C
BRANCH  23  24
HETATM   24  C2  UNL     1      43.326  -3.427  28.872  1.00  0.00    -0.050 C
HETATM   25  C1  UNL     1      41.886  -3.907  28.951  1.00  0.00     0.014 C
HETATM   26  C3  UNL     1      44.147  -4.326  29.746  1.00  0.00     0.014 C
HETATM   27  C4  UNL     1      43.868  -3.498  27.474  1.00  0.00     0.014 C
ENDBRANCH  23  24
ENDBRANCH  22  23
ENDBRANCH   1  22
TORSDOF 4
ENDMDL