MODEL 5
REMARK VINA RESULT: -5.387598859      2.503      5.848
REMARK  4 active torsions:
REMARK  status: ('A' for Active; 'I' for Inactive)
REMARK    1  A    between atoms: C5_5  and  N1_6
REMARK       I    between atoms: N1_6  and  C6_8
REMARK    2  A    between atoms: N3_10  and  C7_12
REMARK    3  A    between atoms: C7_12  and  C8_13
REMARK    4  A    between atoms: C17_22  and  N4_23
ROOT
HETATM    1  C1  UNL     1      39.541   0.132  31.622  1.00  0.00     0.015 C
HETATM    2  C2  UNL     1      40.088  -0.866  30.958  1.00  0.00    -0.084 C
HETATM    3  C3  UNL     1      39.084  -1.690  30.223  1.00  0.00     0.039 C
HETATM    4  C4  UNL     1      39.554  -3.083  29.894  1.00  0.00     0.058 C
HETATM    5  C5  UNL     1      40.549  -3.591  30.921  1.00  0.00     0.003 C
HETATM    6  C10 UNL     1      41.954  -3.206  30.637  1.00  0.00     0.028 C
HETATM    7  C11 UNL     1      42.638  -2.846  31.945  1.00  0.00     0.030 C
HETATM    8  C12 UNL     1      42.161  -1.427  32.312  1.00  0.00    -0.038 C
HETATM    9  C13 UNL     1      41.386  -1.374  33.572  1.00  0.00     0.015 C
HETATM   10  C14 UNL     1      43.444  -0.592  32.620  1.00  0.00     0.015 C
HETATM   11  C15 UNL     1      41.565  -0.930  31.066  1.00  0.00     0.029 C
HETATM   12  C16 UNL     1      42.003  -1.830  29.942  1.00  0.00     0.047 C
HETATM   13  C17 UNL     1      43.427  -1.787  29.560  1.00  0.00     0.212 C
HETATM   14  C18 UNL     1      43.615  -3.208  29.086  1.00  0.00     0.009 C
HETATM   15  C19 UNL     1      42.740  -4.012  29.732  1.00  0.00    -0.071 C
HETATM   16  C20 UNL     1      42.733  -5.484  29.415  1.00  0.00     0.044 C
ENDROOT
BRANCH   5  17
HETATM   17  N1  UNL     1      40.320  -4.928  31.357  1.00  0.00    -0.337 N
HETATM   18  C6  UNL     1      39.074  -5.274  31.912  1.00  0.00     0.188 C
HETATM   19  N2  UNL     1      38.623  -4.625  33.075  1.00  0.00    -0.064 NA
HETATM   20  N3  UNL     1      38.361  -6.172  31.357  1.00  0.00    -0.364 N
ATOM     21  H3  UNL     1      37.462  -6.406  31.777  1.00  0.00     0.162 HD
ATOM     22  H1  UNL     1      41.055  -5.629  31.269  1.00  0.00     0.168 HD
BRANCH  20  23
HETATM   23  C7  UNL     1      38.763  -6.875  30.165  1.00  0.00     0.122 C
BRANCH  23  24
HETATM   24  C8  UNL     1      37.532  -7.123  29.296  1.00  0.00     0.015 C
HETATM   25  C9  UNL     1      37.002  -5.760  28.896  1.00  0.00     0.006 C
ENDBRANCH  23  24
ENDBRANCH  20  23
ENDBRANCH   5  17
BRANCH  13  26
HETATM   26  N4  UNL     1      43.674  -0.852  28.470  1.00  0.00    -0.071 N
ATOM     27  H43 UNL     1      43.733   0.107  28.813  1.00  0.00     0.275 HD
ATOM     28  H42 UNL     1      44.622  -0.951  28.105  1.00  0.00     0.275 HD
ATOM     29  H41 UNL     1      42.981  -0.937  27.727  1.00  0.00     0.275 HD
ENDBRANCH  13  26
TORSDOF 4
ENDMDL