MODEL 5
REMARK VINA RESULT: -6.695784912      2.763      8.790
REMARK  4 active torsions:
REMARK  status: ('A' for Active; 'I' for Inactive)
REMARK    1  A    between atoms: C2_2  and  C4_4
REMARK    2  A    between atoms: C4_4  and  N1_5
REMARK       I    between atoms: N1_5  and  C5_7
REMARK       I    between atoms: C5_7  and  N2_9
REMARK    3  A    between atoms: N2_9  and  C6_11
REMARK    4  A    between atoms: C9_18  and  C10_19
ROOT
HETATM    1  C6  UNL     1      45.761   0.777  35.308  1.00  0.00     0.134 A
HETATM    2  N3  UNL     1      47.048   0.505  34.967  1.00  0.00    -0.285 N
ATOM      3  H3  UNL     1      47.403   0.382  34.018  1.00  0.00     0.188 HD
HETATM    4  N4  UNL     1      47.770   0.427  36.094  1.00  0.00    -0.303 N
ATOM      5  H4  UNL     1      48.770   0.235  36.151  1.00  0.00     0.186 HD
HETATM    6  C7  UNL     1      46.937   0.649  37.150  1.00  0.00     0.038 A
HETATM    7  C8  UNL     1      45.665   0.873  36.680  1.00  0.00     0.042 A
HETATM    8  C9  UNL     1      44.416   1.159  37.417  1.00  0.00     0.228 C
HETATM    9  N5  UNL     1      44.251   0.297  38.569  1.00  0.00    -0.066 N
ATOM     10  H51 UNL     1      44.288  -0.682  38.286  1.00  0.00     0.278 HD
ATOM     11  H52 UNL     1      43.292   0.346  38.911  1.00  0.00     0.278 HD
HETATM   12  C15 UNL     1      45.166   0.539  39.629  1.00  0.00     0.237 C
HETATM   13  C16 UNL     1      46.506  -0.139  39.461  1.00  0.00     0.013 C
HETATM   14  C17 UNL     1      46.391  -1.588  39.089  1.00  0.00     0.012 C
HETATM   15  C18 UNL     1      47.411   0.633  38.537  1.00  0.00     0.065 C
ENDROOT
BRANCH   1  16
HETATM   16  N2  UNL     1      44.769   0.926  34.504  1.00  0.00    -0.293 N
HETATM   17  C5  UNL     1      44.657   0.045  33.392  1.00  0.00     0.321 C
HETATM   18  N1  UNL     1      43.611  -0.898  33.258  1.00  0.00    -0.342 N
HETATM   19  O1  UNL     1      45.573   0.159  32.510  1.00  0.00    -0.247 OA
ATOM     20  H1  UNL     1      42.887  -0.976  33.973  1.00  0.00     0.164 HD
ATOM     21  H2  UNL     1      44.077   1.660  34.659  1.00  0.00     0.172 HD
BRANCH  18  22
HETATM   22  C4  UNL     1      43.587  -1.743  32.097  1.00  0.00     0.128 C
BRANCH  22  23
HETATM   23  C2  UNL     1      42.290  -1.698  31.354  1.00  0.00    -0.005 C
HETATM   24  C1  UNL     1      41.370  -0.630  31.856  1.00  0.00     0.011 C
HETATM   25  C3  UNL     1      42.578  -1.567  29.876  1.00  0.00     0.011 C
ENDBRANCH  22  23
ENDBRANCH  18  22
ENDBRANCH   1  16
BRANCH   8  26
HETATM   26  C10 UNL     1      44.296   2.582  37.855  1.00  0.00     0.021 C
HETATM   27  C11 UNL     1      42.850   2.838  38.230  1.00  0.00     0.007 C
HETATM   28  C12 UNL     1      42.523   4.238  37.816  1.00  0.00     0.000 C
HETATM   29  C13 UNL     1      43.836   4.816  37.328  1.00  0.00     0.000 C
HETATM   30  C14 UNL     1      44.453   3.565  36.687  1.00  0.00     0.007 C
ENDBRANCH   8  26
TORSDOF 4
ENDMDL