MODEL 5
REMARK VINA RESULT: -6.347690236      3.353      4.350
REMARK  2 active torsions:
REMARK  status: ('A' for Active; 'I' for Inactive)
REMARK       I    between atoms: C2_2  and  N1_4
REMARK       I    between atoms: C3_6  and  N3_8
REMARK    1  A    between atoms: N3_8  and  C4_10
REMARK    2  A    between atoms: C4_10  and  C5_11
REMARK       I    between atoms: N4_21  and  C14_22
ROOT
HETATM    1  C5  UNL     1      42.595  -4.805  30.853  1.00  0.00     0.005 C
HETATM    2  C6  UNL     1      41.489  -5.754  31.066  1.00  0.00     0.010 C
HETATM    3  C7  UNL     1      40.525  -5.802  29.855  1.00  0.00     0.027 C
HETATM    4  C8  UNL     1      39.102  -5.831  30.258  1.00  0.00    -0.031 C
HETATM    5  C9  UNL     1      38.219  -4.710  30.091  1.00  0.00    -0.031 C
HETATM    6  C10 UNL     1      38.472  -3.617  29.135  1.00  0.00     0.027 C
HETATM    7  C11 UNL     1      38.585  -2.222  29.806  1.00  0.00     0.008 C
HETATM    8  C12 UNL     1      39.873  -2.292  30.502  1.00  0.00     0.059 C
HETATM    9  C13 UNL     1      40.481  -1.176  31.211  1.00  0.00     0.273 C
HETATM   10  F1  UNL     1      40.672  -0.026  30.508  1.00  0.00    -0.227 F
HETATM   11  N4  UNL     1      41.819  -1.676  31.598  1.00  0.00    -0.325 N
HETATM   12  C14 UNL     1      43.004  -1.012  31.186  1.00  0.00     0.186 C
HETATM   13  N5  UNL     1      43.479  -1.162  29.996  1.00  0.00    -0.374 N
ATOM     14  H51 UNL     1      44.330  -0.685  29.700  1.00  0.00     0.158 HD
ATOM     15  H52 UNL     1      43.009  -1.765  29.321  1.00  0.00     0.158 HD
HETATM   16  N6  UNL     1      43.658  -0.171  32.126  1.00  0.00    -0.064 NA
HETATM   17  C15 UNL     1      42.000  -2.869  32.417  1.00  0.00     0.129 C
HETATM   18  C16 UNL     1      42.960  -3.859  31.900  1.00  0.00     0.026 C
ENDROOT
BRANCH   1  19
HETATM   19  C4  UNL     1      43.860  -5.608  30.507  1.00  0.00     0.127 C
BRANCH  19  20
HETATM   20  N3  UNL     1      43.989  -6.746  31.393  1.00  0.00    -0.364 N
HETATM   21  C3  UNL     1      44.791  -7.873  31.088  1.00  0.00     0.190 C
HETATM   22  N1  UNL     1      45.836  -8.082  31.809  1.00  0.00    -0.302 N
HETATM   23  N2  UNL     1      44.516  -8.785  30.036  1.00  0.00    -0.063 NA
HETATM   24  C2  UNL     1      46.705  -9.181  31.588  1.00  0.00     0.220 C
ATOM     25  H1  UNL     1      46.047  -7.434  32.568  1.00  0.00     0.171 HD
HETATM   26  C1  UNL     1      47.141 -10.063  32.707  1.00  0.00     0.117 C
HETATM   27  O1  UNL     1      47.157  -9.473  30.437  1.00  0.00    -0.274 OA
ATOM     28  H3  UNL     1      43.480  -6.736  32.277  1.00  0.00     0.162 HD
ENDBRANCH  19  20
ENDBRANCH   1  19
TORSDOF 2
ENDMDL