MODEL 5
REMARK VINA RESULT: -5.848907177      3.024      3.794
REMARK  4 active torsions:
REMARK  status: ('A' for Active; 'I' for Inactive)
REMARK       I    between atoms: C1_4  and  N2_5
REMARK       I    between atoms: C1_4  and  N4_17
REMARK    1  A    between atoms: N2_5  and  C2_7
REMARK    2  A    between atoms: C2_7  and  N3_9
REMARK    3  A    between atoms: N3_9  and  C3_11
REMARK    4  A    between atoms: N4_17  and  C8_19
ROOT
HETATM    1  N1  UNL     1      41.645  -0.757  29.662  1.00  0.00    -0.235 N
ATOM      2  H11 UNL     1      41.486  -0.968  28.677  1.00  0.00     0.174 HD
ATOM      3  H12 UNL     1      40.914  -0.345  30.240  1.00  0.00     0.174 HD
HETATM    4  C1  UNL     1      42.790  -1.021  30.168  1.00  0.00     0.674 C
HETATM    5  N2  UNL     1      43.012  -0.727  31.540  1.00  0.00    -0.167 N
ATOM      6  H2  UNL     1      43.429   0.159  31.824  1.00  0.00     0.186 HD
HETATM    7  N4  UNL     1      43.795  -1.587  29.374  1.00  0.00    -0.222 N
ATOM      8  H4  UNL     1      44.680  -1.862  29.800  1.00  0.00     0.178 HD
ENDROOT
BRANCH   5   9
HETATM    9  C2  UNL     1      42.642  -1.693  32.504  1.00  0.00     0.186 C
HETATM   10  S1  UNL     1      42.698  -1.308  34.083  1.00  0.00    -0.040 SA
BRANCH   9  11
HETATM   11  N3  UNL     1      42.232  -2.976  32.086  1.00  0.00    -0.362 N
ATOM     12  H3  UNL     1      41.324  -3.085  31.634  1.00  0.00     0.162 HD
BRANCH  11  13
HETATM   13  C3  UNL     1      43.068  -4.143  32.282  1.00  0.00     0.085 C
HETATM   14  C4  UNL     1      43.420  -4.804  30.972  1.00  0.00     0.026 C
HETATM   15  C5  UNL     1      43.882  -6.180  31.458  1.00  0.00     0.018 C
HETATM   16  C6  UNL     1      42.743  -6.547  32.386  1.00  0.00     0.060 C
HETATM   17 BR1  UNL     1      43.323  -7.783  33.749  1.00  0.00    -0.091 Br
HETATM   18  C7  UNL     1      42.270  -5.244  32.965  1.00  0.00     0.041 C
ENDBRANCH  11  13
ENDBRANCH   9  11
ENDBRANCH   5   9
BRANCH   7  19
HETATM   19  C8  UNL     1      43.594  -1.784  27.961  1.00  0.00     0.103 C
HETATM   20  C9  UNL     1      44.790  -1.205  27.235  1.00  0.00     0.052 C
HETATM   21  C10 UNL     1      44.730  -1.487  25.785  1.00  0.00    -0.029 C
HETATM   22  C11 UNL     1      44.414  -2.719  25.414  1.00  0.00    -0.030 C
HETATM   23  C12 UNL     1      44.144  -3.726  26.444  1.00  0.00     0.029 C
HETATM   24  C13 UNL     1      43.405  -3.245  27.648  1.00  0.00     0.029 C
ENDBRANCH   7  19
TORSDOF 4
ENDMDL