MODEL 3
REMARK VINA RESULT: -5.744943139      2.732      3.709
REMARK  4 active torsions:
REMARK  status: ('A' for Active; 'I' for Inactive)
REMARK       I    between atoms: C1_2  and  N4_19
REMARK       I    between atoms: N2_3  and  C2_5
REMARK       I    between atoms: C2_5  and  N3_7
REMARK    1  A    between atoms: N3_7  and  C3_9
REMARK    2  A    between atoms: N4_19  and  C13_21
REMARK    3  A    between atoms: C13_21  and  N5_23
REMARK    4  A    between atoms: N5_23  and  C14_25
ROOT
HETATM    1  N1  UNL     1      42.736  -0.445  30.438  1.00  0.00    -0.063 NA
HETATM    2  C1  UNL     1      42.574  -1.778  29.910  1.00  0.00     0.198 C
HETATM    3  N2  UNL     1      41.450  -2.408  29.969  1.00  0.00    -0.283 N
ATOM      4  H2  UNL     1      41.348  -3.351  29.592  1.00  0.00     0.173 HD
HETATM    5  C2  UNL     1      40.358  -1.734  30.582  1.00  0.00     0.323 C
HETATM    6  O1  UNL     1      39.523  -1.218  29.799  1.00  0.00    -0.247 OA
HETATM    7  N3  UNL     1      40.202  -1.635  31.991  1.00  0.00    -0.334 N
ATOM      8  H3  UNL     1      40.914  -2.073  32.576  1.00  0.00     0.165 HD
HETATM    9  N4  UNL     1      43.682  -2.408  29.311  1.00  0.00    -0.307 N
ATOM     10  H4  UNL     1      44.327  -2.949  29.886  1.00  0.00     0.171 HD
ENDROOT
BRANCH   7  11
HETATM   11  C3  UNL     1      39.123  -0.969  32.649  1.00  0.00     0.035 C
HETATM   12  C4  UNL     1      37.766  -1.556  32.331  1.00  0.00     0.035 C
HETATM   13  C5  UNL     1      36.712  -0.729  33.024  1.00  0.00    -0.012 C
HETATM   14  C6  UNL     1      36.919  -0.831  34.505  1.00  0.00     0.009 C
HETATM   15  C10 UNL     1      36.723   0.705  32.557  1.00  0.00     0.009 C
HETATM   16  C7  UNL     1      38.258  -0.169  34.830  1.00  0.00    -0.012 C
HETATM   17  C8  UNL     1      38.282   1.261  34.402  1.00  0.00     0.009 C
HETATM   18  C12 UNL     1      39.331  -0.990  34.143  1.00  0.00     0.035 C
HETATM   19  C9  UNL     1      38.064   1.300  32.889  1.00  0.00    -0.012 C
HETATM   20  C11 UNL     1      39.136   0.492  32.241  1.00  0.00     0.035 C
ENDBRANCH   7  11
BRANCH   9  21
HETATM   21  C13 UNL     1      43.904  -2.296  27.928  1.00  0.00     0.174 C
HETATM   22  S1  UNL     1      44.676  -0.950  27.350  1.00  0.00    -0.041 SA
BRANCH  21  23
HETATM   23  N5  UNL     1      43.480  -3.308  27.044  1.00  0.00    -0.354 N
ATOM     24  H5  UNL     1      42.501  -3.591  27.040  1.00  0.00     0.163 HD
BRANCH  23  25
HETATM   25  C14 UNL     1      44.402  -3.945  26.149  1.00  0.00     0.237 C
HETATM   26 CL1  UNL     1      44.150  -3.482  24.458  1.00  0.00    -0.109 Cl
ENDBRANCH  23  25
ENDBRANCH  21  23
ENDBRANCH   9  21
TORSDOF 4
ENDMDL