MODEL 5
REMARK VINA RESULT: -6.205099468      5.359      8.469
REMARK  3 active torsions:
REMARK  status: ('A' for Active; 'I' for Inactive)
REMARK    1  A    between atoms: C6_6  and  N1_7
REMARK       I    between atoms: N1_7  and  C7_9
REMARK       I    between atoms: N3_11  and  C8_13
REMARK       I    between atoms: C8_13  and  N6_24
REMARK       I    between atoms: N4_14  and  C9_16
REMARK       I    between atoms: C9_16  and  N5_18
REMARK    2  A    between atoms: N5_18  and  C10_20
REMARK    3  A    between atoms: N6_24  and  C14_26
ROOT
HETATM    1  N1  UNL     1      43.289  -0.407  33.679  1.00  0.00    -0.359 N
ATOM      2  H1  UNL     1      42.387  -0.117  34.056  1.00  0.00     0.162 HD
HETATM    3  C7  UNL     1      44.470   0.301  34.030  1.00  0.00     0.203 C
HETATM    4  N2  UNL     1      45.012   1.187  33.060  1.00  0.00    -0.063 NA
HETATM    5  N3  UNL     1      44.966   0.102  35.182  1.00  0.00    -0.164 N
ATOM      6  H3  UNL     1      44.468  -0.562  35.775  1.00  0.00     0.187 HD
HETATM    7  C8  UNL     1      46.108   0.681  35.737  1.00  0.00     0.684 C
HETATM    8  N4  UNL     1      46.053   1.612  36.615  1.00  0.00    -0.141 N
ATOM      9  H4  UNL     1      46.917   2.005  36.991  1.00  0.00     0.189 HD
HETATM   10  C9  UNL     1      44.802   2.102  37.071  1.00  0.00     0.335 C
HETATM   11  O1  UNL     1      44.671   3.370  37.054  1.00  0.00    -0.246 OA
HETATM   12  N5  UNL     1      43.739   1.272  37.528  1.00  0.00    -0.334 N
ATOM     13  H5  UNL     1      43.846   0.258  37.540  1.00  0.00     0.165 HD
HETATM   14  N6  UNL     1      47.377   0.184  35.282  1.00  0.00    -0.222 N
ATOM     15  H6  UNL     1      47.768   0.535  34.408  1.00  0.00     0.178 HD
ENDROOT
BRANCH  14  16
HETATM   16  C14 UNL     1      48.112  -0.808  36.046  1.00  0.00     0.091 C
HETATM   17  C15 UNL     1      48.755  -0.187  37.243  1.00  0.00     0.032 C
HETATM   18  C16 UNL     1      49.198  -1.456  35.212  1.00  0.00     0.032 C
ENDBRANCH  14  16
BRANCH   1  19
HETATM   19  C6  UNL     1      43.374  -1.546  32.780  1.00  0.00     0.084 C
HETATM   20  C5  UNL     1      42.886  -1.135  31.437  1.00  0.00     0.025 C
HETATM   21  C4  UNL     1      42.477  -2.294  30.557  1.00  0.00     0.002 C
HETATM   22  C3  UNL     1      42.762  -3.623  31.181  1.00  0.00     0.004 C
HETATM   23  C2  UNL     1      42.059  -3.690  32.513  1.00  0.00    -0.017 C
HETATM   24  C1  UNL     1      40.569  -3.543  32.371  1.00  0.00     0.010 C
HETATM   25  C17 UNL     1      42.639  -2.674  33.431  1.00  0.00     0.029 C
ENDBRANCH   1  19
BRANCH  12  26
HETATM   26  C10 UNL     1      42.514   1.875  37.970  1.00  0.00     0.023 C
HETATM   27  C11 UNL     1      41.776   0.878  38.849  1.00  0.00     0.037 C
HETATM   28  C12 UNL     1      41.725   2.276  36.749  1.00  0.00     0.037 C
HETATM   29  C13 UNL     1      42.837   3.068  38.849  1.00  0.00     0.037 C
ENDBRANCH  12  26
TORSDOF 3
ENDMDL