MODEL 3
REMARK VINA RESULT: -7.532060889      5.603      6.585
REMARK  2 active torsions:
REMARK  status: ('A' for Active; 'I' for Inactive)
REMARK    1  A    between atoms: C4_4  and  N1_5
REMARK       I    between atoms: N1_5  and  C5_7
REMARK       I    between atoms: C5_7  and  N2_9
REMARK    2  A    between atoms: N2_9  and  C6_11
ROOT
HETATM    1  N1  UNL     1      42.723  -0.772  29.280  1.00  0.00    -0.332 N
ATOM      2  H1  UNL     1      42.515   0.114  28.819  1.00  0.00     0.165 HD
HETATM    3  C5  UNL     1      43.891  -1.479  28.927  1.00  0.00     0.322 C
HETATM    4  O1  UNL     1      44.157  -2.565  29.484  1.00  0.00    -0.247 OA
HETATM    5  N2  UNL     1      44.787  -0.986  27.940  1.00  0.00    -0.293 N
ATOM      6  H2  UNL     1      45.583  -0.417  28.228  1.00  0.00     0.172 HD
ENDROOT
BRANCH   1   7
HETATM    7  C4  UNL     1      41.830  -1.271  30.268  1.00  0.00     0.059 C
HETATM    8  C3  UNL     1      40.580  -0.431  30.419  1.00  0.00     0.044 C
HETATM    9  C2  UNL     1      39.676  -1.393  31.156  1.00  0.00    -0.008 C
HETATM   10  C1  UNL     1      38.299  -0.860  31.216  1.00  0.00     0.018 C
HETATM   11  C13 UNL     1      40.222  -1.850  32.481  1.00  0.00     0.212 C
HETATM   12  C16 UNL     1      39.813  -2.642  30.323  1.00  0.00    -0.000 C
HETATM   13  N5  UNL     1      41.590  -2.253  32.414  1.00  0.00    -0.066 N
HETATM   14  C14 UNL     1      39.420  -3.148  32.672  1.00  0.00     0.114 C
HETATM   15  C12 UNL     1      42.438  -1.357  31.667  1.00  0.00     0.263 C
ATOM     16  H52 UNL     1      41.664  -3.201  32.048  1.00  0.00     0.277 HD
ATOM     17  H51 UNL     1      41.964  -2.398  33.352  1.00  0.00     0.277 HD
HETATM   18 CL1  UNL     1      37.803  -2.860  33.258  1.00  0.00    -0.123 Cl
HETATM   19  C15 UNL     1      39.493  -3.748  31.301  1.00  0.00     0.028 C
HETATM   20  C17 UNL     1      41.246  -2.620  29.895  1.00  0.00     0.038 C
ENDBRANCH   1   7
BRANCH   5  21
HETATM   21  C6  UNL     1      44.615  -1.244  26.686  1.00  0.00     0.132 A
HETATM   22  N3  UNL     1      44.590  -0.374  25.671  1.00  0.00    -0.285 N
HETATM   23  N4  UNL     1      44.391  -1.035  24.545  1.00  0.00    -0.303 N
ATOM     24  H3  UNL     1      44.705   0.636  25.752  1.00  0.00     0.188 HD
HETATM   25  C7  UNL     1      44.283  -2.344  24.812  1.00  0.00     0.036 A
ATOM     26  H4  UNL     1      44.329  -0.614  23.617  1.00  0.00     0.186 HD
HETATM   27  C8  UNL     1      44.424  -2.516  26.190  1.00  0.00     0.011 A
HETATM   28  C11 UNL     1      44.069  -3.650  24.153  1.00  0.00     0.059 C
HETATM   29  C9  UNL     1      44.301  -3.975  26.467  1.00  0.00     0.045 C
HETATM   30  C10 UNL     1      44.642  -4.628  25.134  1.00  0.00     0.011 C
ENDBRANCH   5  21
TORSDOF 2
ENDMDL