MODEL 2
REMARK VINA RESULT: -5.178472829      4.328      5.766
REMARK  6 active torsions:
REMARK  status: ('A' for Active; 'I' for Inactive)
REMARK    1  A    between atoms: C4_4  and  C5_5
REMARK    2  A    between atoms: C5_5  and  N2_9
REMARK       I    between atoms: C6_11  and  N4_13
REMARK    3  A    between atoms: N4_13  and  C7_15
REMARK    4  A    between atoms: C7_15  and  N5_17
REMARK    5  A    between atoms: N5_17  and  C8_19
REMARK    6  A    between atoms: C8_19  and  C9_20
ROOT
HETATM    1  N2  UNL     1      43.391  -2.365  30.583  1.00  0.00    -0.320 N
ATOM      2  H2  UNL     1      43.384  -3.266  31.062  1.00  0.00     0.169 HD
HETATM    3  C6  UNL     1      43.796  -2.310  29.369  1.00  0.00     0.195 C
HETATM    4  N3  UNL     1      43.816  -1.069  28.669  1.00  0.00    -0.063 NA
HETATM    5  N4  UNL     1      44.261  -3.491  28.754  1.00  0.00    -0.307 N
ATOM      6  H4  UNL     1      45.100  -3.947  29.113  1.00  0.00     0.171 HD
ENDROOT
BRANCH   1   7
HETATM    7  C5  UNL     1      42.955  -1.216  31.280  1.00  0.00     0.082 C
HETATM    8  N1  UNL     1      43.975  -0.540  31.782  1.00  0.00    -0.388 N
ATOM      9  H12 UNL     1      43.661   0.290  32.285  1.00  0.00     0.157 HD
ATOM     10  H11 UNL     1      44.920  -0.892  31.629  1.00  0.00     0.157 HD
BRANCH   7  11
HETATM   11  C4  UNL     1      41.620  -0.717  31.496  1.00  0.00     0.070 A
HETATM   12  C2  UNL     1      40.989  -1.265  32.807  1.00  0.00    -0.029 A
HETATM   13  C1  UNL     1      41.623  -2.457  33.439  1.00  0.00     0.016 C
HETATM   14  C3  UNL     1      40.520  -0.191  33.765  1.00  0.00     0.016 C
HETATM   15  C10 UNL     1      40.348  -1.397  31.451  1.00  0.00    -0.029 A
HETATM   16  C11 UNL     1      40.059  -2.745  30.942  1.00  0.00     0.016 C
HETATM   17  C12 UNL     1      39.091  -0.505  31.353  1.00  0.00     0.016 C
ENDBRANCH   7  11
ENDBRANCH   1   7
BRANCH   5  18
HETATM   18  C7  UNL     1      43.591  -4.046  27.660  1.00  0.00     0.174 C
HETATM   19  S1  UNL     1      44.069  -3.596  26.164  1.00  0.00    -0.041 SA
BRANCH  18  20
HETATM   20  N5  UNL     1      42.542  -4.955  27.833  1.00  0.00    -0.366 N
ATOM     21  H5  UNL     1      42.043  -5.269  27.001  1.00  0.00     0.161 HD
BRANCH  20  22
HETATM   22  C8  UNL     1      42.117  -5.478  29.110  1.00  0.00     0.133 C
BRANCH  22  23
HETATM   23  C9  UNL     1      42.954  -6.558  29.683  1.00  0.00     0.104 C
HETATM   24 BR1  UNL     1      43.830  -6.123  31.330  1.00  0.00    -0.095 Br
ENDBRANCH  22  23
ENDBRANCH  20  22
ENDBRANCH  18  20
ENDBRANCH   5  18
TORSDOF 6
ENDMDL