MODEL 5
REMARK VINA RESULT: -4.947587553      7.640      8.816
REMARK  1 active torsions:
REMARK  status: ('A' for Active; 'I' for Inactive)
REMARK       I    between atoms: C2_4  and  N2_5
REMARK       I    between atoms: C2_4  and  N5_12
REMARK       I    between atoms: N2_5  and  C3_7
REMARK    1  A    between atoms: N5_12  and  C4_14
ROOT
HETATM    1  C1  UNL     1      43.798  -9.945  32.471  1.00  0.00     0.165 C
HETATM    2  N1  UNL     1      43.346  -8.572  32.463  1.00  0.00    -0.231 N
ATOM      3  H1  UNL     1      42.358  -8.359  32.600  1.00  0.00     0.177 HD
HETATM    4  C2  UNL     1      44.188  -7.623  32.282  1.00  0.00     0.676 C
HETATM    5  N2  UNL     1      45.567  -7.940  32.093  1.00  0.00    -0.164 N
ATOM      6  H2  UNL     1      45.831  -8.400  31.222  1.00  0.00     0.187 HD
HETATM    7  C3  UNL     1      46.592  -7.661  33.025  1.00  0.00     0.200 C
HETATM    8  N3  UNL     1      46.384  -7.888  34.269  1.00  0.00    -0.373 N
ATOM      9  H31 UNL     1      47.125  -7.687  34.941  1.00  0.00     0.158 HD
ATOM     10  H32 UNL     1      45.476  -8.267  34.538  1.00  0.00     0.158 HD
HETATM   11  N4  UNL     1      47.849  -7.136  32.653  1.00  0.00    -0.063 NA
HETATM   12  N5  UNL     1      43.734  -6.263  32.289  1.00  0.00    -0.219 N
ATOM     13  H5  UNL     1      44.316  -5.586  32.782  1.00  0.00     0.178 HD
ENDROOT
BRANCH  12  14
HETATM   14  C4  UNL     1      42.555  -5.766  31.676  1.00  0.00     0.130 C
HETATM   15  C5  UNL     1      41.949  -4.785  32.811  1.00  0.00     0.057 C
HETATM   16 BR1  UNL     1      41.705  -5.466  34.437  1.00  0.00    -0.079 Br
HETATM   17  C6  UNL     1      42.658  -3.655  32.486  1.00  0.00    -0.008 C
HETATM   18  C11 UNL     1      40.535  -4.485  32.074  1.00  0.00     0.028 C
HETATM   19  C7  UNL     1      42.973  -2.997  31.885  1.00  0.00    -0.029 C
HETATM   20  C8  UNL     1      43.051  -2.449  30.636  1.00  0.00     0.032 C
HETATM   21  C9  UNL     1      42.001  -3.744  30.100  1.00  0.00    -0.001 C
HETATM   22  C10 UNL     1      40.808  -3.544  30.921  1.00  0.00     0.007 C
HETATM   23  C12 UNL     1      42.708  -4.993  30.401  1.00  0.00    -0.021 C
HETATM   24  C13 UNL     1      44.177  -4.891  29.941  1.00  0.00     0.017 C
HETATM   25  C14 UNL     1      42.151  -5.972  29.277  1.00  0.00     0.017 C
ENDBRANCH  12  14
TORSDOF 1
ENDMDL