MODEL 3
REMARK VINA RESULT: -6.209794762      5.084      7.256
REMARK  2 active torsions:
REMARK  status: ('A' for Active; 'I' for Inactive)
REMARK    1  A    between atoms: C8_8  and  N1_9
REMARK       I    between atoms: N1_9  and  C9_11
REMARK       I    between atoms: C9_11  and  N2_13
REMARK       I    between atoms: N2_13  and  C10_15
REMARK       I    between atoms: C10_15  and  N3_16
REMARK       I    between atoms: C10_15  and  N4_19
REMARK    2  A    between atoms: C11_21  and  C12_22
ROOT
HETATM    1  N1  UNL     1      43.283  -0.705  32.484  1.00  0.00    -0.337 N
ATOM      2  H1  UNL     1      42.388  -0.879  32.940  1.00  0.00     0.164 HD
HETATM    3  C9  UNL     1      44.312   0.004  33.156  1.00  0.00     0.334 C
HETATM    4  O1  UNL     1      45.412   0.247  32.617  1.00  0.00    -0.246 OA
HETATM    5  N2  UNL     1      44.138   0.506  34.520  1.00  0.00    -0.142 N
ATOM      6  H2  UNL     1      43.290   0.305  35.050  1.00  0.00     0.189 HD
HETATM    7  C10 UNL     1      45.158   1.260  35.066  1.00  0.00     0.679 C
HETATM    8  N3  UNL     1      46.011   1.891  35.523  1.00  0.00    -0.234 N
ATOM      9  H31 UNL     1      46.765   2.448  35.926  1.00  0.00     0.174 HD
ATOM     10  H32 UNL     1      46.507   1.787  34.638  1.00  0.00     0.174 HD
HETATM   11  N4  UNL     1      44.295   1.441  36.610  1.00  0.00    -0.205 N
ATOM     12  H4  UNL     1      44.409   0.930  37.485  1.00  0.00     0.183 HD
HETATM   13  C11 UNL     1      43.498   2.383  36.317  1.00  0.00     0.089 C
ENDROOT
BRANCH   1  14
HETATM   14  C8  UNL     1      43.528  -1.172  31.150  1.00  0.00     0.096 C
HETATM   15  C7  UNL     1      43.360  -2.562  30.748  1.00  0.00     0.022 C
HETATM   16  C2  UNL     1      42.718  -2.081  29.463  1.00  0.00    -0.015 C
HETATM   17  C6  UNL     1      42.323  -3.324  31.566  1.00  0.00     0.016 C
HETATM   18  C1  UNL     1      43.685  -1.761  28.369  1.00  0.00     0.020 C
HETATM   19  C3  UNL     1      41.591  -2.877  28.982  1.00  0.00    -0.020 C
HETATM   20  C13 UNL     1      42.254  -0.863  30.253  1.00  0.00     0.022 C
HETATM   21  C4  UNL     1      40.640  -3.241  29.873  1.00  0.00    -0.025 C
HETATM   22  C5  UNL     1      40.965  -2.723  31.253  1.00  0.00     0.009 C
HETATM   23  C14 UNL     1      41.081  -1.204  31.084  1.00  0.00     0.016 C
ENDBRANCH   1  14
BRANCH  13  24
HETATM   24  C12 UNL     1      42.556   2.849  37.411  1.00  0.00     0.130 C
HETATM   25 BR1  UNL     1      43.170   4.502  38.097  1.00  0.00    -0.091 Br
ENDBRANCH  13  24
TORSDOF 2
ENDMDL