MODEL 5
REMARK VINA RESULT: -6.637533508      4.247      5.147
REMARK  2 active torsions:
REMARK  status: ('A' for Active; 'I' for Inactive)
REMARK    1  A    between atoms: C2_2  and  N1_4
REMARK       I    between atoms: C4_6  and  N3_8
REMARK       I    between atoms: N3_8  and  C5_10
REMARK       I    between atoms: C5_10  and  N4_12
REMARK       I    between atoms: C6_14  and  N6_16
REMARK    2  A    between atoms: N6_16  and  C7_18
ROOT
HETATM    1  N1  UNL     1      43.728  -1.855  29.192  1.00  0.00    -0.360 N
ATOM      2  H1  UNL     1      43.916  -0.932  28.803  1.00  0.00     0.162 HD
HETATM    3  C4  UNL     1      43.600  -1.927  30.447  1.00  0.00     0.192 C
HETATM    4  N2  UNL     1      43.336  -3.168  31.070  1.00  0.00    -0.063 NA
HETATM    5  N3  UNL     1      43.720  -0.761  31.238  1.00  0.00    -0.283 N
ATOM      6  H3  UNL     1      43.910   0.125  30.769  1.00  0.00     0.173 HD
HETATM    7  C5  UNL     1      43.589  -0.762  32.653  1.00  0.00     0.329 C
HETATM    8  O1  UNL     1      43.350  -1.895  33.196  1.00  0.00    -0.247 OA
HETATM    9  N4  UNL     1      43.715   0.420  33.403  1.00  0.00    -0.283 N
ATOM     10  H4  UNL     1      42.858   0.918  33.641  1.00  0.00     0.173 HD
HETATM   11  C6  UNL     1      44.819   0.917  33.808  1.00  0.00     0.192 C
HETATM   12  N5  UNL     1      46.091   0.350  33.563  1.00  0.00    -0.063 NA
HETATM   13  N6  UNL     1      44.771   2.128  34.562  1.00  0.00    -0.355 N
ATOM     14  H6  UNL     1      44.848   3.020  34.072  1.00  0.00     0.163 HD
ENDROOT
BRANCH  13  15
HETATM   15  C7  UNL     1      44.618   2.129  35.984  1.00  0.00     0.035 C
HETATM   16  C8  UNL     1      43.448   1.235  36.340  1.00  0.00     0.035 C
HETATM   17  C9  UNL     1      43.228   1.248  37.829  1.00  0.00    -0.010 C
HETATM   18  C10 UNL     1      44.492   0.808  38.529  1.00  0.00     0.009 C
HETATM   19  C14 UNL     1      42.838   2.629  38.245  1.00  0.00     0.030 C
HETATM   20  C11 UNL     1      45.600   1.760  38.185  1.00  0.00    -0.010 C
HETATM   21  C12 UNL     1      45.224   3.138  38.652  1.00  0.00     0.030 C
HETATM   22  C16 UNL     1      45.879   1.710  36.708  1.00  0.00     0.035 C
HETATM   23  C13 UNL     1      43.968   3.568  37.913  1.00  0.00     0.040 C
HETATM   24 CL1  UNL     1      43.545   5.238  38.336  1.00  0.00    -0.119 Cl
HETATM   25  C15 UNL     1      44.268   3.527  36.439  1.00  0.00     0.056 C
ENDBRANCH  13  15
BRANCH   1  26
HETATM   26  C2  UNL     1      43.635  -2.942  28.261  1.00  0.00     0.076 C
HETATM   27  C1  UNL     1      44.201  -2.598  26.899  1.00  0.00     0.032 C
HETATM   28  C3  UNL     1      42.227  -3.486  28.152  1.00  0.00     0.032 C
ENDBRANCH   1  26
TORSDOF 2
ENDMDL