MODEL 3
REMARK VINA RESULT: -5.815773727      4.434      7.683
REMARK  2 active torsions:
REMARK  status: ('A' for Active; 'I' for Inactive)
REMARK    1  A    between atoms: C2_2  and  N1_3
REMARK       I    between atoms: N1_3  and  C3_5
REMARK       I    between atoms: C3_5  and  N3_9
REMARK       I    between atoms: N3_9  and  C5_11
REMARK       I    between atoms: C5_11  and  N5_15
REMARK    2  A    between atoms: N5_15  and  C6_17
ROOT
HETATM    1  N1  UNL     1      43.499  -3.386  27.276  1.00  0.00    -0.226 N
ATOM      2  H1  UNL     1      43.959  -3.917  26.537  1.00  0.00     0.177 HD
HETATM    3  C3  UNL     1      42.589  -4.038  28.155  1.00  0.00     0.688 C
HETATM    4  N2  UNL     1      42.701  -5.310  28.314  1.00  0.00    -0.230 N
ATOM      5  H2  UNL     1      43.436  -5.801  27.806  1.00  0.00     0.177 HD
HETATM    6  C4  UNL     1      41.833  -6.073  29.181  1.00  0.00     0.165 C
HETATM    7  N3  UNL     1      41.602  -3.281  28.822  1.00  0.00    -0.023 N
ATOM      8  H3  UNL     1      40.818  -2.930  28.271  1.00  0.00     0.203 HD
HETATM    9  C5  UNL     1      41.628  -2.975  30.209  1.00  0.00     0.686 C
HETATM   10  N4  UNL     1      42.705  -2.807  30.868  1.00  0.00    -0.234 N
ATOM     11  H41 UNL     1      42.724  -2.587  31.864  1.00  0.00     0.174 HD
ATOM     12  H42 UNL     1      43.597  -2.892  30.381  1.00  0.00     0.174 HD
HETATM   13  N5  UNL     1      40.389  -2.855  30.886  1.00  0.00    -0.221 N
ATOM     14  H5  UNL     1      40.010  -3.640  31.415  1.00  0.00     0.178 HD
ENDROOT
BRANCH  13  15
HETATM   15  C6  UNL     1      39.660  -1.584  30.814  1.00  0.00     0.103 C
HETATM   16  C7  UNL     1      38.221  -1.820  30.566  1.00  0.00     0.031 C
HETATM   17  C8  UNL     1      37.265  -0.903  31.191  1.00  0.00    -0.006 C
HETATM   18  C9  UNL     1      36.626  -1.555  32.428  1.00  0.00     0.026 C
HETATM   19  C14 UNL     1      37.779   0.151  32.075  1.00  0.00     0.009 C
HETATM   20  C10 UNL     1      37.730  -0.858  33.231  1.00  0.00     0.023 C
HETATM   21 BR1  UNL     1      37.134  -0.154  34.893  1.00  0.00    -0.085 Br
HETATM   22  C11 UNL     1      39.056  -1.530  33.201  1.00  0.00     0.028 C
HETATM   23  C12 UNL     1      39.886  -0.855  32.119  1.00  0.00     0.011 C
HETATM   24  C13 UNL     1      39.214   0.509  31.915  1.00  0.00     0.013 C
ENDBRANCH  13  15
BRANCH   1  25
HETATM   25  C2  UNL     1      43.772  -1.984  27.424  1.00  0.00     0.133 C
HETATM   26  C1  UNL     1      44.639  -1.486  26.319  1.00  0.00     0.027 C
ENDBRANCH   1  25
TORSDOF 2
ENDMDL