MODEL 5
REMARK VINA RESULT: -6.193922960      4.675      6.916
REMARK  5 active torsions:
REMARK  status: ('A' for Active; 'I' for Inactive)
REMARK    1  A    between atoms: N1_2  and  C3_4
REMARK    2  A    between atoms: C3_4  and  C4_8
REMARK    3  A    between atoms: C4_8  and  C5_9
REMARK    4  A    between atoms: C5_9  and  C6_10
REMARK    5  A    between atoms: C8_12  and  N3_13
REMARK       I    between atoms: N3_13  and  C9_15
REMARK       I    between atoms: C9_15  and  N4_17
ROOT
HETATM    1  C6  UNL     1      39.830  -3.553  31.530  1.00  0.00     0.030 A
HETATM    2  C7  UNL     1      40.808  -3.872  30.620  1.00  0.00     0.076 A
HETATM    3  C8  UNL     1      41.952  -3.204  30.985  1.00  0.00     0.125 A
HETATM    4  N6  UNL     1      41.652  -2.505  32.091  1.00  0.00    -0.285 N
ATOM      5  H6  UNL     1      42.298  -1.905  32.603  1.00  0.00     0.188 HD
HETATM    6  N7  UNL     1      40.390  -2.716  32.412  1.00  0.00    -0.303 N
ATOM      7  H7  UNL     1      39.913  -2.303  33.213  1.00  0.00     0.186 HD
ENDROOT
BRANCH   1   8
HETATM    8  C5  UNL     1      38.456  -4.042  31.520  1.00  0.00     0.076 C
BRANCH   8   9
HETATM    9  C4  UNL     1      37.596  -3.525  30.398  1.00  0.00     0.023 C
HETATM   10  C14 UNL     1      36.227  -3.058  30.730  1.00  0.00     0.018 C
HETATM   11  C15 UNL     1      36.684  -1.613  30.661  1.00  0.00     0.002 C
HETATM   12  C16 UNL     1      37.925  -2.121  29.945  1.00  0.00     0.018 C
BRANCH   9  13
HETATM   13  C3  UNL     1      37.607  -4.492  29.273  1.00  0.00     0.081 C
HETATM   14  N2  UNL     1      37.713  -4.185  28.028  1.00  0.00    -0.388 N
ATOM     15  H22 UNL     1      37.721  -4.850  27.254  1.00  0.00     0.157 HD
ATOM     16  H21 UNL     1      37.802  -3.184  27.856  1.00  0.00     0.157 HD
BRANCH  13  17
HETATM   17  N1  UNL     1      37.481  -5.911  29.517  1.00  0.00    -0.379 N
HETATM   18  C1  UNL     1      36.231  -6.473  29.974  1.00  0.00     0.150 C
HETATM   19  C2  UNL     1      38.660  -6.712  29.277  1.00  0.00     0.150 C
ENDBRANCH  13  17
ENDBRANCH   9  13
ENDBRANCH   8   9
ENDBRANCH   1   8
BRANCH   3  20
HETATM   20  N3  UNL     1      43.124  -3.196  30.431  1.00  0.00    -0.293 N
HETATM   21  C9  UNL     1      43.567  -2.103  29.675  1.00  0.00     0.324 C
HETATM   22  O1  UNL     1      43.475  -0.932  30.109  1.00  0.00    -0.247 OA
HETATM   23  N4  UNL     1      44.133  -2.299  28.389  1.00  0.00    -0.331 N
HETATM   24  C10 UNL     1      44.594  -1.198  27.588  1.00  0.00     0.155 C
HETATM   25  C13 UNL     1      44.260  -3.638  27.844  1.00  0.00     0.155 C
HETATM   26  C11 UNL     1      45.164  -1.774  26.296  1.00  0.00     0.252 C
HETATM   27  N5  UNL     1      44.132  -2.577  25.623  1.00  0.00    -0.072 N
HETATM   28  C12 UNL     1      43.742  -3.695  26.430  1.00  0.00     0.252 C
ATOM     29  H52 UNL     1      43.329  -2.008  25.356  1.00  0.00     0.277 HD
ATOM     30  H51 UNL     1      44.431  -2.870  24.693  1.00  0.00     0.277 HD
ATOM     31  H3  UNL     1      43.736  -4.004  30.548  1.00  0.00     0.172 HD
ENDBRANCH   3  20
TORSDOF 5
ENDMDL