MODEL 3
REMARK VINA RESULT: -6.493529246      1.897      3.427
REMARK  5 active torsions:
REMARK  status: ('A' for Active; 'I' for Inactive)
REMARK    1  A    between atoms: C2_2  and  N1_5
REMARK    2  A    between atoms: N1_5  and  C4_7
REMARK    3  A    between atoms: C5_10  and  N3_11
REMARK       I    between atoms: N3_11  and  C6_13
REMARK       I    between atoms: C6_13  and  N4_15
REMARK    4  A    between atoms: N4_15  and  C7_17
REMARK    5  A    between atoms: C12_27  and  C13_28
ROOT
HETATM    1  C4  UNL     1      39.158  -0.186  31.488  1.00  0.00     0.126 A
HETATM    2  N2  UNL     1      40.472  -0.046  31.244  1.00  0.00    -0.176 N
ATOM      3  H2  UNL     1      40.995   0.691  31.716  1.00  0.00     0.186 HD
HETATM    4  C5  UNL     1      41.111  -0.865  30.384  1.00  0.00     0.687 A
HETATM    5  N6  UNL     1      40.436  -1.840  29.756  1.00  0.00    -0.201 N
ATOM      6  H6  UNL     1      40.926  -2.456  29.107  1.00  0.00     0.183 HD
HETATM    7  C11 UNL     1      39.114  -2.014  29.974  1.00  0.00     0.117 A
HETATM    8  C12 UNL     1      38.429  -1.205  30.838  1.00  0.00     0.006 A
ENDROOT
BRANCH   4   9
HETATM    9  N3  UNL     1      42.369  -0.700  30.175  1.00  0.00    -0.141 N
HETATM   10  C6  UNL     1      43.187  -1.641  29.509  1.00  0.00     0.334 C
HETATM   11  O1  UNL     1      43.628  -2.599  30.189  1.00  0.00    -0.246 OA
HETATM   12  N4  UNL     1      43.514  -1.536  28.136  1.00  0.00    -0.336 N
ATOM     13  H4  UNL     1      43.132  -0.740  27.625  1.00  0.00     0.164 HD
ATOM     14  H3  UNL     1      42.802   0.161  30.510  1.00  0.00     0.189 HD
BRANCH  12  15
HETATM   15  C7  UNL     1      44.337  -2.453  27.403  1.00  0.00     0.113 C
HETATM   16  C8  UNL     1      44.743  -1.857  26.083  1.00  0.00     0.054 C
HETATM   17  C9  UNL     1      44.417  -2.937  25.064  1.00  0.00     0.234 C
HETATM   18  N5  UNL     1      44.415  -4.168  25.870  1.00  0.00    -0.073 N
HETATM   19  C10 UNL     1      43.632  -3.725  27.009  1.00  0.00     0.257 C
ATOM     20  H52 UNL     1      44.078  -5.008  25.398  1.00  0.00     0.277 HD
ATOM     21  H51 UNL     1      45.333  -4.559  26.087  1.00  0.00     0.277 HD
ENDBRANCH  12  15
ENDBRANCH   4   9
BRANCH   1  22
HETATM   22  N1  UNL     1      38.493   0.545  32.281  1.00  0.00    -0.353 N
ATOM     23  H1  UNL     1      37.952   1.288  31.837  1.00  0.00     0.163 HD
BRANCH  22  24
HETATM   24  C2  UNL     1      38.389   0.480  33.706  1.00  0.00     0.101 C
HETATM   25  C1  UNL     1      39.194   1.550  34.406  1.00  0.00     0.056 C
HETATM   26  C3  UNL     1      36.965   0.555  34.206  1.00  0.00     0.056 C
HETATM   27 CL1  UNL     1      39.004  -1.137  34.233  1.00  0.00    -0.096 Cl
ENDBRANCH  22  24
ENDBRANCH   1  22
BRANCH   8  28
HETATM   28  C13 UNL     1      36.994  -1.358  31.109  1.00  0.00     0.024 A
HETATM   29  C14 UNL     1      36.472  -2.515  31.938  1.00  0.00     0.010 A
HETATM   30  C15 UNL     1      36.172  -2.404  30.444  1.00  0.00     0.010 A
ENDBRANCH   8  28
TORSDOF 5
ENDMDL