MODEL 3
REMARK VINA RESULT: -6.242693255      6.937      7.506
REMARK  4 active torsions:
REMARK  status: ('A' for Active; 'I' for Inactive)
REMARK    1  A    between atoms: C2_2  and  N1_4
REMARK       I    between atoms: N1_4  and  C4_6
REMARK       I    between atoms: C4_6  and  N2_8
REMARK    2  A    between atoms: N2_8  and  C5_10
REMARK       I    between atoms: N3_13  and  C8_14
REMARK       I    between atoms: C8_14  and  N4_16
REMARK    3  A    between atoms: N4_16  and  C9_18
REMARK    4  A    between atoms: C11_20  and  C12_21
ROOT
HETATM    1  C5  UNL     1      41.162  -1.111  31.147  1.00  0.00     0.105 C
HETATM    2  C6  UNL     1      41.457  -0.701  32.568  1.00  0.00     0.047 C
HETATM    3  C7  UNL     1      40.262   0.110  33.005  1.00  0.00     0.129 C
HETATM    4  N3  UNL     1      39.276  -0.086  31.957  1.00  0.00    -0.332 N
HETATM    5  C8  UNL     1      37.886  -0.185  32.149  1.00  0.00     0.324 C
HETATM    6  O2  UNL     1      37.084  -0.354  31.166  1.00  0.00    -0.247 OA
HETATM    7  N4  UNL     1      37.369  -0.095  33.465  1.00  0.00    -0.293 N
ATOM      8  H4  UNL     1      37.217  -0.935  34.023  1.00  0.00     0.172 HD
HETATM    9  C15 UNL     1      40.060  -0.150  30.740  1.00  0.00     0.152 C
ENDROOT
BRANCH   7  10
HETATM   10  C9  UNL     1      37.093   1.076  33.945  1.00  0.00     0.125 A
HETATM   11  C10 UNL     1      37.644   1.698  35.043  1.00  0.00     0.080 A
HETATM   12  C11 UNL     1      37.060   2.913  35.185  1.00  0.00     0.068 A
HETATM   13  N5  UNL     1      36.167   3.018  34.180  1.00  0.00    -0.300 N
HETATM   14  N6  UNL     1      36.184   1.925  33.440  1.00  0.00    -0.285 N
ATOM     15  H5  UNL     1      35.566   3.825  34.015  1.00  0.00     0.186 HD
ATOM     16  H6  UNL     1      35.602   1.754  32.620  1.00  0.00     0.188 HD
BRANCH  12  17
HETATM   17  C12 UNL     1      37.341   3.919  36.216  1.00  0.00     0.139 C
HETATM   18  C13 UNL     1      36.233   3.938  37.275  1.00  0.00     0.058 C
HETATM   19  C14 UNL     1      38.652   3.680  36.915  1.00  0.00     0.058 C
HETATM   20  F1  UNL     1      37.368   5.172  35.641  1.00  0.00    -0.237 F
ENDBRANCH  12  17
ENDBRANCH   7  10
BRANCH   1  21
HETATM   21  N2  UNL     1      42.322  -1.005  30.299  1.00  0.00    -0.337 N
HETATM   22  C4  UNL     1      42.477  -1.808  29.143  1.00  0.00     0.316 C
HETATM   23  N1  UNL     1      43.627  -1.699  28.325  1.00  0.00    -0.339 N
HETATM   24  O1  UNL     1      41.594  -2.636  28.820  1.00  0.00    -0.247 OA
ATOM     25  H1  UNL     1      44.356  -1.033  28.577  1.00  0.00     0.164 HD
ATOM     26  H2  UNL     1      43.052  -0.333  30.537  1.00  0.00     0.164 HD
BRANCH  23  27
HETATM   27  C2  UNL     1      43.792  -2.515  27.135  1.00  0.00     0.078 C
HETATM   28  C1  UNL     1      44.763  -1.796  26.231  1.00  0.00     0.032 C
HETATM   29  C3  UNL     1      44.376  -3.876  27.512  1.00  0.00     0.032 C
ENDBRANCH  23  27
ENDBRANCH   1  21
TORSDOF 4
ENDMDL