MODEL 2
REMARK VINA RESULT: -6.443962801      8.144     11.497
REMARK  2 active torsions:
REMARK  status: ('A' for Active; 'I' for Inactive)
REMARK       I    between atoms: N3_8  and  C4_10
REMARK       I    between atoms: C4_10  and  N4_12
REMARK    1  A    between atoms: N4_12  and  C5_14
REMARK       I    between atoms: N5_17  and  C8_18
REMARK       I    between atoms: C8_18  and  N6_20
REMARK    2  A    between atoms: N6_20  and  C9_22
ROOT
HETATM    1  C1  UNL     1      45.148  -1.811  26.164  1.00  0.00     0.071 C
HETATM    2  C2  UNL     1      44.231  -1.697  27.330  1.00  0.00     0.047 A
HETATM    3  N1  UNL     1      44.062  -0.636  28.135  1.00  0.00    -0.302 N
ATOM      4  H1  UNL     1      44.547   0.257  28.060  1.00  0.00     0.186 HD
HETATM    5  N2  UNL     1      43.155  -0.956  29.044  1.00  0.00    -0.284 N
ATOM      6  H2  UNL     1      42.831  -0.335  29.786  1.00  0.00     0.188 HD
HETATM    7  C3  UNL     1      42.723  -2.202  28.855  1.00  0.00     0.148 A
HETATM    8  N3  UNL     1      41.839  -2.887  29.530  1.00  0.00    -0.292 N
ATOM      9  H3  UNL     1      41.607  -3.844  29.264  1.00  0.00     0.172 HD
HETATM   10  C4  UNL     1      41.204  -2.270  30.643  1.00  0.00     0.322 C
HETATM   11  O1  UNL     1      41.817  -2.274  31.736  1.00  0.00    -0.247 OA
HETATM   12  N4  UNL     1      39.929  -1.655  30.583  1.00  0.00    -0.338 N
ATOM     13  H4  UNL     1      39.411  -1.638  29.706  1.00  0.00     0.164 HD
HETATM   14  C14 UNL     1      43.399  -2.703  27.759  1.00  0.00     0.103 A
HETATM   15 CL1  UNL     1      43.212  -4.319  27.067  1.00  0.00    -0.078 Cl
ENDROOT
BRANCH  12  16
HETATM   16  C5  UNL     1      39.370  -1.059  31.756  1.00  0.00     0.089 C
HETATM   17  C6  UNL     1      39.542   0.438  31.802  1.00  0.00     0.045 C
HETATM   18  C7  UNL     1      39.143   0.909  33.180  1.00  0.00     0.129 C
HETATM   19  N5  UNL     1      37.974   0.284  33.712  1.00  0.00    -0.334 N
HETATM   20  C8  UNL     1      37.199   0.946  34.707  1.00  0.00     0.318 C
HETATM   21  C12 UNL     1      37.511  -1.038  33.295  1.00  0.00     0.129 C
HETATM   22  O2  UNL     1      36.167   0.392  35.167  1.00  0.00    -0.247 OA
HETATM   23  N6  UNL     1      37.563   2.222  35.194  1.00  0.00    -0.339 N
ATOM     24  H6  UNL     1      38.397   2.687  34.833  1.00  0.00     0.164 HD
HETATM   25  C13 UNL     1      37.857  -1.289  31.846  1.00  0.00     0.045 C
BRANCH  23  26
HETATM   26  C9  UNL     1      36.743   2.877  36.217  1.00  0.00     0.078 C
HETATM   27  C10 UNL     1      36.644   4.359  35.908  1.00  0.00     0.032 C
HETATM   28  C11 UNL     1      37.377   2.630  37.555  1.00  0.00     0.032 C
ENDBRANCH  23  26
ENDBRANCH  12  16
TORSDOF 2
ENDMDL