MODEL 1
REMARK VINA RESULT: -5.554644736      0.000      0.000
REMARK  8 active torsions:
REMARK  status: ('A' for Active; 'I' for Inactive)
REMARK    1  A    between atoms: C2_2  and  N1_4
REMARK    2  A    between atoms: N1_4  and  C3_6
REMARK    3  A    between atoms: C4_11  and  N4_12
REMARK    4  A    between atoms: N4_12  and  C5_14
REMARK    5  A    between atoms: C5_14  and  N5_16
REMARK    6  A    between atoms: N5_16  and  C6_18
REMARK    7  A    between atoms: C6_18  and  C7_19
REMARK    8  A    between atoms: C7_19  and  O1_20
ROOT
HETATM    1  N4  UNL     1      42.484  -5.148  27.938  1.00  0.00    -0.164 N
ATOM      2  H4  UNL     1      42.547  -5.575  27.014  1.00  0.00     0.186 HD
ENDROOT
BRANCH   1   3
HETATM    3  C4  UNL     1      42.938  -3.954  28.147  1.00  0.00     0.714 A
HETATM    4  N3  UNL     1      44.096  -3.453  27.695  1.00  0.00    -0.117 N
HETATM    5  N2  UNL     1      44.213  -2.209  28.112  1.00  0.00    -0.117 N
ATOM      6  H3  UNL     1      44.774  -3.952  27.121  1.00  0.00     0.206 HD
HETATM    7  C3  UNL     1      43.122  -1.914  28.837  1.00  0.00     0.712 A
ATOM      8  H2  UNL     1      44.993  -1.582  27.919  1.00  0.00     0.206 HD
HETATM    9  N6  UNL     1      42.333  -2.994  28.859  1.00  0.00    -0.019 N
ATOM     10  H6  UNL     1      41.434  -3.072  29.333  1.00  0.00     0.203 HD
BRANCH   7  11
HETATM   11  N1  UNL     1      42.874  -0.764  29.422  1.00  0.00    -0.184 N
ATOM     12  H1  UNL     1      43.254   0.108  29.053  1.00  0.00     0.185 HD
BRANCH  11  13
HETATM   13  C2  UNL     1      42.060  -0.774  30.583  1.00  0.00     0.090 C
HETATM   14  C1  UNL     1      40.632  -0.361  30.453  1.00  0.00     0.082 C
HETATM   15  S1  UNL     1      42.595  -1.212  32.066  1.00  0.00    -0.065 SA
ENDBRANCH  11  13
ENDBRANCH   7  11
ENDBRANCH   1   3
BRANCH   1  16
HETATM   16  C5  UNL     1      41.900  -5.848  29.014  1.00  0.00     0.190 C
HETATM   17  S2  UNL     1      42.991  -6.604  30.014  1.00  0.00    -0.040 SA
BRANCH  16  18
HETATM   18  N5  UNL     1      40.537  -5.910  29.234  1.00  0.00    -0.343 N
ATOM     19  H5  UNL     1      40.024  -6.576  28.658  1.00  0.00     0.167 HD
BRANCH  18  20
HETATM   20  C6  UNL     1      39.766  -5.174  30.151  1.00  0.00     0.101 C
BRANCH  20  21
HETATM   21  C7  UNL     1      38.913  -4.130  29.554  1.00  0.00     0.089 C
HETATM   22  C8  UNL     1      38.269  -3.095  30.364  1.00  0.00     0.043 C
HETATM   23  C9  UNL     1      37.238  -2.493  29.372  1.00  0.00     0.004 C
HETATM   24  C10 UNL     1      36.975  -3.596  28.370  1.00  0.00     0.004 C
HETATM   25  C11 UNL     1      37.657  -4.820  28.927  1.00  0.00     0.043 C
BRANCH  21  26
HETATM   26  O1  UNL     1      39.589  -3.475  28.492  1.00  0.00    -0.384 OA
ATOM     27  H1  UNL     1      39.649  -4.041  27.731  1.00  0.00     0.211 HD
ENDBRANCH  21  26
ENDBRANCH  20  21
ENDBRANCH  18  20
ENDBRANCH  16  18
ENDBRANCH   1  16
TORSDOF 8
ENDMDL