MODEL 2
REMARK VINA RESULT: -5.866029580      2.314      3.197
REMARK  4 active torsions:
REMARK  status: ('A' for Active; 'I' for Inactive)
REMARK    1  A    between atoms: C2_2  and  N1_4
REMARK    2  A    between atoms: N1_4  and  C3_6
REMARK    3  A    between atoms: C9_17  and  N5_18
REMARK    4  A    between atoms: C11_22  and  C12_23
ROOT
HETATM    1  C3  UNL     1      41.628  -3.062  31.512  1.00  0.00     0.107 C
HETATM    2  C4  UNL     1      42.716  -4.096  31.535  1.00  0.00     0.148 C
HETATM    3  N2  UNL     1      43.673  -3.659  30.571  1.00  0.00    -0.380 N
HETATM    4  C5  UNL     1      44.005  -4.578  29.566  1.00  0.00     0.064 C
HETATM    5  C6  UNL     1      43.643  -4.188  28.164  1.00  0.00     0.089 C
HETATM    6  C7  UNL     1      43.849  -2.759  27.896  1.00  0.00     0.018 A
HETATM    7  C8  UNL     1      43.796  -1.866  28.918  1.00  0.00     0.059 A
HETATM    8  N3  UNL     1      44.017  -0.662  28.386  1.00  0.00    -0.300 N
ATOM      9  H3  UNL     1      44.039   0.215  28.908  1.00  0.00     0.186 HD
HETATM   10  N4  UNL     1      44.205  -0.774  27.070  1.00  0.00    -0.285 N
ATOM     11  H4  UNL     1      44.393   0.001  26.433  1.00  0.00     0.188 HD
HETATM   12  C9  UNL     1      44.108  -2.077  26.709  1.00  0.00     0.122 A
HETATM   13  C10 UNL     1      43.536  -2.305  30.298  1.00  0.00     0.142 C
HETATM   14  C11 UNL     1      42.220  -1.854  30.834  1.00  0.00     0.049 C
ENDROOT
BRANCH   1  15
HETATM   15  N1  UNL     1      41.047  -2.787  32.788  1.00  0.00    -0.378 N
ATOM     16  H1  UNL     1      40.299  -3.412  33.090  1.00  0.00     0.160 HD
BRANCH  15  17
HETATM   17  C2  UNL     1      41.390  -1.751  33.675  1.00  0.00     0.069 C
HETATM   18  C1  UNL     1      42.587  -1.905  34.531  1.00  0.00     0.081 C
HETATM   19  S1  UNL     1      40.529  -0.387  33.813  1.00  0.00    -0.066 SA
ENDBRANCH  15  17
ENDBRANCH   1  15
BRANCH  14  20
HETATM   20  C12 UNL     1      41.269  -1.368  29.764  1.00  0.00     0.094 C
HETATM   21 BR1  UNL     1      40.139  -2.900  29.310  1.00  0.00    -0.096 Br
ENDBRANCH  14  20
BRANCH  12  22
HETATM   22  N5  UNL     1      44.228  -2.589  25.533  1.00  0.00    -0.384 N
ATOM     23  H52 UNL     1      44.343  -3.572  25.280  1.00  0.00     0.157 HD
ATOM     24  H51 UNL     1      44.227  -2.089  24.644  1.00  0.00     0.157 HD
ENDBRANCH  12  22
TORSDOF 4
ENDMDL