MODEL 2
REMARK VINA RESULT: -6.748287346      1.225      2.450
REMARK  2 active torsions:
REMARK  status: ('A' for Active; 'I' for Inactive)
REMARK    1  A    between atoms: C5_5  and  N1_6
REMARK       I    between atoms: N1_6  and  C6_8
REMARK       I    between atoms: N3_10  and  C7_12
REMARK       I    between atoms: C7_12  and  N4_14
REMARK    2  A    between atoms: N4_14  and  C8_16
ROOT
HETATM    1  N1  UNL     1      44.923   0.207  35.262  1.00  0.00    -0.360 N
ATOM      2  H1  UNL     1      45.833  -0.198  35.481  1.00  0.00     0.162 HD
HETATM    3  C6  UNL     1      44.415   0.110  33.952  1.00  0.00     0.192 C
HETATM    4  N2  UNL     1      44.735   1.131  33.022  1.00  0.00    -0.063 NA
HETATM    5  N3  UNL     1      43.677  -0.868  33.578  1.00  0.00    -0.283 N
ATOM      6  H3  UNL     1      43.438  -1.611  34.235  1.00  0.00     0.173 HD
HETATM    7  C7  UNL     1      43.197  -0.912  32.249  1.00  0.00     0.323 C
HETATM    8  O1  UNL     1      42.122  -0.321  31.981  1.00  0.00    -0.247 OA
HETATM    9  N4  UNL     1      43.872  -1.592  31.202  1.00  0.00    -0.335 N
ATOM     10  H4  UNL     1      44.746  -2.076  31.407  1.00  0.00     0.164 HD
ENDROOT
BRANCH   1  11
HETATM   11  C5  UNL     1      44.167   0.875  36.300  1.00  0.00     0.088 C
HETATM   12  C4  UNL     1      42.688   0.945  35.979  1.00  0.00     0.055 C
HETATM   13  C2  UNL     1      41.979   1.484  37.172  1.00  0.00     0.021 C
HETATM   14  C1  UNL     1      41.248   0.306  37.833  1.00  0.00     0.037 C
HETATM   15  C3  UNL     1      40.864   2.430  36.710  1.00  0.00     0.037 C
HETATM   16  N5  UNL     1      42.777   2.102  38.150  1.00  0.00    -0.405 N
HETATM   17  C14 UNL     1      43.900   2.850  37.721  1.00  0.00     0.021 C
ATOM     18  H5  UNL     1      42.554   2.015  39.141  1.00  0.00     0.154 HD
HETATM   19  C13 UNL     1      44.624   2.283  36.531  1.00  0.00     0.055 C
HETATM   20  C15 UNL     1      44.906   2.886  38.870  1.00  0.00     0.037 C
HETATM   21  C16 UNL     1      43.474   4.283  37.478  1.00  0.00     0.037 C
ENDBRANCH   1  11
BRANCH   9  22
HETATM   22  C8  UNL     1      43.357  -1.618  29.862  1.00  0.00     0.128 C
HETATM   23  C9  UNL     1      44.448  -1.286  28.851  1.00  0.00     0.036 C
HETATM   24  C10 UNL     1      43.844  -1.740  27.552  1.00  0.00     0.083 C
HETATM   25  C11 UNL     1      43.134  -2.991  27.942  1.00  0.00     0.162 C
HETATM   26  O2  UNL     1      42.778  -3.821  27.129  1.00  0.00    -0.295 OA
HETATM   27  C12 UNL     1      42.961  -3.017  29.421  1.00  0.00     0.262 C
HETATM   28  F1  UNL     1      43.861  -3.886  29.977  1.00  0.00    -0.239 F
ENDBRANCH   9  22
TORSDOF 2
ENDMDL