MODEL 4
REMARK VINA RESULT: -5.606178889      3.136      7.128
REMARK  3 active torsions:
REMARK  status: ('A' for Active; 'I' for Inactive)
REMARK       I    between atoms: C2_3  and  N2_4
REMARK       I    between atoms: N2_4  and  C3_5
REMARK       I    between atoms: C3_5  and  N3_7
REMARK    1  A    between atoms: N3_7  and  C4_9
REMARK    2  A    between atoms: N4_12  and  C7_14
REMARK    3  A    between atoms: C12_22  and  C13_23
ROOT
HETATM    1  C1  UNL     1      43.057  -4.123  31.163  1.00  0.00     0.234 C
HETATM    2  N1  UNL     1      43.348  -2.886  31.089  1.00  0.00    -0.384 NA
HETATM    3  C2  UNL     1      43.596  -1.648  31.135  1.00  0.00     0.335 C
HETATM    4  N2  UNL     1      44.151  -1.413  29.810  1.00  0.00    -0.303 NA
HETATM    5  C3  UNL     1      44.667  -1.193  28.580  1.00  0.00     0.397 C
HETATM    6  O1  UNL     1      45.410  -0.302  28.166  1.00  0.00    -0.230 OA
HETATM    7  N3  UNL     1      44.215  -2.214  27.573  1.00  0.00    -0.327 N
ATOM      8  H3  UNL     1      43.432  -2.803  27.857  1.00  0.00     0.165 HD
HETATM    9  N4  UNL     1      43.399  -0.752  32.147  1.00  0.00    -0.333 N
ATOM     10  H4  UNL     1      43.840   0.167  32.103  1.00  0.00     0.165 HD
ENDROOT
BRANCH   9  11
HETATM   11  C7  UNL     1      42.572  -1.097  33.279  1.00  0.00     0.094 C
HETATM   12  C8  UNL     1      41.294  -0.277  33.469  1.00  0.00     0.059 C
HETATM   13  C9  UNL     1      41.095  -0.313  34.964  1.00  0.00     0.193 C
HETATM   14  N5  UNL     1      41.042  -1.714  35.375  1.00  0.00    -0.070 N
HETATM   15  C12 UNL     1      42.510  -0.026  35.406  1.00  0.00     0.034 C
HETATM   16  C10 UNL     1      42.435  -2.249  35.362  1.00  0.00     0.239 C
ATOM     17  H52 UNL     1      40.577  -1.845  36.274  1.00  0.00     0.277 HD
ATOM     18  H51 UNL     1      40.401  -2.268  34.808  1.00  0.00     0.277 HD
HETATM   19  C11 UNL     1      43.190  -1.115  34.610  1.00  0.00     0.041 C
BRANCH  15  20
HETATM   20  C13 UNL     1      43.072   1.305  35.216  1.00  0.00     0.092 C
HETATM   21 BR1  UNL     1      44.986   1.146  35.269  1.00  0.00    -0.096 Br
ENDBRANCH  15  20
ENDBRANCH   9  11
BRANCH   7  22
HETATM   22  C4  UNL     1      44.737  -2.465  26.277  1.00  0.00     0.079 C
HETATM   23  C5  UNL     1      44.363  -1.385  25.319  1.00  0.00     0.032 C
HETATM   24  C6  UNL     1      44.109  -3.762  25.716  1.00  0.00     0.032 C
ENDBRANCH   7  22
TORSDOF 2
ENDMDL