MODEL 2
REMARK VINA RESULT: -7.146931256      1.860      2.725
REMARK  3 active torsions:
REMARK  status: ('A' for Active; 'I' for Inactive)
REMARK    1  A    between atoms: C10_14  and  O1_15
REMARK    2  A    between atoms: C14_23  and  C15_24
REMARK    3  A    between atoms: C15_24  and  C16_25
ROOT
HETATM    1  C1  UNL     1      38.824   0.686  31.964  1.00  0.00     0.037 C
HETATM    2  C2  UNL     1      39.716  -0.526  31.698  1.00  0.00     0.111 C
HETATM    3  C3  UNL     1      40.761  -0.226  30.647  1.00  0.00     0.080 C
HETATM    4  N1  UNL     1      40.726  -1.182  29.664  1.00  0.00    -0.395 N
ATOM      5  H1  UNL     1      39.881  -1.192  29.091  1.00  0.00     0.159 HD
HETATM    6  C4  UNL     1      41.679  -2.139  29.338  1.00  0.00     0.088 C
HETATM    7  C5  UNL     1      40.923  -3.380  28.926  1.00  0.00     0.026 C
HETATM    8  C6  UNL     1      41.663  -4.645  29.131  1.00  0.00     0.010 C
HETATM    9  C7  UNL     1      42.092  -4.744  30.526  1.00  0.00     0.030 C
HETATM   10  C8  UNL     1      41.190  -4.304  31.631  1.00  0.00     0.036 C
HETATM   11  C9  UNL     1      42.491  -3.862  32.271  1.00  0.00     0.124 C
HETATM   12  N2  UNL     1      42.491  -3.016  33.374  1.00  0.00    -0.365 N
ATOM     13  H2  UNL     1      42.541  -3.551  34.241  1.00  0.00     0.161 HD
HETATM   14  C10 UNL     1      42.442  -1.646  33.640  1.00  0.00     0.134 C
HETATM   15  C11 UNL     1      41.363  -0.633  33.499  1.00  0.00     0.147 C
HETATM   16  C12 UNL     1      41.031  -0.191  34.945  1.00  0.00     0.040 C
HETATM   17  N3  UNL     1      40.166  -0.997  32.926  1.00  0.00    -0.402 N
ATOM     18  H3  UNL     1      39.573  -1.653  33.434  1.00  0.00     0.154 HD
HETATM   19  C13 UNL     1      43.033  -3.579  30.937  1.00  0.00     0.133 C
HETATM   20  F1  UNL     1      44.301  -4.135  30.837  1.00  0.00    -0.240 F
HETATM   21  C14 UNL     1      42.865  -2.356  30.227  1.00  0.00     0.055 C
ENDROOT
BRANCH  21  22
HETATM   22  C15 UNL     1      44.050  -1.865  29.436  1.00  0.00     0.050 C
BRANCH  22  23
HETATM   23  C16 UNL     1      44.132  -2.123  28.016  1.00  0.00    -0.041 A
HETATM   24  C17 UNL     1      44.333  -3.364  27.400  1.00  0.00     0.025 A
HETATM   25  C18 UNL     1      44.452  -3.218  26.041  1.00  0.00     0.088 A
HETATM   26  N4  UNL     1      44.326  -1.901  25.811  1.00  0.00    -0.375 N
HETATM   27  C19 UNL     1      44.137  -1.242  26.959  1.00  0.00     0.094 A
ATOM     28  H4  UNL     1      44.367  -1.466  24.890  1.00  0.00     0.164 HD
ENDBRANCH  22  23
ENDBRANCH  21  22
BRANCH  14  29
HETATM   29  O1  UNL     1      43.524  -1.096  34.106  1.00  0.00    -0.348 OA
ATOM     30  H1  UNL     1      43.428  -0.261  34.549  1.00  0.00     0.219 HD
ENDBRANCH  14  29
TORSDOF 3
ENDMDL