MODEL 2
REMARK VINA RESULT: -6.846875559      1.241      1.773
REMARK  4 active torsions:
REMARK  status: ('A' for Active; 'I' for Inactive)
REMARK    1  A    between atoms: C2_2  and  N1_3
REMARK    2  A    between atoms: N1_3  and  C3_5
REMARK    3  A    between atoms: C6_10  and  N3_11
REMARK    4  A    between atoms: N3_11  and  C7_13
ROOT
HETATM    1  C3  UNL     1      41.553  -2.150  30.203  1.00  0.00     0.118 A
HETATM    2  C4  UNL     1      40.614  -1.209  29.870  1.00  0.00     0.066 A
HETATM    3  C5  UNL     1      40.169  -0.290  30.802  1.00  0.00     0.110 A
HETATM    4  N2  UNL     1      40.661  -0.321  32.046  1.00  0.00    -0.202 N
ATOM      5  H2  UNL     1      40.338   0.353  32.741  1.00  0.00     0.183 HD
HETATM    6  C6  UNL     1      41.578  -1.235  32.378  1.00  0.00     0.681 A
HETATM    7  N6  UNL     1      42.019  -2.131  31.490  1.00  0.00    -0.177 N
ATOM      8  H6  UNL     1      42.718  -2.816  31.778  1.00  0.00     0.185 HD
ENDROOT
BRANCH   6   9
HETATM    9  N3  UNL     1      42.083  -1.306  33.565  1.00  0.00    -0.205 N
ATOM     10  H3  UNL     1      42.216  -2.240  33.952  1.00  0.00     0.179 HD
BRANCH   9  11
HETATM   11  C7  UNL     1      42.474  -0.210  34.389  1.00  0.00     0.196 C
HETATM   12  C8  UNL     1      43.920   0.104  34.120  1.00  0.00     0.075 C
HETATM   13  C9  UNL     1      44.337   1.419  34.748  1.00  0.00     0.240 C
HETATM   14  N4  UNL     1      44.954   1.209  36.043  1.00  0.00    -0.073 N
HETATM   15  C10 UNL     1      46.097   0.345  35.996  1.00  0.00     0.272 C
HETATM   16  C11 UNL     1      45.408   2.524  36.495  1.00  0.00     0.272 C
HETATM   17  C12 UNL     1      43.956   0.770  36.978  1.00  0.00     0.255 C
HETATM   18  C13 UNL     1      43.343  -0.560  36.621  1.00  0.00     0.144 C
HETATM   19  N5  UNL     1      42.195  -0.466  35.780  1.00  0.00    -0.399 N
ATOM     20  H5  UNL     1      41.246  -0.572  36.138  1.00  0.00     0.155 HD
ENDBRANCH   9  11
ENDBRANCH   6   9
BRANCH   1  21
HETATM   21  N1  UNL     1      42.005  -3.014  29.410  1.00  0.00    -0.367 N
ATOM     22  H1  UNL     1      41.309  -3.682  29.078  1.00  0.00     0.162 HD
BRANCH  21  23
HETATM   23  C2  UNL     1      43.318  -3.231  28.888  1.00  0.00     0.028 C
HETATM   24  C1  UNL     1      43.979  -4.372  29.678  1.00  0.00     0.038 C
HETATM   25  C14 UNL     1      43.149  -3.763  27.496  1.00  0.00     0.033 C
HETATM   26  C15 UNL     1      44.131  -3.268  26.493  1.00  0.00     0.039 C
HETATM   27  C16 UNL     1      44.038  -1.735  26.553  1.00  0.00     0.170 C
HETATM   28  F1  UNL     1      44.661  -1.181  25.482  1.00  0.00    -0.249 F
HETATM   29  C17 UNL     1      44.718  -1.381  27.834  1.00  0.00     0.039 C
HETATM   30  C18 UNL     1      44.141  -2.019  29.039  1.00  0.00     0.033 C
ENDBRANCH  21  23
ENDBRANCH   1  21
TORSDOF 4
ENDMDL