MODEL 4
REMARK VINA RESULT: -6.665125879      4.059      7.076
REMARK  7 active torsions:
REMARK  status: ('A' for Active; 'I' for Inactive)
REMARK    1  A    between atoms: C6_10  and  N3_11
REMARK       I    between atoms: N3_11  and  C7_13
REMARK       I    between atoms: C7_13  and  N6_24
REMARK    2  A    between atoms: N4_14  and  C8_16
REMARK    3  A    between atoms: C8_16  and  C10_18
REMARK    4  A    between atoms: C10_18  and  C11_19
REMARK    5  A    between atoms: C11_19  and  N5_20
REMARK    6  A    between atoms: N6_24  and  C12_26
REMARK    7  A    between atoms: N7_29  and  C15_30
ROOT
HETATM    1  C1  UNL     1      43.035  -0.947  31.291  1.00  0.00     0.018 C
HETATM    2  C2  UNL     1      42.041  -1.425  30.852  1.00  0.00    -0.072 C
HETATM    3  C3  UNL     1      40.837  -1.982  30.305  1.00  0.00     0.086 A
HETATM    4  C4  UNL     1      39.596  -1.377  30.396  1.00  0.00     0.044 A
HETATM    5  C5  UNL     1      39.301  -0.082  31.061  1.00  0.00     0.071 C
HETATM    6  N1  UNL     1      38.712  -2.169  29.775  1.00  0.00    -0.302 N
ATOM      7  H1  UNL     1      37.713  -1.990  29.675  1.00  0.00     0.186 HD
HETATM    8  N2  UNL     1      39.359  -3.219  29.316  1.00  0.00    -0.284 N
ATOM      9  H2  UNL     1      38.921  -3.984  28.801  1.00  0.00     0.188 HD
HETATM   10  C6  UNL     1      40.664  -3.159  29.611  1.00  0.00     0.156 A
ENDROOT
BRANCH  10  11
HETATM   11  N3  UNL     1      41.523  -4.024  29.304  1.00  0.00    -0.174 N
HETATM   12  C7  UNL     1      42.887  -4.095  29.543  1.00  0.00     0.676 C
HETATM   13  N4  UNL     1      43.704  -3.656  28.655  1.00  0.00    -0.222 N
HETATM   14  N6  UNL     1      43.438  -4.656  30.752  1.00  0.00    -0.222 N
ATOM     15  H4  UNL     1      44.707  -3.710  28.833  1.00  0.00     0.178 HD
ATOM     16  H6  UNL     1      44.155  -4.129  31.251  1.00  0.00     0.178 HD
ATOM     17  H3  UNL     1      41.149  -4.818  28.784  1.00  0.00     0.186 HD
BRANCH  13  18
HETATM   18  C8  UNL     1      43.245  -3.095  27.427  1.00  0.00     0.096 C
HETATM   19  C9  UNL     1      43.746  -3.884  26.214  1.00  0.00     0.032 C
BRANCH  18  20
HETATM   20  C10 UNL     1      43.756  -1.680  27.236  1.00  0.00     0.052 C
BRANCH  20  21
HETATM   21  C11 UNL     1      44.552  -1.674  25.948  1.00  0.00     0.231 C
BRANCH  21  22
HETATM   22  N5  UNL     1      43.960  -0.722  25.010  1.00  0.00    -0.079 N
ATOM     23  H53 UNL     1      44.407  -0.753  24.094  1.00  0.00     0.274 HD
ATOM     24  H52 UNL     1      43.020  -0.998  24.724  1.00  0.00     0.274 HD
ATOM     25  H51 UNL     1      43.979   0.214  25.415  1.00  0.00     0.274 HD
ENDBRANCH  21  22
ENDBRANCH  20  21
ENDBRANCH  18  20
ENDBRANCH  13  18
BRANCH  14  26
HETATM   26  C12 UNL     1      43.022  -5.918  31.280  1.00  0.00     0.102 C
HETATM   27  C13 UNL     1      44.058  -6.454  32.208  1.00  0.00     0.045 C
HETATM   28  C14 UNL     1      44.879  -7.565  31.642  1.00  0.00     0.126 C
HETATM   29  N7  UNL     1      44.071  -8.619  31.096  1.00  0.00    -0.367 N
HETATM   30  C17 UNL     1      42.720  -8.330  30.679  1.00  0.00     0.083 C
HETATM   31  C18 UNL     1      41.746  -8.544  31.805  1.00  0.00     0.032 C
HETATM   32  C19 UNL     1      42.682  -6.909  30.165  1.00  0.00     0.050 C
BRANCH  29  33
HETATM   33  C15 UNL     1      44.593  -9.926  30.967  1.00  0.00     0.069 C
HETATM   34  C16 UNL     1      44.910 -10.759  32.159  1.00  0.00     0.088 C
HETATM   35  N8  UNL     1      44.785 -10.373  29.773  1.00  0.00    -0.389 N
ATOM     36  H82 UNL     1      44.568  -9.803  28.956  1.00  0.00     0.157 HD
ATOM     37  H81 UNL     1      45.161 -11.316  29.679  1.00  0.00     0.157 HD
ENDBRANCH  29  33
ENDBRANCH  14  26
ENDBRANCH  10  11
TORSDOF 7
ENDMDL