MODEL 1
REMARK VINA RESULT: -7.419991765      0.000      0.000
REMARK  4 active torsions:
REMARK  status: ('A' for Active; 'I' for Inactive)
REMARK    1  A    between atoms: C16_17  and  N1_18
REMARK       I    between atoms: N1_18  and  C17_20
REMARK       I    between atoms: C17_20  and  N6_30
REMARK    2  A    between atoms: N2_21  and  C18_23
REMARK    3  A    between atoms: C18_23  and  C19_24
REMARK    4  A    between atoms: C19_24  and  N3_25
ROOT
HETATM    1  C1  UNL     1      45.929   2.714  39.602  1.00  0.00     0.097 C
HETATM    2  C2  UNL     1      45.064   2.007  39.107  1.00  0.00    -0.182 C
HETATM    3  C3  UNL     1      44.043   1.141  38.509  1.00  0.00     0.062 C
HETATM    4  C4  UNL     1      43.188   0.526  39.572  1.00  0.00     0.043 C
HETATM    5  C5  UNL     1      41.746   0.730  39.437  1.00  0.00    -0.026 C
HETATM    6  C6  UNL     1      41.094   1.115  38.359  1.00  0.00     0.012 C
HETATM    7  C7  UNL     1      41.960   1.371  37.135  1.00  0.00     0.126 C
HETATM    8  F1  UNL     1      41.249   2.272  36.370  1.00  0.00    -0.238 F
HETATM    9  C8  UNL     1      42.019   0.066  36.496  1.00  0.00     0.049 C
HETATM   10  C9  UNL     1      42.937  -0.254  35.404  1.00  0.00     0.014 C
HETATM   11  C10 UNL     1      43.089   0.800  34.335  1.00  0.00     0.038 C
HETATM   12  C11 UNL     1      44.313   1.553  34.700  1.00  0.00    -0.075 C
HETATM   13  C12 UNL     1      44.605   2.401  35.657  1.00  0.00    -0.023 C
HETATM   14  C13 UNL     1      43.894   2.981  36.775  1.00  0.00     0.037 C
HETATM   15  C14 UNL     1      43.155   2.041  37.671  1.00  0.00     0.048 C
HETATM   16  C15 UNL     1      45.008   0.939  33.565  1.00  0.00     0.060 C
HETATM   17  C16 UNL     1      43.705   0.428  33.049  1.00  0.00     0.111 C
ENDROOT
BRANCH  17  18
HETATM   18  N1  UNL     1      43.666  -0.920  32.603  1.00  0.00    -0.221 N
HETATM   19  C17 UNL     1      42.859  -1.221  31.436  1.00  0.00     0.673 C
HETATM   20  N2  UNL     1      43.397  -1.237  30.314  1.00  0.00    -0.204 N
HETATM   21  N6  UNL     1      41.475  -1.489  31.625  1.00  0.00    -0.231 N
ATOM     22  H2  UNL     1      44.392  -1.022  30.377  1.00  0.00     0.183 HD
HETATM   23  C21 UNL     1      40.585  -0.371  31.909  1.00  0.00     0.165 C
ATOM     24  H6  UNL     1      41.114  -2.441  31.564  1.00  0.00     0.177 HD
ATOM     25  H1  UNL     1      44.188  -1.651  33.087  1.00  0.00     0.178 HD
BRANCH  20  26
HETATM   26  C18 UNL     1      43.008  -1.468  28.994  1.00  0.00     0.098 C
BRANCH  26  27
HETATM   27  C19 UNL     1      44.089  -1.689  27.978  1.00  0.00     0.167 C
BRANCH  27  28
HETATM   28  N3  UNL     1      43.905  -0.764  26.863  1.00  0.00    -0.362 N
HETATM   29  C20 UNL     1      44.083  -1.104  25.640  1.00  0.00     0.197 C
HETATM   30  N4  UNL     1      43.870  -0.104  24.650  1.00  0.00    -0.067 NA
HETATM   31  N5  UNL     1      44.474  -2.399  25.218  1.00  0.00    -0.067 NA
ATOM     32  H3  UNL     1      43.623   0.195  27.067  1.00  0.00     0.162 HD
ENDBRANCH  27  28
ENDBRANCH  26  27
ENDBRANCH  20  26
ENDBRANCH  17  18
TORSDOF 4
ENDMDL