MODEL 2
REMARK VINA RESULT: -6.004855941      5.810      8.014
REMARK  8 active torsions:
REMARK  status: ('A' for Active; 'I' for Inactive)
REMARK    1  A    between atoms: C2_2  and  N1_3
REMARK    2  A    between atoms: C2_2  and  C3_7
REMARK    3  A    between atoms: C4_8  and  C5_9
REMARK    4  A    between atoms: C12_16  and  C13_17
REMARK    5  A    between atoms: C13_17  and  C14_18
REMARK    6  A    between atoms: C13_17  and  C16_25
REMARK       I    between atoms: C14_18  and  N2_20
REMARK    7  A    between atoms: C16_25  and  O2_26
REMARK    8  A    between atoms: C16_25  and  C17_28
ROOT
HETATM    1  C5  UNL     1      37.427  -1.451  31.091  1.00  0.00     0.024 C
HETATM    2  C6  UNL     1      36.383  -1.295  29.973  1.00  0.00     0.029 C
HETATM    3  C7  UNL     1      36.983  -2.608  31.922  1.00  0.00     0.022 C
HETATM    4  C8  UNL     1      38.106  -3.266  32.647  1.00  0.00     0.002 C
HETATM    5  C9  UNL     1      39.355  -3.488  31.870  1.00  0.00     0.010 C
HETATM    6  C10 UNL     1      39.464  -2.888  30.516  1.00  0.00    -0.034 C
HETATM    7  C11 UNL     1      38.699  -3.538  29.420  1.00  0.00     0.016 C
HETATM    8  C12 UNL     1      40.781  -2.417  30.057  1.00  0.00     0.010 C
HETATM    9  C18 UNL     1      41.172  -1.387  31.107  1.00  0.00     0.007 C
HETATM   10  C19 UNL     1      39.825  -0.861  31.557  1.00  0.00     0.007 C
HETATM   11  C20 UNL     1      38.811  -1.469  30.645  1.00  0.00     0.014 C
ENDROOT
BRANCH   8  12
HETATM   12  C13 UNL     1      41.857  -3.174  29.493  1.00  0.00     0.113 C
BRANCH  12  13
HETATM   13  C14 UNL     1      42.851  -2.166  28.930  1.00  0.00     0.230 C
HETATM   14  O1  UNL     1      43.273  -1.277  29.699  1.00  0.00    -0.273 OA
HETATM   15  N2  UNL     1      43.309  -2.185  27.614  1.00  0.00    -0.303 N
HETATM   16  C15 UNL     1      44.056  -1.364  27.027  1.00  0.00     0.203 C
ATOM     17  H2  UNL     1      42.994  -2.974  27.051  1.00  0.00     0.171 HD
HETATM   18  N3  UNL     1      44.574  -0.204  27.703  1.00  0.00    -0.066 NA
HETATM   19  N4  UNL     1      44.426  -1.537  25.673  1.00  0.00    -0.066 NA
ENDBRANCH  12  13
BRANCH  12  20
HETATM   20  C16 UNL     1      42.598  -4.283  30.129  1.00  0.00     0.145 C
BRANCH  20  21
HETATM   21  O2  UNL     1      43.991  -4.115  29.685  1.00  0.00    -0.394 OA
ATOM     22  H2  UNL     1      43.929  -3.770  28.803  1.00  0.00     0.210 HD
ENDBRANCH  20  21
BRANCH  20  23
HETATM   23  C17 UNL     1      42.388  -5.674  29.571  1.00  0.00     0.147 C
HETATM   24 CL1  UNL     1      40.833  -6.364  30.093  1.00  0.00    -0.128 Cl
ENDBRANCH  20  23
ENDBRANCH  12  20
ENDBRANCH   8  12
BRANCH   1  25
HETATM   25  C4  UNL     1      37.254  -0.211  31.900  1.00  0.00    -0.094 C
HETATM   26  C3  UNL     1      37.093   0.789  32.562  1.00  0.00    -0.073 C
BRANCH  26  27
HETATM   27  C2  UNL     1      36.913   2.011  33.344  1.00  0.00     0.257 C
HETATM   28  C1  UNL     1      37.857   1.928  34.520  1.00  0.00     0.053 C
BRANCH  27  29
HETATM   29  N1  UNL     1      35.532   2.010  33.816  1.00  0.00    -0.065 N
ATOM     30  H13 UNL     1      35.134   1.071  33.834  1.00  0.00     0.275 HD
ATOM     31  H12 UNL     1      35.468   2.217  34.812  1.00  0.00     0.275 HD
ATOM     32  H11 UNL     1      34.973   2.651  33.253  1.00  0.00     0.275 HD
ENDBRANCH  27  29
ENDBRANCH  26  27
ENDBRANCH   1  25
TORSDOF 8
ENDMDL