MODEL 3
REMARK VINA RESULT: -6.865694980      1.377      1.705
REMARK  5 active torsions:
REMARK  status: ('A' for Active; 'I' for Inactive)
REMARK    1  A    between atoms: C1_2  and  C2_4
REMARK    2  A    between atoms: C2_4  and  N2_5
REMARK    3  A    between atoms: C2_4  and  C10_21
REMARK       I    between atoms: N2_5  and  C3_7
REMARK       I    between atoms: N4_9  and  C4_11
REMARK       I    between atoms: C4_11  and  N5_13
REMARK    4  A    between atoms: N5_13  and  N6_15
REMARK    5  A    between atoms: N6_15  and  C5_16
ROOT
HETATM    1  N2  UNL     1      43.357  -0.334  31.842  1.00  0.00    -0.351 N
ATOM      2  H2  UNL     1      43.760   0.242  31.103  1.00  0.00     0.163 HD
HETATM    3  C3  UNL     1      43.757  -0.077  33.179  1.00  0.00     0.192 C
HETATM    4  N3  UNL     1      42.970  -0.500  34.279  1.00  0.00    -0.063 NA
HETATM    5  N4  UNL     1      44.852   0.550  33.450  1.00  0.00    -0.282 N
ATOM      6  H4  UNL     1      45.432   0.860  32.670  1.00  0.00     0.173 HD
HETATM    7  C4  UNL     1      45.295   0.831  34.753  1.00  0.00     0.338 C
HETATM    8  O2  UNL     1      44.484   1.333  35.583  1.00  0.00    -0.246 OA
HETATM    9  N5  UNL     1      46.623   0.582  35.205  1.00  0.00    -0.255 N
ATOM     10  H5  UNL     1      47.294   0.177  34.552  1.00  0.00     0.187 HD
ENDROOT
BRANCH   1  11
HETATM   11  C2  UNL     1      42.417  -1.358  31.462  1.00  0.00     0.177 C
BRANCH  11  12
HETATM   12  C1  UNL     1      41.060  -0.855  31.220  1.00  0.00     0.254 C
HETATM   13  N1  UNL     1      40.024  -1.306  32.107  1.00  0.00    -0.060 NA
HETATM   14  O1  UNL     1      40.713  -0.076  30.322  1.00  0.00    -0.275 OA
ENDBRANCH  11  12
BRANCH  11  15
HETATM   15  C10 UNL     1      42.968  -2.244  30.379  1.00  0.00     0.018 C
HETATM   16  C11 UNL     1      43.608  -1.490  29.253  1.00  0.00     0.007 C
HETATM   17  C12 UNL     1      43.380  -2.203  27.912  1.00  0.00     0.002 C
HETATM   18  C13 UNL     1      43.529  -3.683  28.189  1.00  0.00     0.016 C
HETATM   19  C14 UNL     1      42.242  -4.124  28.878  1.00  0.00     0.058 C
HETATM   20 BR1  UNL     1      42.400  -5.866  29.662  1.00  0.00    -0.091 Br
HETATM   21  C15 UNL     1      41.796  -3.092  29.875  1.00  0.00     0.022 C
ENDBRANCH  11  15
ENDBRANCH   1  11
BRANCH   9  22
HETATM   22  N6  UNL     1      47.041   0.869  36.504  1.00  0.00    -0.132 NA
BRANCH  22  23
HETATM   23  C5  UNL     1      48.013  -0.115  36.945  1.00  0.00     0.099 C
HETATM   24  C6  UNL     1      49.139  -0.270  35.951  1.00  0.00     0.023 C
HETATM   25  C7  UNL     1      50.213  -0.959  36.764  1.00  0.00     0.002 C
HETATM   26  C8  UNL     1      49.928  -0.629  38.205  1.00  0.00     0.002 C
HETATM   27  C9  UNL     1      48.741   0.312  38.199  1.00  0.00     0.023 C
ENDBRANCH  22  23
ENDBRANCH   9  22
TORSDOF 5
ENDMDL