MODEL 1
REMARK VINA RESULT: -7.412431848      0.000      0.000
REMARK  5 active torsions:
REMARK  status: ('A' for Active; 'I' for Inactive)
REMARK    1  A    between atoms: C7_8  and  N1_9
REMARK       I    between atoms: N1_9  and  C8_11
REMARK    2  A    between atoms: C8_11  and  C9_13
REMARK    3  A    between atoms: C9_13  and  C10_14
REMARK    4  A    between atoms: C14_18  and  C15_19
REMARK    5  A    between atoms: C15_19  and  N2_20
REMARK       I    between atoms: N2_20  and  C16_22
REMARK       I    between atoms: N4_24  and  C17_26
ROOT
HETATM    1  C1  UNL     1      42.544  -6.236  29.844  1.00  0.00     0.015 C
HETATM    2  C2  UNL     1      42.103  -5.093  30.325  1.00  0.00    -0.078 C
HETATM    3  C3  UNL     1      40.770  -4.409  30.100  1.00  0.00     0.018 C
HETATM    4  C4  UNL     1      40.400  -4.170  31.546  1.00  0.00     0.053 C
HETATM    5  C5  UNL     1      41.653  -3.603  32.118  1.00  0.00     0.113 C
HETATM    6  F1  UNL     1      41.857  -4.139  33.386  1.00  0.00    -0.242 F
HETATM    7  C6  UNL     1      41.682  -2.119  32.267  1.00  0.00     0.070 C
HETATM    8  C7  UNL     1      41.526  -1.371  30.953  1.00  0.00     0.101 C
HETATM    9  C14 UNL     1      42.009  -2.213  29.837  1.00  0.00     0.014 C
HETATM   10  C18 UNL     1      40.979  -3.173  29.300  1.00  0.00     0.026 C
HETATM   11  C19 UNL     1      43.229  -2.987  30.381  1.00  0.00     0.029 C
HETATM   12  C20 UNL     1      42.780  -4.121  31.238  1.00  0.00     0.055 C
ENDROOT
BRANCH   9  13
HETATM   13  C15 UNL     1      42.590  -1.465  28.673  1.00  0.00     0.075 C
BRANCH  13  14
HETATM   14  N2  UNL     1      43.963  -1.636  28.406  1.00  0.00    -0.343 N
HETATM   15  C16 UNL     1      44.355  -2.006  27.100  1.00  0.00     0.194 C
HETATM   16  N3  UNL     1      45.386  -1.288  26.454  1.00  0.00    -0.063 NA
HETATM   17  N4  UNL     1      43.787  -2.971  26.518  1.00  0.00    -0.305 N
HETATM   18  C17 UNL     1      44.010  -3.501  25.247  1.00  0.00     0.188 C
ATOM     19  H4  UNL     1      43.055  -3.433  27.057  1.00  0.00     0.171 HD
HETATM   20  N5  UNL     1      44.314  -4.779  25.207  1.00  0.00    -0.373 N
HETATM   21  N6  UNL     1      43.944  -2.817  24.024  1.00  0.00    -0.064 NA
ATOM     22  H52 UNL     1      44.364  -5.276  26.096  1.00  0.00     0.158 HD
ATOM     23  H51 UNL     1      44.478  -5.166  24.277  1.00  0.00     0.158 HD
ATOM     24  H2  UNL     1      44.659  -1.495  29.138  1.00  0.00     0.167 HD
ENDBRANCH  13  14
ENDBRANCH   9  13
BRANCH   8  25
HETATM   25  N1  UNL     1      40.213  -0.842  30.889  1.00  0.00    -0.355 N
HETATM   26  C8  UNL     1      39.621   0.005  31.866  1.00  0.00     0.218 C
HETATM   27  O1  UNL     1      40.370   0.283  32.866  1.00  0.00    -0.274 OA
ATOM     28  H1  UNL     1      39.647  -1.089  30.077  1.00  0.00     0.162 HD
BRANCH  26  29
HETATM   29  C9  UNL     1      38.269   0.550  31.795  1.00  0.00     0.111 C
BRANCH  29  30
HETATM   30  C10 UNL     1      37.196  -0.463  32.109  1.00  0.00    -0.043 C
HETATM   31  C11 UNL     1      35.959   0.333  32.482  1.00  0.00     0.015 C
HETATM   32  C12 UNL     1      37.530  -1.403  33.210  1.00  0.00     0.015 C
HETATM   33  C13 UNL     1      36.845  -1.287  30.878  1.00  0.00     0.015 C
ENDBRANCH  29  30
ENDBRANCH  26  29
ENDBRANCH   8  25
TORSDOF 5
ENDMDL