MODEL 3
REMARK VINA RESULT: -7.188138981      0.198      1.469
REMARK  4 active torsions:
REMARK  status: ('A' for Active; 'I' for Inactive)
REMARK    1  A    between atoms: N1_2  and  N2_5
REMARK       I    between atoms: N2_5  and  C3_7
REMARK       I    between atoms: C3_7  and  N5_17
REMARK       I    between atoms: N3_8  and  C4_10
REMARK       I    between atoms: C4_10  and  N4_12
REMARK    2  A    between atoms: N4_12  and  C5_14
REMARK    3  A    between atoms: C5_14  and  C6_15
REMARK       I    between atoms: N5_17  and  C7_19
REMARK       I    between atoms: C7_19  and  N7_23
REMARK    4  A    between atoms: N7_23  and  C8_25
ROOT
HETATM    1  N2  UNL     1      41.476  -4.509  30.472  1.00  0.00     0.004 N
ATOM      2  H2  UNL     1      40.492  -4.774  30.441  1.00  0.00     0.222 HD
HETATM    3  C3  UNL     1      41.953  -3.436  29.681  1.00  0.00     0.727 C
HETATM    4  N3  UNL     1      43.200  -3.284  29.422  1.00  0.00    -0.139 N
ATOM      5  H3  UNL     1      43.865  -3.959  29.800  1.00  0.00     0.189 HD
HETATM    6  C4  UNL     1      43.690  -2.218  28.635  1.00  0.00     0.334 C
HETATM    7  O2  UNL     1      43.645  -1.058  29.104  1.00  0.00    -0.247 OA
HETATM    8  N4  UNL     1      44.214  -2.463  27.352  1.00  0.00    -0.341 N
ATOM      9  H4  UNL     1      44.221  -3.432  27.034  1.00  0.00     0.164 HD
HETATM   10  N5  UNL     1      41.039  -2.492  29.150  1.00  0.00    -0.021 N
ATOM     11  H5  UNL     1      40.978  -2.311  28.149  1.00  0.00     0.203 HD
HETATM   12  C7  UNL     1      40.212  -1.811  30.084  1.00  0.00     0.686 C
HETATM   13  N6  UNL     1      40.295  -0.535  30.161  1.00  0.00    -0.234 N
ATOM     14  H61 UNL     1      39.701  -0.047  30.831  1.00  0.00     0.174 HD
ATOM     15  H62 UNL     1      40.943  -0.031  29.556  1.00  0.00     0.174 HD
HETATM   16  N7  UNL     1      39.315  -2.509  30.920  1.00  0.00    -0.217 N
ATOM     17  H7  UNL     1      39.635  -2.902  31.806  1.00  0.00     0.178 HD
ENDROOT
BRANCH   1  18
HETATM   18  N1  UNL     1      42.362  -5.196  31.289  1.00  0.00     0.115 N
HETATM   19  C1  UNL     1      42.589  -4.467  32.502  1.00  0.00     0.389 C
HETATM   20  C2  UNL     1      41.765  -6.474  31.608  1.00  0.00     0.389 C
HETATM   21  O1  UNL     1      43.542  -5.357  30.635  1.00  0.00    -0.043 OA
ENDBRANCH   1  18
BRANCH  16  22
HETATM   22  C8  UNL     1      37.941  -2.659  30.509  1.00  0.00     0.048 C
HETATM   23  C9  UNL     1      37.937  -3.082  29.060  1.00  0.00     0.036 C
HETATM   24  C10 UNL     1      36.496  -3.155  28.597  1.00  0.00    -0.012 C
HETATM   25  C11 UNL     1      35.800  -1.827  28.750  1.00  0.00     0.009 C
HETATM   26  C15 UNL     1      35.788  -4.205  29.413  1.00  0.00     0.009 C
HETATM   27  C12 UNL     1      35.809  -1.443  30.213  1.00  0.00    -0.012 C
HETATM   28  C13 UNL     1      35.085  -2.492  31.002  1.00  0.00     0.009 C
HETATM   29  C17 UNL     1      37.271  -1.306  30.614  1.00  0.00     0.036 C
HETATM   30  C14 UNL     1      35.820  -3.823  30.870  1.00  0.00    -0.012 C
HETATM   31  C16 UNL     1      37.202  -3.641  31.399  1.00  0.00     0.036 C
ENDBRANCH  16  22
BRANCH   8  32
HETATM   32  C5  UNL     1      44.737  -1.482  26.452  1.00  0.00     0.139 C
BRANCH  32  33
HETATM   33  C6  UNL     1      44.062  -1.643  25.107  1.00  0.00     0.134 C
HETATM   34 CL1  UNL     1      44.045  -3.366  24.688  1.00  0.00    -0.129 Cl
ENDBRANCH  32  33
ENDBRANCH   8  32
TORSDOF 4
ENDMDL