MODEL 3
REMARK VINA RESULT: -6.561850798      1.006      1.297
REMARK  4 active torsions:
REMARK  status: ('A' for Active; 'I' for Inactive)
REMARK    1  A    between atoms: C2_2  and  N1_3
REMARK       I    between atoms: N1_3  and  C3_5
REMARK       I    between atoms: C3_5  and  N2_7
REMARK    2  A    between atoms: N2_7  and  C4_9
REMARK    3  A    between atoms: C4_9  and  C5_10
REMARK    4  A    between atoms: C9_14  and  N3_15
REMARK       I    between atoms: N3_15  and  C10_17
REMARK       I    between atoms: C10_17  and  N4_19
REMARK       I    between atoms: N5_24  and  C15_25
ROOT
HETATM    1  N3  UNL     1      42.226   0.219  33.902  1.00  0.00    -0.338 N
ATOM      2  H3  UNL     1      41.355   0.473  34.368  1.00  0.00     0.164 HD
HETATM    3  C10 UNL     1      43.413   0.831  34.332  1.00  0.00     0.318 C
HETATM    4  O2  UNL     1      44.469   0.457  33.701  1.00  0.00    -0.247 OA
HETATM    5  N4  UNL     1      43.539   1.781  35.360  1.00  0.00    -0.333 N
HETATM    6  C11 UNL     1      42.324   2.179  36.017  1.00  0.00     0.129 C
HETATM    7  C12 UNL     1      42.028   1.274  37.193  1.00  0.00     0.045 C
HETATM    8  C13 UNL     1      43.279   0.973  37.989  1.00  0.00     0.084 C
HETATM    9  C14 UNL     1      43.875  -0.359  37.526  1.00  0.00     0.032 C
HETATM   10  N5  UNL     1      44.232   2.022  38.042  1.00  0.00    -0.350 N
HETATM   11  C15 UNL     1      44.646   2.397  39.373  1.00  0.00     0.184 C
HETATM   12  N6  UNL     1      43.790   2.357  40.331  1.00  0.00    -0.374 N
ATOM     13  H61 UNL     1      44.082   2.622  41.272  1.00  0.00     0.158 HD
ATOM     14  H62 UNL     1      42.832   2.063  40.142  1.00  0.00     0.158 HD
HETATM   15  N7  UNL     1      45.977   2.806  39.636  1.00  0.00    -0.064 NA
HETATM   16  C16 UNL     1      44.894   2.813  37.039  1.00  0.00     0.146 C
HETATM   17  C17 UNL     1      44.879   2.252  35.662  1.00  0.00     0.147 C
ENDROOT
BRANCH   1  18
HETATM   18  C9  UNL     1      42.170  -0.759  32.824  1.00  0.00     0.091 C
HETATM   19  C5  UNL     1      40.738  -0.871  32.374  1.00  0.00     0.026 C
HETATM   20  C6  UNL     1      40.183  -2.143  32.992  1.00  0.00     0.008 C
HETATM   21  C7  UNL     1      41.217  -2.521  34.044  1.00  0.00     0.002 C
HETATM   22  C8  UNL     1      42.499  -2.145  33.331  1.00  0.00     0.026 C
BRANCH  19  23
HETATM   23  C4  UNL     1      40.656  -0.888  30.883  1.00  0.00     0.131 C
BRANCH  23  24
HETATM   24  N2  UNL     1      41.935  -0.517  30.331  1.00  0.00    -0.343 N
HETATM   25  C3  UNL     1      42.500  -1.293  29.301  1.00  0.00     0.316 C
HETATM   26  N1  UNL     1      43.751  -0.934  28.758  1.00  0.00    -0.344 N
HETATM   27  O1  UNL     1      41.898  -2.292  28.872  1.00  0.00    -0.247 OA
ATOM     28  H1  UNL     1      44.247  -0.115  29.109  1.00  0.00     0.164 HD
ATOM     29  H2  UNL     1      42.427   0.303  30.685  1.00  0.00     0.164 HD
BRANCH  26  30
HETATM   30  C2  UNL     1      44.327  -1.734  27.702  1.00  0.00     0.120 C
HETATM   31  C1  UNL     1      44.036  -1.088  26.356  1.00  0.00     0.026 C
ENDBRANCH  26  30
ENDBRANCH  23  24
ENDBRANCH  19  23
ENDBRANCH   1  18
TORSDOF 4
ENDMDL