MODEL 4
REMARK VINA RESULT: -6.281005507      1.614      2.017
REMARK  7 active torsions:
REMARK  status: ('A' for Active; 'I' for Inactive)
REMARK    1  A    between atoms: C2_2  and  N1_3
REMARK    2  A    between atoms: C2_2  and  C16_22
REMARK    3  A    between atoms: N1_3  and  C3_5
REMARK    4  A    between atoms: C3_5  and  N2_7
REMARK    5  A    between atoms: N2_7  and  C4_9
REMARK    6  A    between atoms: C4_9  and  C5_10
REMARK    7  A    between atoms: C11_16  and  C12_17
ROOT
HETATM    1  N2  UNL     1      41.852  -2.641  29.056  1.00  0.00    -0.366 N
ATOM      2  H2  UNL     1      42.252  -1.709  29.167  1.00  0.00     0.161 HD
ENDROOT
BRANCH   1   3
HETATM    3  C3  UNL     1      42.677  -3.750  28.713  1.00  0.00     0.168 C
HETATM    4  S1  UNL     1      42.474  -5.213  29.443  1.00  0.00    -0.041 SA
BRANCH   3   5
HETATM    5  N1  UNL     1      43.706  -3.639  27.753  1.00  0.00    -0.357 N
ATOM      6  H1  UNL     1      44.534  -4.220  27.885  1.00  0.00     0.162 HD
BRANCH   5   7
HETATM    7  C2  UNL     1      43.684  -2.780  26.615  1.00  0.00     0.144 C
HETATM    8  C1  UNL     1      44.505  -1.518  26.824  1.00  0.00     0.040 C
BRANCH   7   9
HETATM    9  C16 UNL     1      44.117  -3.405  25.351  1.00  0.00     0.109 C
HETATM   10  N3  UNL     1      44.204  -4.680  25.274  1.00  0.00    -0.389 N
ATOM     11  H32 UNL     1      43.987  -5.270  26.077  1.00  0.00     0.157 HD
ATOM     12  H31 UNL     1      44.504  -5.112  24.400  1.00  0.00     0.157 HD
HETATM   13  N4  UNL     1      44.419  -2.585  24.236  1.00  0.00    -0.086 NA
ENDBRANCH   7   9
ENDBRANCH   5   7
ENDBRANCH   3   5
ENDBRANCH   1   3
BRANCH   1  14
HETATM   14  C4  UNL     1      40.454  -2.861  29.241  1.00  0.00     0.131 C
BRANCH  14  15
HETATM   15  C5  UNL     1      39.888  -2.213  30.461  1.00  0.00    -0.023 C
HETATM   16  C6  UNL     1      40.668  -0.916  30.684  1.00  0.00     0.015 C
HETATM   17  C7  UNL     1      40.191  -0.187  31.905  1.00  0.00    -0.013 C
HETATM   18  C8  UNL     1      40.412  -1.061  33.113  1.00  0.00     0.009 C
HETATM   19  C13 UNL     1      38.732   0.151  31.701  1.00  0.00     0.015 C
HETATM   20  C9  UNL     1      39.624  -2.346  32.909  1.00  0.00    -0.013 C
HETATM   21  C10 UNL     1      38.168  -1.951  32.802  1.00  0.00     0.015 C
HETATM   22  C15 UNL     1      40.105  -3.078  31.687  1.00  0.00     0.015 C
HETATM   23  C11 UNL     1      37.969  -1.141  31.539  1.00  0.00    -0.030 C
HETATM   24  C14 UNL     1      38.416  -1.937  30.347  1.00  0.00     0.021 C
BRANCH  23  25
HETATM   25  C12 UNL     1      36.500  -0.788  31.467  1.00  0.00     0.094 C
HETATM   26 BR1  UNL     1      36.026   0.632  32.665  1.00  0.00    -0.096 Br
ENDBRANCH  23  25
ENDBRANCH  14  15
ENDBRANCH   1  14
TORSDOF 7
ENDMDL