MODEL 2
REMARK VINA RESULT: -6.982821313      2.339      6.242
REMARK  6 active torsions:
REMARK  status: ('A' for Active; 'I' for Inactive)
REMARK       I    between atoms: N3_4  and  C2_6
REMARK    1  A    between atoms: N5_8  and  C3_10
REMARK    2  A    between atoms: C3_10  and  N6_12
REMARK    3  A    between atoms: N6_12  and  C4_14
REMARK    4  A    between atoms: C4_14  and  C5_15
REMARK       I    between atoms: C5_15  and  N7_17
REMARK    5  A    between atoms: N7_17  and  C6_19
REMARK    6  A    between atoms: C6_19  and  C7_20
ROOT
HETATM    1  C4  UNL     1      39.756  -1.530  31.538  1.00  0.00     0.113 C
HETATM    2  C13 UNL     1      38.969  -0.236  31.463  1.00  0.00     0.041 C
HETATM    3  C14 UNL     1      37.505  -0.466  31.755  1.00  0.00     0.003 C
HETATM    4  C15 UNL     1      36.884  -1.388  30.724  1.00  0.00     0.000 C
HETATM    5  C16 UNL     1      37.965  -1.917  29.805  1.00  0.00     0.003 C
HETATM    6  C17 UNL     1      39.065  -2.548  30.605  1.00  0.00     0.041 C
ENDROOT
BRANCH   1   7
HETATM    7  N6  UNL     1      39.759  -2.122  32.850  1.00  0.00    -0.349 N
ATOM      8  H6  UNL     1      38.937  -2.673  33.097  1.00  0.00     0.163 HD
BRANCH   7   9
HETATM    9  C3  UNL     1      40.760  -2.028  33.828  1.00  0.00     0.175 C
HETATM   10  S1  UNL     1      41.819  -3.228  34.065  1.00  0.00    -0.041 SA
BRANCH   9  11
HETATM   11  N5  UNL     1      40.869  -0.869  34.629  1.00  0.00    -0.307 N
HETATM   12  C2  UNL     1      41.725   0.059  34.469  1.00  0.00     0.196 C
HETATM   13  N3  UNL     1      42.719   0.068  33.439  1.00  0.00    -0.307 N
HETATM   14  N4  UNL     1      41.719   1.169  35.350  1.00  0.00    -0.063 NA
HETATM   15  C1  UNL     1      43.936   0.417  33.660  1.00  0.00     0.203 C
ATOM     16  H3  UNL     1      42.452  -0.214  32.496  1.00  0.00     0.170 HD
HETATM   17  N1  UNL     1      44.436   0.829  34.917  1.00  0.00    -0.066 NA
HETATM   18  N2  UNL     1      44.827   0.380  32.544  1.00  0.00    -0.066 NA
ATOM     19  H5  UNL     1      40.207  -0.768  35.399  1.00  0.00     0.171 HD
ENDBRANCH   9  11
ENDBRANCH   7   9
ENDBRANCH   1   7
BRANCH   1  20
HETATM   20  C5  UNL     1      41.106  -1.370  30.945  1.00  0.00     0.246 C
HETATM   21  O1  UNL     1      41.559  -0.202  30.851  1.00  0.00    -0.271 OA
HETATM   22  N7  UNL     1      41.899  -2.424  30.488  1.00  0.00    -0.359 N
ATOM     23  H7  UNL     1      41.521  -3.369  30.569  1.00  0.00     0.162 HD
BRANCH  22  24
HETATM   24  C6  UNL     1      43.214  -2.279  29.910  1.00  0.00     0.127 C
BRANCH  24  25
HETATM   25  C7  UNL     1      43.209  -2.260  28.413  1.00  0.00     0.003 C
HETATM   26  C8  UNL     1      44.180  -1.213  27.883  1.00  0.00     0.006 C
HETATM   27  C9  UNL     1      43.946  -1.120  26.384  1.00  0.00     0.000 C
HETATM   28  C10 UNL     1      44.466  -2.410  25.777  1.00  0.00     0.000 C
HETATM   29  C11 UNL     1      43.612  -3.530  26.351  1.00  0.00     0.000 C
HETATM   30  C12 UNL     1      43.724  -3.594  27.855  1.00  0.00     0.006 C
ENDBRANCH  24  25
ENDBRANCH  22  24
ENDBRANCH   1  20
TORSDOF 6
ENDMDL