MODEL 2
REMARK VINA RESULT: -6.316735081      0.989      1.057
REMARK  7 active torsions:
REMARK  status: ('A' for Active; 'I' for Inactive)
REMARK    1  A    between atoms: C7_8  and  C8_9
REMARK    2  A    between atoms: C8_9  and  C9_10
REMARK    3  A    between atoms: C8_9  and  N5_20
REMARK    4  A    between atoms: C9_10  and  N1_11
REMARK    5  A    between atoms: N1_11  and  C10_13
REMARK    6  A    between atoms: C10_13  and  N2_15
REMARK       I    between atoms: N5_20  and  C12_22
REMARK       I    between atoms: C12_22  and  N6_24
REMARK    7  A    between atoms: N6_24  and  C13_26
ROOT
HETATM    1  C8  UNL     1      42.106  -1.059  31.005  1.00  0.00     0.108 C
ENDROOT
BRANCH   1   2
HETATM    2  C7  UNL     1      40.761  -1.705  30.735  1.00  0.00     0.015 C
HETATM    3  C2  UNL     1      40.245  -2.469  31.894  1.00  0.00     0.006 C
HETATM    4  C1  UNL     1      39.863  -3.863  31.449  1.00  0.00     0.012 C
HETATM    5  C3  UNL     1      39.093  -1.815  32.633  1.00  0.00     0.086 C
HETATM    6 CL1  UNL     1      39.635  -0.388  33.533  1.00  0.00    -0.125 Cl
HETATM    7  C4  UNL     1      37.939  -1.514  31.710  1.00  0.00     0.020 C
HETATM    8  C5  UNL     1      38.402  -1.274  30.292  1.00  0.00     0.002 C
HETATM    9  C6  UNL     1      39.792  -0.642  30.322  1.00  0.00     0.007 C
ENDBRANCH   1   2
BRANCH   1  10
HETATM   10  C9  UNL     1      43.093  -1.642  30.038  1.00  0.00     0.147 C
BRANCH  10  11
HETATM   11  N1  UNL     1      42.477  -2.353  28.957  1.00  0.00    -0.365 N
ATOM     12  H1  UNL     1      41.767  -1.899  28.382  1.00  0.00     0.161 HD
BRANCH  11  13
HETATM   13  C10 UNL     1      42.860  -3.681  28.697  1.00  0.00     0.173 C
HETATM   14  S1  UNL     1      43.208  -4.711  29.912  1.00  0.00    -0.041 SA
BRANCH  13  15
HETATM   15  N2  UNL     1      42.948  -4.142  27.363  1.00  0.00    -0.310 N
HETATM   16  C11 UNL     1      43.667  -3.562  26.462  1.00  0.00     0.203 C
HETATM   17  N3  UNL     1      43.709  -4.081  25.139  1.00  0.00    -0.066 NA
HETATM   18  N4  UNL     1      44.430  -2.406  26.748  1.00  0.00    -0.066 NA
ATOM     19  H2  UNL     1      42.417  -4.973  27.100  1.00  0.00     0.170 HD
ENDBRANCH  13  15
ENDBRANCH  11  13
ENDBRANCH  10  11
ENDBRANCH   1  10
BRANCH   1  20
HETATM   20  N5  UNL     1      42.511  -1.186  32.374  1.00  0.00    -0.337 N
HETATM   21  C12 UNL     1      43.301  -0.221  33.056  1.00  0.00     0.317 C
HETATM   22  O1  UNL     1      43.699   0.840  32.461  1.00  0.00    -0.247 OA
HETATM   23  N6  UNL     1      43.689  -0.373  34.410  1.00  0.00    -0.335 N
ATOM     24  H6  UNL     1      43.390  -1.206  34.917  1.00  0.00     0.165 HD
ATOM     25  H5  UNL     1      42.216  -2.016  32.888  1.00  0.00     0.164 HD
BRANCH  23  26
HETATM   26  C13 UNL     1      44.491   0.609  35.098  1.00  0.00     0.023 C
HETATM   27  C14 UNL     1      45.805   0.846  34.406  1.00  0.00     0.037 C
HETATM   28  C15 UNL     1      43.753   1.940  35.234  1.00  0.00     0.037 C
HETATM   29  C16 UNL     1      44.816   0.149  36.523  1.00  0.00     0.037 C
ENDBRANCH  23  26
ENDBRANCH   1  20
TORSDOF 7
ENDMDL