MODEL 2
REMARK VINA RESULT: -5.814163273      2.822      6.200
REMARK  4 active torsions:
REMARK  status: ('A' for Active; 'I' for Inactive)
REMARK    1  A    between atoms: C2_2  and  N1_5
REMARK       I    between atoms: N1_5  and  C5_7
REMARK       I    between atoms: C5_7  and  N5_15
REMARK       I    between atoms: N2_8  and  C6_10
REMARK    2  A    between atoms: N5_15  and  C7_17
REMARK    3  A    between atoms: C7_17  and  C8_18
REMARK    4  A    between atoms: C8_18  and  C9_19
ROOT
HETATM    1  N1  UNL     1      15.444  13.007  19.812  1.00  0.00    -0.218 N
ATOM      2  H1  UNL     1      15.846  12.236  20.345  1.00  0.00     0.178 HD
HETATM    3  C5  UNL     1      14.069  12.952  19.445  1.00  0.00     0.676 C
HETATM    4  N2  UNL     1      13.424  14.051  19.274  1.00  0.00    -0.164 N
ATOM      5  H2  UNL     1      13.907  14.939  19.404  1.00  0.00     0.187 HD
HETATM    6  C6  UNL     1      12.058  14.051  18.908  1.00  0.00     0.200 C
HETATM    7  N3  UNL     1      11.092  14.253  19.755  1.00  0.00    -0.373 N
ATOM      8  H31 UNL     1      10.107  14.253  19.491  1.00  0.00     0.158 HD
ATOM      9  H32 UNL     1      11.349  14.418  20.728  1.00  0.00     0.158 HD
HETATM   10  N4  UNL     1      11.700  13.821  17.554  1.00  0.00    -0.063 NA
HETATM   11  N5  UNL     1      13.380  11.725  19.258  1.00  0.00    -0.226 N
ATOM     12  H5  UNL     1      12.435  11.720  18.876  1.00  0.00     0.177 HD
ENDROOT
BRANCH   1  13
HETATM   13  C2  UNL     1      16.280  14.120  19.453  1.00  0.00     0.036 C
HETATM   14  C1  UNL     1      17.675  13.876  20.020  1.00  0.00     0.038 C
HETATM   15  C3  UNL     1      15.799  15.436  19.994  1.00  0.00     0.038 C
HETATM   16  C4  UNL     1      16.434  14.262  17.954  1.00  0.00     0.038 C
ENDBRANCH   1  13
BRANCH  11  17
HETATM   17  C7  UNL     1      14.040  10.460  19.618  1.00  0.00     0.139 C
BRANCH  17  18
HETATM   18  C8  UNL     1      13.023   9.409  19.939  1.00  0.00     0.029 C
BRANCH  18  19
HETATM   19  C9  UNL     1      12.722   9.235  21.376  1.00  0.00    -0.038 C
HETATM   20  C10 UNL     1      12.704   7.768  21.739  1.00  0.00     0.014 C
HETATM   21  C11 UNL     1      12.501   7.553  23.210  1.00  0.00    -0.013 C
HETATM   22  C12 UNL     1      13.650   8.165  23.967  1.00  0.00     0.009 C
HETATM   23  C16 UNL     1      11.193   8.203  23.609  1.00  0.00     0.009 C
HETATM   24  C13 UNL     1      13.719   9.624  23.648  1.00  0.00    -0.013 C
HETATM   25  C14 UNL     1      12.439  10.293  24.101  1.00  0.00     0.009 C
HETATM   26  C18 UNL     1      13.852   9.876  22.170  1.00  0.00     0.014 C
HETATM   27  C15 UNL     1      11.308   9.671  23.334  1.00  0.00    -0.013 C
HETATM   28  C17 UNL     1      11.442   9.859  21.842  1.00  0.00     0.014 C
ENDBRANCH  18  19
ENDBRANCH  17  18
ENDBRANCH  11  17
TORSDOF 4
ENDMDL