MODEL 4
REMARK VINA RESULT: -7.768760225      3.996      5.856
REMARK  3 active torsions:
REMARK  status: ('A' for Active; 'I' for Inactive)
REMARK    1  A    between atoms: C2_2  and  N1_3
REMARK       I    between atoms: N1_3  and  C3_5
REMARK       I    between atoms: C3_5  and  N2_7
REMARK       I    between atoms: C4_9  and  N3_10
REMARK       I    between atoms: C4_9  and  N4_19
REMARK    2  A    between atoms: N3_10  and  C5_12
REMARK    3  A    between atoms: C5_12  and  C6_13
REMARK       I    between atoms: N4_19  and  C12_21
ROOT
HETATM    1  N1  UNL     1       7.052   4.074  27.921  1.00  0.00    -0.334 N
ATOM      2  H1  UNL     1       6.271   3.433  28.058  1.00  0.00     0.165 HD
HETATM    3  C3  UNL     1       8.161   3.674  27.094  1.00  0.00     0.335 C
HETATM    4  O1  UNL     1       9.135   4.434  26.902  1.00  0.00    -0.246 OA
HETATM    5  N2  UNL     1       8.138   2.410  26.500  1.00  0.00    -0.141 N
ATOM      6  H2  UNL     1       7.838   1.604  27.046  1.00  0.00     0.189 HD
HETATM    7  C4  UNL     1       8.494   2.246  25.262  1.00  0.00     0.685 C
HETATM    8  N3  UNL     1       8.917   3.320  24.449  1.00  0.00    -0.225 N
ATOM      9  H3  UNL     1       9.912   3.463  24.271  1.00  0.00     0.177 HD
HETATM   10  N4  UNL     1       8.414   0.887  24.815  1.00  0.00    -0.144 N
ATOM     11  H4  UNL     1       8.098   0.157  25.454  1.00  0.00     0.188 HD
HETATM   12  C12 UNL     1       8.774   0.561  23.493  1.00  0.00     0.346 C
HETATM   13  N5  UNL     1       8.677  -0.821  23.087  1.00  0.00    -0.039 NA
HETATM   14  O2  UNL     1       9.165   1.440  22.705  1.00  0.00    -0.250 OA
ENDROOT
BRANCH   8  15
HETATM   15  C5  UNL     1       7.952   4.209  23.875  1.00  0.00     0.142 C
BRANCH  15  16
HETATM   16  C6  UNL     1       8.281   5.660  23.918  1.00  0.00     0.004 C
HETATM   17  C7  UNL     1       7.508   6.507  22.956  1.00  0.00     0.006 C
HETATM   18  C8  UNL     1       8.114   7.885  22.789  1.00  0.00     0.000 C
HETATM   19  C9  UNL     1       8.768   8.271  24.086  1.00  0.00     0.000 C
HETATM   20  C10 UNL     1       9.927   7.370  24.443  1.00  0.00     0.000 C
HETATM   21  C11 UNL     1       9.752   5.977  23.857  1.00  0.00     0.006 C
ENDBRANCH  15  16
ENDBRANCH   8  15
BRANCH   1  22
HETATM   22  C2  UNL     1       7.030   5.370  28.562  1.00  0.00     0.031 C
HETATM   23  C1  UNL     1       7.513   6.413  27.579  1.00  0.00     0.038 C
HETATM   24  C13 UNL     1       5.618   5.726  28.948  1.00  0.00     0.031 C
HETATM   25  C14 UNL     1       5.488   6.527  30.184  1.00  0.00     0.002 C
HETATM   26  C15 UNL     1       6.630   7.395  30.559  1.00  0.00     0.000 C
HETATM   27  C16 UNL     1       7.984   6.890  30.154  1.00  0.00     0.002 C
HETATM   28  C17 UNL     1       7.840   5.399  29.842  1.00  0.00     0.031 C
ENDBRANCH   1  22
TORSDOF 3
ENDMDL