MODEL 1
REMARK VINA RESULT: -7.582550847      0.000      0.000
REMARK  3 active torsions:
REMARK  status: ('A' for Active; 'I' for Inactive)
REMARK       I    between atoms: C1_4  and  N3_6
REMARK    1  A    between atoms: N3_6  and  C2_8
REMARK    2  A    between atoms: C10_16  and  C11_17
REMARK       I    between atoms: C11_17  and  N4_19
REMARK    3  A    between atoms: N4_19  and  C12_21
ROOT
HETATM    1  C2  UNL     1       8.589   5.196  23.453  1.00  0.00     0.045 C
HETATM    2  C3  UNL     1       8.065   6.227  22.463  1.00  0.00     0.036 C
HETATM    3  C4  UNL     1       7.348   7.317  23.184  1.00  0.00    -0.012 C
HETATM    4  C5  UNL     1       6.206   6.800  24.020  1.00  0.00     0.009 C
HETATM    5  C6  UNL     1       6.775   5.847  25.038  1.00  0.00    -0.012 C
HETATM    6  C7  UNL     1       7.811   6.492  25.937  1.00  0.00     0.010 C
HETATM    7  C8  UNL     1       8.920   7.011  25.061  1.00  0.00     0.002 C
HETATM    8  C9  UNL     1       8.324   7.998  24.123  1.00  0.00     0.010 C
HETATM    9  C10 UNL     1       9.586   5.820  24.387  1.00  0.00     0.110 C
HETATM   10  C19 UNL     1       7.393   4.716  24.263  1.00  0.00     0.036 C
ENDROOT
BRANCH   9  11
HETATM   11  C11 UNL     1      10.855   6.235  23.802  1.00  0.00     0.225 C
HETATM   12  O1  UNL     1      11.641   5.263  23.452  1.00  0.00    -0.273 OA
HETATM   13  N4  UNL     1      11.377   7.504  23.551  1.00  0.00    -0.356 N
ATOM     14  H4  UNL     1      10.820   8.323  23.795  1.00  0.00     0.162 HD
BRANCH  13  15
HETATM   15  C12 UNL     1      12.708   7.701  22.945  1.00  0.00     0.088 C
HETATM   16  C13 UNL     1      12.524   8.253  21.549  1.00  0.00     0.030 C
HETATM   17  C14 UNL     1      13.357   9.536  21.509  1.00  0.00    -0.012 C
HETATM   18  C15 UNL     1      12.716  10.613  22.329  1.00  0.00     0.005 C
HETATM   19  C18 UNL     1      14.490   9.104  22.460  1.00  0.00     0.011 C
HETATM   20  C16 UNL     1      12.795  10.015  23.739  1.00  0.00     0.007 C
HETATM   21  C17 UNL     1      13.533   8.731  23.620  1.00  0.00     0.009 C
ENDBRANCH  13  15
ENDBRANCH   9  11
BRANCH   1  22
HETATM   22  N3  UNL     1       9.064   4.060  22.713  1.00  0.00    -0.355 N
HETATM   23  C1  UNL     1       9.375   2.810  23.319  1.00  0.00     0.182 C
HETATM   24  N1  UNL     1       9.944   2.685  24.465  1.00  0.00    -0.374 N
HETATM   25  N2  UNL     1       9.049   1.574  22.639  1.00  0.00    -0.064 NA
ATOM     26  H12 UNL     1      10.167   1.789  24.900  1.00  0.00     0.158 HD
ATOM     27  H11 UNL     1      10.173   3.555  24.944  1.00  0.00     0.158 HD
ATOM     28  H3  UNL     1       9.183   4.154  21.705  1.00  0.00     0.163 HD
ENDBRANCH   1  22
TORSDOF 3
ENDMDL