MODEL 4
REMARK VINA RESULT: -7.707716892      0.800      1.335
REMARK  3 active torsions:
REMARK  status: ('A' for Active; 'I' for Inactive)
REMARK       I    between atoms: C1_4  and  N2_5
REMARK       I    between atoms: C1_4  and  N4_22
REMARK       I    between atoms: N2_5  and  C2_7
REMARK       I    between atoms: C2_7  and  N3_9
REMARK    1  A    between atoms: N3_9  and  C3_11
REMARK    2  A    between atoms: C3_11  and  C4_12
REMARK    3  A    between atoms: N4_22  and  C14_24
ROOT
HETATM    1  N1  UNL     1       6.768   4.802  24.758  1.00  0.00    -0.235 N
ATOM      2  H11 UNL     1       6.329   3.977  25.168  1.00  0.00     0.174 HD
ATOM      3  H12 UNL     1       6.275   5.665  24.523  1.00  0.00     0.174 HD
HETATM    4  C1  UNL     1       8.034   4.728  24.533  1.00  0.00     0.676 C
HETATM    5  N2  UNL     1       8.641   5.869  23.965  1.00  0.00    -0.142 N
ATOM      6  H2  UNL     1       8.045   6.671  23.763  1.00  0.00     0.189 HD
HETATM    7  C2  UNL     1      10.040   5.986  23.651  1.00  0.00     0.338 C
HETATM    8  O1  UNL     1      10.748   5.007  23.907  1.00  0.00    -0.246 OA
HETATM    9  N3  UNL     1      10.556   7.164  23.079  1.00  0.00    -0.321 N
ATOM     10  H3  UNL     1       9.895   7.929  22.940  1.00  0.00     0.169 HD
HETATM   11  N4  UNL     1       8.709   3.546  24.854  1.00  0.00    -0.222 N
ATOM     12  H4  UNL     1       9.502   3.664  25.484  1.00  0.00     0.178 HD
ENDROOT
BRANCH   9  13
HETATM   13  C3  UNL     1      11.875   7.400  22.681  1.00  0.00     0.075 C
BRANCH  13  14
HETATM   14  C4  UNL     1      12.359   8.734  22.262  1.00  0.00    -0.007 C
HETATM   15  C5  UNL     1      13.399   9.426  23.037  1.00  0.00     0.019 C
HETATM   16  C6  UNL     1      13.590  10.843  22.480  1.00  0.00    -0.013 C
HETATM   17  C7  UNL     1      12.347  11.667  22.555  1.00  0.00     0.009 C
HETATM   18  C11 UNL     1      14.073  10.783  21.052  1.00  0.00     0.009 C
HETATM   19  C8  UNL     1      11.282  10.957  21.703  1.00  0.00    -0.013 C
HETATM   20  C9  UNL     1      11.763  10.880  20.294  1.00  0.00     0.009 C
HETATM   21  C13 UNL     1      11.086   9.621  22.314  1.00  0.00     0.019 C
HETATM   22  C10 UNL     1      13.029  10.050  20.250  1.00  0.00    -0.013 C
HETATM   23  C12 UNL     1      12.848   8.682  20.806  1.00  0.00     0.019 C
ENDBRANCH  13  14
ENDBRANCH   9  13
BRANCH  11  24
HETATM   24  C14 UNL     1       8.471   2.225  24.450  1.00  0.00     0.103 C
HETATM   25  C15 UNL     1       8.473   1.433  25.981  1.00  0.00     0.052 C
HETATM   26  C16 UNL     1       8.486   0.238  25.327  1.00  0.00    -0.029 C
HETATM   27  C17 UNL     1       8.579  -0.191  24.542  1.00  0.00    -0.030 C
HETATM   28  C18 UNL     1       8.843  -0.084  23.227  1.00  0.00     0.029 C
HETATM   29  C19 UNL     1       9.325   1.568  23.486  1.00  0.00     0.029 C
ENDBRANCH  11  24
TORSDOF 3
ENDMDL