MODEL 1
REMARK VINA RESULT: -6.910658112      0.000      0.000
REMARK  4 active torsions:
REMARK  status: ('A' for Active; 'I' for Inactive)
REMARK    1  A    between atoms: C2_2  and  C5_5
REMARK    2  A    between atoms: C5_5  and  C6_6
REMARK    3  A    between atoms: C6_6  and  N1_7
REMARK       I    between atoms: N1_7  and  C7_9
REMARK       I    between atoms: C7_9  and  N2_11
REMARK       I    between atoms: C8_13  and  N4_15
REMARK    4  A    between atoms: N4_15  and  C9_17
ROOT
HETATM    1  N1  UNL     1      14.315   9.741  22.300  1.00  0.00    -0.343 N
ATOM      2  H1  UNL     1      13.861   9.436  21.438  1.00  0.00     0.164 HD
HETATM    3  C7  UNL     1      13.728   9.335  23.526  1.00  0.00     0.322 C
HETATM    4  O1  UNL     1      14.249   9.688  24.606  1.00  0.00    -0.247 OA
HETATM    5  N2  UNL     1      12.550   8.528  23.561  1.00  0.00    -0.283 N
ATOM      6  H2  UNL     1      11.732   8.877  24.059  1.00  0.00     0.173 HD
HETATM    7  C8  UNL     1      12.482   7.380  22.990  1.00  0.00     0.193 C
HETATM    8  N3  UNL     1      13.620   6.893  22.296  1.00  0.00    -0.063 NA
HETATM    9  N4  UNL     1      11.288   6.619  23.055  1.00  0.00    -0.343 N
ATOM     10  H4  UNL     1      11.198   5.779  22.483  1.00  0.00     0.164 HD
ENDROOT
BRANCH   9  11
HETATM   11  C9  UNL     1      10.194   7.013  23.922  1.00  0.00     0.181 C
HETATM   12  C10 UNL     1       9.200   7.820  23.190  1.00  0.00     0.051 C
HETATM   13  C11 UNL     1       7.765   7.455  23.405  1.00  0.00    -0.010 C
HETATM   14  C12 UNL     1       7.329   7.575  24.829  1.00  0.00     0.011 C
HETATM   15  C16 UNL     1       7.397   6.132  22.772  1.00  0.00     0.011 C
HETATM   16  C13 UNL     1       7.587   6.371  25.668  1.00  0.00     0.004 C
HETATM   17  C14 UNL     1       6.989   5.165  24.990  1.00  0.00     0.012 C
HETATM   18  C18 UNL     1       9.063   6.107  25.844  1.00  0.00     0.123 C
HETATM   19  C15 UNL     1       7.668   4.964  23.674  1.00  0.00     0.004 C
HETATM   20  C17 UNL     1       9.171   4.831  23.807  1.00  0.00     0.123 C
HETATM   21  N5  UNL     1       9.709   5.866  24.606  1.00  0.00    -0.392 N
ENDBRANCH   9  11
BRANCH   1  22
HETATM   22  C6  UNL     1      15.493  10.545  22.175  1.00  0.00     0.125 C
BRANCH  22  23
HETATM   23  C5  UNL     1      15.579  11.243  20.857  1.00  0.00     0.028 C
BRANCH  23  24
HETATM   24  C2  UNL     1      15.966  12.705  21.049  1.00  0.00    -0.050 C
HETATM   25  C1  UNL     1      17.446  12.811  21.230  1.00  0.00     0.014 C
HETATM   26  C3  UNL     1      15.586  13.429  19.764  1.00  0.00     0.014 C
HETATM   27  C4  UNL     1      15.279  13.319  22.239  1.00  0.00     0.014 C
ENDBRANCH  23  24
ENDBRANCH  22  23
ENDBRANCH   1  22
TORSDOF 4
ENDMDL