MODEL 3
REMARK VINA RESULT: -6.651264164      2.799      3.793
REMARK  4 active torsions:
REMARK  status: ('A' for Active; 'I' for Inactive)
REMARK    1  A    between atoms: C2_2  and  N1_5
REMARK       I    between atoms: N1_5  and  C5_7
REMARK       I    between atoms: C5_7  and  N2_9
REMARK    2  A    between atoms: C8_12  and  C9_13
REMARK    3  A    between atoms: C9_13  and  N3_14
REMARK       I    between atoms: N3_14  and  C10_16
REMARK       I    between atoms: C10_16  and  N5_20
REMARK    4  A    between atoms: N5_20  and  C11_22
ROOT
HETATM    1  C9  UNL     1       7.323   7.909  25.337  1.00  0.00     0.144 C
ENDROOT
BRANCH   1   2
HETATM    2  C8  UNL     1       8.739   8.234  25.745  1.00  0.00     0.024 C
HETATM    3  C7  UNL     1       8.903   9.714  26.039  1.00  0.00     0.028 C
HETATM    4  C6  UNL     1       9.168  10.245  24.647  1.00  0.00     0.128 C
HETATM    5  N2  UNL     1      10.107   9.273  24.134  1.00  0.00    -0.334 N
HETATM    6  C5  UNL     1      11.304   9.501  23.387  1.00  0.00     0.318 C
HETATM    7  C17 UNL     1       9.608   7.975  24.523  1.00  0.00     0.134 C
HETATM    8  N1  UNL     1      12.097   8.412  22.963  1.00  0.00    -0.335 N
HETATM    9  O1  UNL     1      11.594  10.702  23.137  1.00  0.00    -0.247 OA
ATOM     10  H1  UNL     1      11.792   7.470  23.208  1.00  0.00     0.165 HD
BRANCH   8  11
HETATM   11  C2  UNL     1      13.304   8.556  22.212  1.00  0.00     0.023 C
HETATM   12  C1  UNL     1      14.356   9.291  23.033  1.00  0.00     0.037 C
HETATM   13  C3  UNL     1      13.883   7.156  21.986  1.00  0.00     0.037 C
HETATM   14  C4  UNL     1      13.102   9.224  20.859  1.00  0.00     0.037 C
ENDBRANCH   8  11
ENDBRANCH   1   2
BRANCH   1  15
HETATM   15  N3  UNL     1       6.910   6.710  26.024  1.00  0.00    -0.226 N
HETATM   16  C10 UNL     1       6.917   5.482  25.264  1.00  0.00     0.667 C
HETATM   17  N4  UNL     1       5.856   5.102  24.688  1.00  0.00    -0.235 N
HETATM   18  N5  UNL     1       8.136   4.784  25.228  1.00  0.00    -0.222 N
ATOM     19  H42 UNL     1       4.971   5.609  24.714  1.00  0.00     0.174 HD
ATOM     20  H41 UNL     1       5.861   4.235  24.151  1.00  0.00     0.174 HD
ATOM     21  H5  UNL     1       8.980   5.254  25.554  1.00  0.00     0.178 HD
ATOM     22  H3  UNL     1       6.625   6.728  27.003  1.00  0.00     0.177 HD
BRANCH  18  23
HETATM   23  C11 UNL     1       8.235   3.437  24.752  1.00  0.00     0.099 C
HETATM   24  C12 UNL     1       8.734   2.540  25.864  1.00  0.00     0.026 C
HETATM   25  C13 UNL     1       8.465   1.120  25.354  1.00  0.00     0.002 C
HETATM   26  C14 UNL     1       9.437   0.912  24.217  1.00  0.00     0.000 C
HETATM   27  C15 UNL     1       9.351   1.911  23.119  1.00  0.00     0.002 C
HETATM   28  C16 UNL     1       9.135   3.341  23.571  1.00  0.00     0.026 C
ENDBRANCH  18  23
ENDBRANCH   1  15
TORSDOF 4
ENDMDL