MODEL 1
REMARK VINA RESULT: -7.014938396      0.000      0.000
REMARK  6 active torsions:
REMARK  status: ('A' for Active; 'I' for Inactive)
REMARK    1  A    between atoms: C5_8  and  N2_9
REMARK    2  A    between atoms: N2_9  and  C6_11
REMARK    3  A    between atoms: C6_11  and  N3_13
REMARK    4  A    between atoms: N3_13  and  C7_15
REMARK    5  A    between atoms: C7_15  and  C8_16
REMARK    6  A    between atoms: C8_16  and  C9_17
ROOT
HETATM    1  C6  UNL     1       8.927   5.235  23.331  1.00  0.00     0.168 C
HETATM    2  S1  UNL     1       9.783   6.541  23.911  1.00  0.00    -0.041 SA
ENDROOT
BRANCH   1   3
HETATM    3  N2  UNL     1       9.454   3.975  23.599  1.00  0.00    -0.354 N
ATOM      4  H2  UNL     1      10.428   3.801  23.351  1.00  0.00     0.162 HD
BRANCH   3   5
HETATM    5  C5  UNL     1       8.714   2.906  24.203  1.00  0.00     0.176 C
HETATM    6  C4  UNL     1       8.871   2.817  25.679  1.00  0.00     0.240 C
HETATM    7  N1  UNL     1       8.442   1.613  26.356  1.00  0.00    -0.359 N
HETATM    8  O1  UNL     1       9.359   3.732  26.379  1.00  0.00    -0.271 OA
HETATM    9  C3  UNL     1       8.011   0.488  25.502  1.00  0.00     0.127 C
ATOM     10  H1  UNL     1       8.437   1.545  27.374  1.00  0.00     0.162 HD
HETATM   11  C2  UNL     1       9.036   0.458  24.389  1.00  0.00     0.002 C
HETATM   12  C1  UNL     1       8.846  -0.871  23.647  1.00  0.00     0.011 C
HETATM   13  C17 UNL     1       9.016   1.622  23.489  1.00  0.00     0.040 C
ENDBRANCH   3   5
ENDBRANCH   1   3
BRANCH   1  14
HETATM   14  N3  UNL     1       7.768   5.476  22.593  1.00  0.00    -0.367 N
ATOM     15  H3  UNL     1       7.683   5.101  21.649  1.00  0.00     0.161 HD
BRANCH  14  16
HETATM   16  C7  UNL     1       6.678   6.260  23.160  1.00  0.00     0.122 C
BRANCH  16  17
HETATM   17  C8  UNL     1       6.068   5.544  24.316  1.00  0.00     0.024 C
BRANCH  17  18
HETATM   18  C9  UNL     1       4.984   6.415  24.942  1.00  0.00    -0.013 C
HETATM   19  C10 UNL     1       4.909   7.747  24.217  1.00  0.00     0.005 C
HETATM   20  C11 UNL     1       3.440   8.190  24.172  1.00  0.00     0.000 C
HETATM   21  C12 UNL     1       2.944   8.670  25.495  1.00  0.00     0.000 C
HETATM   22  C13 UNL     1       2.414   7.628  26.413  1.00  0.00     0.000 C
HETATM   23  C14 UNL     1       3.344   7.282  27.560  1.00  0.00     0.000 C
HETATM   24  C15 UNL     1       4.239   6.083  27.225  1.00  0.00     0.000 C
HETATM   25  C16 UNL     1       5.364   6.627  26.397  1.00  0.00     0.005 C
ENDBRANCH  17  18
ENDBRANCH  16  17
ENDBRANCH  14  16
ENDBRANCH   1  14
TORSDOF 6
ENDMDL