MODEL 4
REMARK VINA RESULT: -7.213832508      3.203      8.740
REMARK  2 active torsions:
REMARK  status: ('A' for Active; 'I' for Inactive)
REMARK    1  A    between atoms: C10_10  and  N1_11
REMARK       I    between atoms: N1_11  and  C11_13
REMARK       I    between atoms: C11_13  and  N2_15
REMARK    2  A    between atoms: N2_15  and  C12_17
REMARK       I    between atoms: N3_20  and  C15_21
ROOT
HETATM    1  N1  UNL     1      10.131   6.873  22.963  1.00  0.00    -0.338 N
ATOM      2  H1  UNL     1      10.213   6.877  21.946  1.00  0.00     0.164 HD
HETATM    3  C11 UNL     1       9.630   5.702  23.574  1.00  0.00     0.316 C
HETATM    4  O1  UNL     1       9.519   5.667  24.830  1.00  0.00    -0.247 OA
HETATM    5  N2  UNL     1       9.239   4.549  22.860  1.00  0.00    -0.338 N
ATOM      6  H2  UNL     1       9.326   4.570  21.844  1.00  0.00     0.164 HD
ENDROOT
BRANCH   1   7
HETATM    7  C10 UNL     1      10.533   8.051  23.663  1.00  0.00     0.091 C
HETATM    8  C9  UNL     1      11.919   8.524  23.289  1.00  0.00     0.012 C
HETATM    9  C4  UNL     1      11.774   9.643  22.280  1.00  0.00    -0.008 C
HETATM   10  C8  UNL     1      12.763   7.454  22.686  1.00  0.00     0.007 C
HETATM   11  C3  UNL     1      11.339  10.876  23.063  1.00  0.00     0.009 C
HETATM   12  C5  UNL     1      13.034   9.862  21.509  1.00  0.00     0.005 C
HETATM   13  C2  UNL     1      10.200  10.466  23.959  1.00  0.00    -0.016 C
HETATM   14  C1  UNL     1       9.172  11.585  23.926  1.00  0.00     0.010 C
HETATM   15  C18 UNL     1       9.537   9.187  23.501  1.00  0.00     0.029 C
HETATM   16  C6  UNL     1      14.272   9.398  22.221  1.00  0.00     0.000 C
HETATM   17  C7  UNL     1      14.206   7.971  22.671  1.00  0.00     0.000 C
ENDBRANCH   1   7
BRANCH   5  18
HETATM   18  C12 UNL     1       8.729   3.353  23.457  1.00  0.00     0.089 C
HETATM   19  C13 UNL     1       9.464   2.146  22.983  1.00  0.00     0.045 C
HETATM   20  C14 UNL     1       9.854   1.187  24.093  1.00  0.00     0.127 C
HETATM   21  N3  UNL     1       8.700   1.012  24.934  1.00  0.00    -0.356 N
HETATM   22  C15 UNL     1       8.150  -0.276  25.102  1.00  0.00     0.183 C
HETATM   23  C16 UNL     1       8.137   2.166  25.582  1.00  0.00     0.127 C
HETATM   24  N4  UNL     1       7.725  -0.961  24.072  1.00  0.00    -0.374 N
HETATM   25  N5  UNL     1       8.026  -0.901  26.378  1.00  0.00    -0.064 NA
ATOM     26  H42 UNL     1       7.814  -0.514  23.159  1.00  0.00     0.158 HD
ATOM     27  H41 UNL     1       7.328  -1.893  24.194  1.00  0.00     0.158 HD
HETATM   28  C17 UNL     1       8.605   3.459  24.960  1.00  0.00     0.045 C
ENDBRANCH   5  18
TORSDOF 2
ENDMDL