MODEL 2
REMARK VINA RESULT: -6.381751410      7.237     10.942
REMARK  4 active torsions:
REMARK  status: ('A' for Active; 'I' for Inactive)
REMARK    1  A    between atoms: C2_2  and  N1_4
REMARK       I    between atoms: N1_4  and  C4_6
REMARK       I    between atoms: C4_6  and  N3_13
REMARK    2  A    between atoms: N2_7  and  C5_9
REMARK    3  A    between atoms: C5_9  and  C6_10
REMARK    4  A    between atoms: N3_13  and  C9_15
ROOT
HETATM    1  C9  UNL     1       6.910   6.332  23.377  1.00  0.00     0.143 A
HETATM    2  N4  UNL     1       6.369   7.511  23.068  1.00  0.00    -0.284 N
ATOM      3  H4  UNL     1       6.473   7.987  22.172  1.00  0.00     0.188 HD
HETATM    4  N5  UNL     1       5.687   7.964  24.084  1.00  0.00    -0.302 N
ATOM      5  H5  UNL     1       5.180   8.849  24.091  1.00  0.00     0.186 HD
HETATM    6  C10 UNL     1       5.740   7.096  25.137  1.00  0.00     0.044 A
HETATM    7  C11 UNL     1       6.520   6.063  24.676  1.00  0.00     0.013 A
HETATM    8  C12 UNL     1       6.799   4.901  25.596  1.00  0.00     0.053 C
HETATM    9  C13 UNL     1       7.039   5.565  26.961  1.00  0.00    -0.043 C
HETATM   10  C14 UNL     1       8.198   6.505  26.880  1.00  0.00     0.015 C
HETATM   11  C15 UNL     1       7.404   4.491  27.985  1.00  0.00     0.015 C
HETATM   12  C16 UNL     1       5.761   6.200  27.425  1.00  0.00     0.024 C
HETATM   13  C17 UNL     1       5.135   7.160  26.486  1.00  0.00    -0.002 C
HETATM   14  C18 UNL     1       5.124   8.583  26.988  1.00  0.00     0.021 C
HETATM   15  C19 UNL     1       3.657   6.792  26.287  1.00  0.00     0.021 C
ENDROOT
BRANCH   1  16
HETATM   16  N3  UNL     1       7.652   5.530  22.694  1.00  0.00    -0.175 N
HETATM   17  C4  UNL     1       8.894   5.027  23.121  1.00  0.00     0.675 C
HETATM   18  N1  UNL     1       9.898   5.795  23.755  1.00  0.00    -0.222 N
HETATM   19  N2  UNL     1       9.118   3.754  22.907  1.00  0.00    -0.226 N
ATOM     20  H1  UNL     1      10.252   5.468  24.653  1.00  0.00     0.178 HD
ATOM     21  H2  UNL     1       8.405   3.185  22.451  1.00  0.00     0.177 HD
ATOM     22  H3  UNL     1       7.314   5.238  21.777  1.00  0.00     0.186 HD
BRANCH  18  23
HETATM   23  C2  UNL     1      10.451   7.007  23.214  1.00  0.00     0.091 C
HETATM   24  C1  UNL     1      11.970   6.898  23.277  1.00  0.00     0.032 C
HETATM   25  C3  UNL     1      10.064   8.180  24.079  1.00  0.00     0.032 C
ENDBRANCH  18  23
BRANCH  19  26
HETATM   26  C5  UNL     1      10.377   3.146  23.315  1.00  0.00     0.142 C
BRANCH  26  27
HETATM   27  C6  UNL     1      10.080   1.747  23.797  1.00  0.00     0.004 A
HETATM   28  C7  UNL     1       8.950   1.001  23.202  1.00  0.00     0.007 A
HETATM   29  C8  UNL     1       8.884   1.459  24.617  1.00  0.00     0.007 A
ENDBRANCH  26  27
ENDBRANCH  19  26
ENDBRANCH   1  16
TORSDOF 4
ENDMDL