MODEL 3
REMARK VINA RESULT: -6.920379535      2.314      3.712
REMARK  7 active torsions:
REMARK  status: ('A' for Active; 'I' for Inactive)
REMARK    1  A    between atoms: C2_2  and  N1_4
REMARK       I    between atoms: N1_4  and  C4_6
REMARK       I    between atoms: C4_6  and  N2_8
REMARK       I    between atoms: C5_10  and  N3_11
REMARK       I    between atoms: C5_10  and  N5_26
REMARK    2  A    between atoms: N3_11  and  C6_13
REMARK    3  A    between atoms: C6_13  and  N4_15
REMARK    4  A    between atoms: N4_15  and  C7_17
REMARK    5  A    between atoms: C7_17  and  C8_18
REMARK    6  A    between atoms: C8_18  and  C9_19
REMARK    7  A    between atoms: N5_26  and  C15_28
ROOT
HETATM    1  N1  UNL     1       8.877   8.688  23.127  1.00  0.00    -0.339 N
ATOM      2  H1  UNL     1       8.932   9.518  23.717  1.00  0.00     0.164 HD
HETATM    3  C4  UNL     1       7.608   8.170  22.763  1.00  0.00     0.334 C
HETATM    4  O1  UNL     1       7.595   7.136  22.027  1.00  0.00    -0.246 OA
HETATM    5  N2  UNL     1       6.371   8.704  23.153  1.00  0.00    -0.141 N
ATOM      6  H2  UNL     1       6.001   9.448  22.561  1.00  0.00     0.189 HD
HETATM    7  C5  UNL     1       5.652   8.376  24.150  1.00  0.00     0.685 C
HETATM    8  N3  UNL     1       6.070   7.354  25.044  1.00  0.00    -0.166 N
ATOM      9  H3  UNL     1       6.661   7.629  25.828  1.00  0.00     0.186 HD
HETATM   10  N5  UNL     1       4.423   9.075  24.336  1.00  0.00    -0.218 N
ATOM     11  H5  UNL     1       3.932   8.994  25.226  1.00  0.00     0.178 HD
ENDROOT
BRANCH   8  12
HETATM   12  C6  UNL     1       5.732   5.986  24.932  1.00  0.00     0.186 C
HETATM   13  S1  UNL     1       4.239   5.556  24.504  1.00  0.00    -0.040 SA
BRANCH  12  14
HETATM   14  N4  UNL     1       6.698   5.003  25.218  1.00  0.00    -0.366 N
ATOM     15  H4  UNL     1       6.758   4.643  26.171  1.00  0.00     0.161 HD
BRANCH  14  16
HETATM   16  C7  UNL     1       7.603   4.480  24.230  1.00  0.00     0.126 C
BRANCH  16  17
HETATM   17  C8  UNL     1       8.895   3.945  24.783  1.00  0.00     0.058 C
BRANCH  17  18
HETATM   18  C9  UNL     1       8.842   2.448  24.693  1.00  0.00    -0.057 A
HETATM   19  C10 UNL     1       8.414   1.688  25.765  1.00  0.00     0.010 A
HETATM   20  C11 UNL     1       8.355   0.311  25.722  1.00  0.00     0.043 A
HETATM   21  C12 UNL     1       8.741  -0.350  24.559  1.00  0.00     0.116 A
HETATM   22  F1  UNL     1       8.708  -1.694  24.450  1.00  0.00    -0.206 F
HETATM   23  C13 UNL     1       9.172   0.379  23.474  1.00  0.00     0.043 A
HETATM   24  C14 UNL     1       9.215   1.751  23.556  1.00  0.00     0.010 A
ENDBRANCH  17  18
ENDBRANCH  16  17
ENDBRANCH  14  16
ENDBRANCH  12  14
ENDBRANCH   8  12
BRANCH  10  25
HETATM   25  C15 UNL     1       3.860   9.893  23.292  1.00  0.00     0.036 C
HETATM   26  C16 UNL     1       4.932  10.746  22.627  1.00  0.00     0.038 C
HETATM   27  C17 UNL     1       3.129   9.074  22.242  1.00  0.00     0.038 C
HETATM   28  C18 UNL     1       2.858  10.856  23.886  1.00  0.00     0.038 C
ENDBRANCH  10  25
BRANCH   1  29
HETATM   29  C2  UNL     1      10.091   8.056  22.671  1.00  0.00     0.078 C
HETATM   30  C1  UNL     1      10.612   7.044  23.663  1.00  0.00     0.032 C
HETATM   31  C3  UNL     1      11.159   9.099  22.324  1.00  0.00     0.032 C
ENDBRANCH   1  29
TORSDOF 7
ENDMDL