MODEL 3
REMARK VINA RESULT: -7.116303087      3.666      5.807
REMARK  5 active torsions:
REMARK  status: ('A' for Active; 'I' for Inactive)
REMARK       I    between atoms: C2_2  and  N1_4
REMARK    1  A    between atoms: N1_4  and  C3_6
REMARK    2  A    between atoms: C3_6  and  C4_7
REMARK    3  A    between atoms: C3_6  and  C10_21
REMARK       I    between atoms: C4_7  and  N2_9
REMARK    4  A    between atoms: N2_9  and  N3_11
REMARK       I    between atoms: N3_11  and  C5_13
REMARK       I    between atoms: C5_13  and  N4_15
REMARK    5  A    between atoms: N4_15  and  C6_17
ROOT
HETATM    1  C4  UNL     1       9.749   5.939  23.483  1.00  0.00     0.263 C
HETATM    2  O2  UNL     1       9.258   6.244  22.358  1.00  0.00    -0.269 OA
HETATM    3  N2  UNL     1      11.110   6.156  23.715  1.00  0.00    -0.264 N
ATOM      4  H2  UNL     1      11.505   5.908  24.622  1.00  0.00     0.190 HD
ENDROOT
BRANCH   1   5
HETATM    5  C3  UNL     1       8.814   5.361  24.484  1.00  0.00     0.211 C
BRANCH   5   6
HETATM    6  N1  UNL     1       9.019   5.933  25.787  1.00  0.00    -0.344 N
HETATM    7  C2  UNL     1       8.045   6.691  26.479  1.00  0.00     0.214 C
HETATM    8  C1  UNL     1       8.255   7.278  27.818  1.00  0.00     0.117 C
HETATM    9  O1  UNL     1       6.939   6.875  25.923  1.00  0.00    -0.274 OA
ATOM     10  H1  UNL     1       9.920   5.783  26.241  1.00  0.00     0.163 HD
ENDBRANCH   5   6
BRANCH   5  11
HETATM   11  C10 UNL     1       8.794   3.901  24.469  1.00  0.00    -0.026 A
HETATM   12  C11 UNL     1       8.365   3.183  25.559  1.00  0.00     0.011 A
HETATM   13  C12 UNL     1       8.332   1.802  25.569  1.00  0.00     0.019 A
HETATM   14  C13 UNL     1       8.742   1.110  24.455  1.00  0.00     0.011 A
HETATM   15 BR1  UNL     1       8.704  -0.814  24.451  1.00  0.00    -0.051 Br
HETATM   16  C14 UNL     1       9.182   1.793  23.339  1.00  0.00     0.019 A
HETATM   17  C15 UNL     1       9.199   3.186  23.367  1.00  0.00     0.011 A
ENDBRANCH   5  11
ENDBRANCH   1   5
BRANCH   3  18
HETATM   18  N3  UNL     1      11.942   6.703  22.739  1.00  0.00    -0.249 N
HETATM   19  C5  UNL     1      12.275   8.078  22.716  1.00  0.00     0.335 C
HETATM   20  O3  UNL     1      11.805   8.825  23.602  1.00  0.00    -0.246 OA
HETATM   21  N4  UNL     1      13.116   8.616  21.727  1.00  0.00    -0.334 N
ATOM     22  H4  UNL     1      13.499   8.005  21.007  1.00  0.00     0.165 HD
ATOM     23  H3  UNL     1      12.323   6.092  22.017  1.00  0.00     0.192 HD
BRANCH  21  24
HETATM   24  C6  UNL     1      13.441  10.011  21.718  1.00  0.00     0.023 C
HETATM   25  C7  UNL     1      14.157  10.352  22.985  1.00  0.00     0.037 C
HETATM   26  C8  UNL     1      14.335  10.340  20.528  1.00  0.00     0.037 C
HETATM   27  C9  UNL     1      12.181  10.841  21.517  1.00  0.00     0.037 C
ENDBRANCH  21  24
ENDBRANCH   3  18
TORSDOF 5
ENDMDL