MODEL 3
REMARK VINA RESULT: -7.307301185      1.272      1.799
REMARK  5 active torsions:
REMARK  status: ('A' for Active; 'I' for Inactive)
REMARK       I    between atoms: C1_2  and  N1_3
REMARK       I    between atoms: C1_2  and  N2_19
REMARK    1  A    between atoms: N1_3  and  C2_5
REMARK    2  A    between atoms: C4_7  and  C5_8
REMARK    3  A    between atoms: C5_8  and  O2_9
REMARK    4  A    between atoms: C5_8  and  C6_12
REMARK    5  A    between atoms: N2_19  and  C11_21
ROOT
HETATM    1  O1  UNL     1      11.445   8.107  23.368  1.00  0.00    -0.247 OA
HETATM    2  C1  UNL     1      10.401   8.546  22.779  1.00  0.00     0.317 C
HETATM    3  N1  UNL     1       9.127   7.997  23.045  1.00  0.00    -0.338 N
ATOM      4  H1  UNL     1       8.309   8.367  22.560  1.00  0.00     0.164 HD
HETATM    5  N2  UNL     1      10.573   9.599  21.857  1.00  0.00    -0.334 N
ATOM      6  H2  UNL     1       9.742   9.959  21.386  1.00  0.00     0.165 HD
ENDROOT
BRANCH   3   7
HETATM    7  C2  UNL     1       8.967   6.932  23.981  1.00  0.00     0.091 C
HETATM    8  C3  UNL     1       9.389   5.589  23.428  1.00  0.00     0.037 C
HETATM    9  C4  UNL     1       8.340   4.587  23.839  1.00  0.00     0.071 C
HETATM   10  C7  UNL     1       7.417   5.273  24.784  1.00  0.00     0.002 C
HETATM   11  C8  UNL     1       5.997   5.359  24.211  1.00  0.00     0.006 C
HETATM   12  C10 UNL     1       7.544   6.755  24.429  1.00  0.00     0.013 C
HETATM   13  C9  UNL     1       6.534   6.495  23.333  1.00  0.00     0.007 C
BRANCH   9  14
HETATM   14  C5  UNL     1       8.927   3.306  24.384  1.00  0.00     0.296 C
HETATM   15  F1  UNL     1       9.839   3.577  25.377  1.00  0.00    -0.199 F
BRANCH  14  16
HETATM   16  O2  UNL     1       7.866   2.532  24.851  1.00  0.00    -0.353 OA
ATOM     17  H2  UNL     1       8.068   2.290  25.747  1.00  0.00     0.214 HD
ENDBRANCH  14  16
BRANCH  14  18
HETATM   18  C6  UNL     1       9.612   2.563  23.314  1.00  0.00     0.244 C
HETATM   19  O3  UNL     1       8.999   1.671  22.676  1.00  0.00    -0.644 OA
HETATM   20  O4  UNL     1      10.945   2.802  22.958  1.00  0.00    -0.644 OA
ENDBRANCH  14  18
ENDBRANCH   9  14
ENDBRANCH   3   7
BRANCH   5  21
HETATM   21  C11 UNL     1      11.831  10.196  21.538  1.00  0.00     0.035 C
HETATM   22  C12 UNL     1      12.859   9.247  21.022  1.00  0.00     0.035 C
HETATM   23  C13 UNL     1      14.145   9.996  20.735  1.00  0.00    -0.012 C
HETATM   24  C14 UNL     1      14.629  10.587  22.033  1.00  0.00     0.009 C
HETATM   25  C18 UNL     1      13.922  11.012  19.662  1.00  0.00     0.009 C
HETATM   26  C15 UNL     1      13.657  11.636  22.474  1.00  0.00    -0.012 C
HETATM   27  C16 UNL     1      13.459  12.664  21.384  1.00  0.00     0.009 C
HETATM   28  C20 UNL     1      12.307  11.009  22.731  1.00  0.00     0.035 C
HETATM   29  C17 UNL     1      12.881  11.997  20.179  1.00  0.00    -0.012 C
HETATM   30  C19 UNL     1      11.622  11.236  20.418  1.00  0.00     0.035 C
ENDBRANCH   5  21
TORSDOF 5
ENDMDL