MODEL 3
REMARK VINA RESULT: -6.375049059      1.301      1.662
REMARK  6 active torsions:
REMARK  status: ('A' for Active; 'I' for Inactive)
REMARK    1  A    between atoms: C2_2  and  C5_5
REMARK       I    between atoms: C5_5  and  N1_7
REMARK    2  A    between atoms: N1_7  and  C6_9
REMARK    3  A    between atoms: C6_9  and  C7_10
REMARK    4  A    between atoms: C7_10  and  C8_11
REMARK       I    between atoms: C8_11  and  N2_13
REMARK    5  A    between atoms: N2_13  and  N3_15
REMARK       I    between atoms: N3_15  and  C9_17
REMARK       I    between atoms: C9_17  and  N4_19
REMARK    6  A    between atoms: N4_19  and  C10_21
ROOT
HETATM    1  C8  UNL     1       9.196   9.038  23.353  1.00  0.00     0.237 C
HETATM    2  O2  UNL     1      10.188   9.107  24.109  1.00  0.00    -0.272 OA
HETATM    3  N2  UNL     1       8.861   7.834  22.663  1.00  0.00    -0.266 N
ATOM      4  H2  UNL     1       8.052   7.759  22.044  1.00  0.00     0.190 HD
ENDROOT
BRANCH   3   5
HETATM    5  N3  UNL     1       9.739   6.755  22.907  1.00  0.00    -0.249 N
HETATM    6  C9  UNL     1       9.177   5.509  23.271  1.00  0.00     0.339 C
HETATM    7  O3  UNL     1       7.925   5.414  23.365  1.00  0.00    -0.245 OA
HETATM    8  N4  UNL     1      10.016   4.406  23.515  1.00  0.00    -0.308 N
ATOM      9  H4  UNL     1      11.021   4.552  23.414  1.00  0.00     0.170 HD
ATOM     10  H3  UNL     1      10.750   6.871  22.824  1.00  0.00     0.192 HD
BRANCH   8  11
HETATM   11  C10 UNL     1       9.582   3.107  23.889  1.00  0.00     0.036 A
HETATM   12  C11 UNL     1       9.151   2.877  25.210  1.00  0.00     0.031 A
HETATM   13  C12 UNL     1       8.705   1.654  25.648  1.00  0.00     0.021 A
HETATM   14  C13 UNL     1       8.662   0.575  24.787  1.00  0.00     0.011 A
HETATM   15 BR1  UNL     1       8.046  -1.144  25.375  1.00  0.00    -0.051 Br
HETATM   16  C14 UNL     1       9.076   0.770  23.492  1.00  0.00     0.021 A
HETATM   17  C15 UNL     1       9.532   2.027  23.047  1.00  0.00     0.031 A
ENDBRANCH   8  11
ENDBRANCH   3   5
BRANCH   1  18
HETATM   18  C7  UNL     1       8.352  10.245  23.172  1.00  0.00     0.124 C
BRANCH  18  19
HETATM   19  C6  UNL     1       7.339  10.015  22.079  1.00  0.00     0.132 C
BRANCH  19  20
HETATM   20  N1  UNL     1       6.019  10.070  22.583  1.00  0.00    -0.360 N
HETATM   21  C5  UNL     1       5.291   8.957  23.015  1.00  0.00     0.225 C
HETATM   22  O1  UNL     1       5.785   7.801  22.987  1.00  0.00    -0.273 OA
ATOM     23  H1  UNL     1       5.568  10.983  22.635  1.00  0.00     0.162 HD
BRANCH  21  24
HETATM   24  C2  UNL     1       3.895   9.050  23.532  1.00  0.00     0.030 C
HETATM   25  C1  UNL     1       2.985   9.151  22.306  1.00  0.00     0.024 C
HETATM   26  C3  UNL     1       3.675  10.288  24.346  1.00  0.00     0.024 C
HETATM   27  C4  UNL     1       3.525   7.804  24.291  1.00  0.00     0.024 C
ENDBRANCH  21  24
ENDBRANCH  19  20
ENDBRANCH  18  19
ENDBRANCH   1  18
TORSDOF 6
ENDMDL