MODEL 2
REMARK VINA RESULT: -7.134417363      5.535      8.046
REMARK  6 active torsions:
REMARK  status: ('A' for Active; 'I' for Inactive)
REMARK    1  A    between atoms: C2_2  and  N1_4
REMARK    2  A    between atoms: N1_4  and  N2_5
REMARK       I    between atoms: N2_5  and  C3_7
REMARK       I    between atoms: C3_7  and  N4_16
REMARK       I    between atoms: N3_8  and  C4_10
REMARK    3  A    between atoms: C4_10  and  C5_12
REMARK    4  A    between atoms: N4_16  and  N5_18
REMARK       I    between atoms: N5_18  and  C9_20
REMARK       I    between atoms: C9_20  and  N6_22
REMARK    5  A    between atoms: N6_22  and  C10_24
REMARK    6  A    between atoms: C10_24  and  C11_25
ROOT
HETATM    1  N2  UNL     1       9.258   4.458  24.970  1.00  0.00    -0.063 N
ATOM      2  H2  UNL     1       9.137   4.657  25.963  1.00  0.00     0.221 HD
HETATM    3  C3  UNL     1       9.263   5.702  24.337  1.00  0.00     0.724 C
HETATM    4  N3  UNL     1       8.144   6.240  23.986  1.00  0.00    -0.156 N
ATOM      5  H3  UNL     1       8.168   7.148  23.522  1.00  0.00     0.187 HD
HETATM    6  C4  UNL     1       6.887   5.634  24.209  1.00  0.00     0.243 C
HETATM    7  O1  UNL     1       6.717   4.427  24.091  1.00  0.00    -0.272 OA
HETATM    8  N4  UNL     1      10.497   6.363  24.215  1.00  0.00    -0.126 N
ATOM      9  H4  UNL     1      10.767   6.847  25.071  1.00  0.00     0.206 HD
ENDROOT
BRANCH   8  10
HETATM   10  N5  UNL     1      11.419   6.508  23.222  1.00  0.00    -0.237 N
HETATM   11  C9  UNL     1      11.471   7.647  22.367  1.00  0.00     0.339 C
HETATM   12  O2  UNL     1      10.548   8.548  22.394  1.00  0.00    -0.245 OA
HETATM   13  N6  UNL     1      12.556   7.850  21.467  1.00  0.00    -0.317 N
ATOM     14  H6  UNL     1      13.309   7.161  21.437  1.00  0.00     0.170 HD
ATOM     15  H5  UNL     1      12.106   5.766  23.084  1.00  0.00     0.192 HD
BRANCH  13  16
HETATM   16  C10 UNL     1      12.624   8.970  20.618  1.00  0.00     0.104 C
BRANCH  16  17
HETATM   17  C11 UNL     1      13.668   9.980  20.833  1.00  0.00    -0.021 A
HETATM   18  C12 UNL     1      13.908  10.942  19.828  1.00  0.00     0.013 A
HETATM   19  C13 UNL     1      15.001  11.801  19.904  1.00  0.00     0.007 A
HETATM   20  C14 UNL     1      15.884  11.751  20.956  1.00  0.00    -0.062 A
HETATM   21  C15 UNL     1      17.101  12.625  20.971  1.00  0.00     0.048 C
HETATM   22  C16 UNL     1      15.634  10.808  21.947  1.00  0.00     0.007 A
HETATM   23  C17 UNL     1      14.556   9.947  21.885  1.00  0.00     0.013 A
ENDBRANCH  16  17
ENDBRANCH  13  16
ENDBRANCH   8  10
BRANCH   1  24
HETATM   24  N1  UNL     1       9.333   3.211  24.884  1.00  0.00    -0.303 NA
BRANCH  24  25
HETATM   25  C2  UNL     1       9.394   2.036  24.799  1.00  0.00     0.174 C
HETATM   26  C1  UNL     1       8.591   1.180  25.785  1.00  0.00     0.101 C
HETATM   27 CL1  UNL     1      10.302   1.060  23.631  1.00  0.00    -0.052 Cl
ENDBRANCH  24  25
ENDBRANCH   1  24
BRANCH   6  28
HETATM   28  C5  UNL     1       5.737   6.508  24.603  1.00  0.00     0.031 C
HETATM   29  C6  UNL     1       4.466   5.760  24.397  1.00  0.00     0.025 C
HETATM   30  C7  UNL     1       5.917   6.907  26.068  1.00  0.00     0.025 C
HETATM   31  C8  UNL     1       5.719   7.762  23.741  1.00  0.00     0.025 C
ENDBRANCH   6  28
TORSDOF 6
ENDMDL