MODEL 1
REMARK VINA RESULT: -7.582159046      0.000      0.000
REMARK  9 active torsions:
REMARK  status: ('A' for Active; 'I' for Inactive)
REMARK    1  A    between atoms: C2_2  and  C3_3
REMARK    2  A    between atoms: C2_2  and  N2_14
REMARK    3  A    between atoms: C3_3  and  N1_4
REMARK       I    between atoms: N1_4  and  C4_6
REMARK    4  A    between atoms: C4_6  and  C5_8
REMARK    5  A    between atoms: N2_14  and  C9_16
REMARK    6  A    between atoms: C9_16  and  O2_17
REMARK    7  A    between atoms: C9_16  and  N3_19
REMARK    8  A    between atoms: N3_19  and  C10_21
REMARK    9  A    between atoms: C12_23  and  C13_24
ROOT
HETATM    1  C9  UNL     1       7.566   6.388  22.866  1.00  0.00     0.218 C
ENDROOT
BRANCH   1   2
HETATM    2  N2  UNL     1       6.899   5.688  23.841  1.00  0.00    -0.350 N
ATOM      3  H2  UNL     1       6.385   4.833  23.629  1.00  0.00     0.163 HD
BRANCH   2   4
HETATM    4  C2  UNL     1       6.966   6.262  25.279  1.00  0.00     0.098 C
HETATM    5  C1  UNL     1       5.494   6.251  25.718  1.00  0.00     0.034 C
BRANCH   4   6
HETATM    6  C3  UNL     1       7.705   5.163  25.974  1.00  0.00     0.147 C
BRANCH   6   7
HETATM    7  N1  UNL     1       7.555   3.849  25.345  1.00  0.00    -0.354 N
HETATM    8  C4  UNL     1       8.536   2.909  25.690  1.00  0.00     0.260 C
HETATM    9  O1  UNL     1       9.408   3.151  26.567  1.00  0.00    -0.267 OA
ATOM     10  H1  UNL     1       6.792   3.634  24.703  1.00  0.00     0.162 HD
BRANCH   8  11
HETATM   11  C5  UNL     1       8.582   1.585  25.000  1.00  0.00     0.094 A
HETATM   12  S1  UNL     1       8.171   0.081  25.783  1.00  0.00    -0.095 SA
HETATM   13  C6  UNL     1       8.613  -1.004  24.547  1.00  0.00     0.052 A
HETATM   14  C7  UNL     1       9.063  -0.171  23.570  1.00  0.00     0.032 A
HETATM   15  C8  UNL     1       9.046   1.166  23.802  1.00  0.00     0.057 A
HETATM   16 CL1  UNL     1       9.638   2.324  22.553  1.00  0.00    -0.083 Cl
ENDBRANCH   8  11
ENDBRANCH   6   7
ENDBRANCH   4   6
ENDBRANCH   2   4
ENDBRANCH   1   2
BRANCH   1  17
HETATM   17  O2  UNL     1       7.628   5.985  21.626  1.00  0.00    -0.332 OA
ATOM     18  H2  UNL     1       8.425   6.030  21.111  1.00  0.00     0.220 HD
ENDBRANCH   1  17
BRANCH   1  19
HETATM   19  N3  UNL     1       8.281   7.596  22.995  1.00  0.00    -0.307 N
ATOM     20  H3  UNL     1       7.797   8.488  23.099  1.00  0.00     0.171 HD
BRANCH  19  21
HETATM   21  C10 UNL     1       9.569   7.533  22.975  1.00  0.00     0.124 A
HETATM   22  C11 UNL     1      10.432   8.561  22.711  1.00  0.00     0.077 A
HETATM   23  C12 UNL     1      11.731   8.043  22.728  1.00  0.00     0.037 A
HETATM   24  N4  UNL     1      11.603   6.734  22.988  1.00  0.00    -0.302 N
HETATM   25  N5  UNL     1      10.329   6.421  23.137  1.00  0.00    -0.285 N
ATOM     26  H4  UNL     1      12.378   6.074  23.059  1.00  0.00     0.186 HD
ATOM     27  H5  UNL     1       9.972   5.488  23.343  1.00  0.00     0.188 HD
BRANCH  23  28
HETATM   28  C13 UNL     1      13.022   8.759  22.587  1.00  0.00    -0.007 C
HETATM   29  C14 UNL     1      14.210   7.850  22.745  1.00  0.00     0.021 C
HETATM   30  C15 UNL     1      13.044   9.319  21.149  1.00  0.00     0.021 C
HETATM   31  C16 UNL     1      13.046   9.949  23.506  1.00  0.00     0.021 C
ENDBRANCH  23  28
ENDBRANCH  19  21
ENDBRANCH   1  19
TORSDOF 9
ENDMDL