MODEL 2
REMARK VINA RESULT: -7.969747961      1.166      1.458
REMARK  8 active torsions:
REMARK  status: ('A' for Active; 'I' for Inactive)
REMARK    1  A    between atoms: C2_2  and  C3_3
REMARK    2  A    between atoms: C8_8  and  C9_9
REMARK    3  A    between atoms: C9_9  and  N1_10
REMARK       I    between atoms: N1_10  and  C10_12
REMARK    4  A    between atoms: C10_12  and  C11_14
REMARK       I    between atoms: C11_14  and  N2_16
REMARK    5  A    between atoms: N2_16  and  N3_18
REMARK    6  A    between atoms: N3_18  and  C12_20
REMARK    7  A    between atoms: C12_20  and  N4_22
REMARK    8  A    between atoms: N4_22  and  C13_24
ROOT
HETATM    1  C11 UNL     1      12.838   7.761  22.215  1.00  0.00     0.328 C
HETATM    2  O2  UNL     1      13.810   7.339  22.852  1.00  0.00    -0.261 OA
HETATM    3  N2  UNL     1      11.521   7.279  22.452  1.00  0.00    -0.260 N
ATOM      4  H2  UNL     1      10.723   7.668  21.950  1.00  0.00     0.190 HD
ENDROOT
BRANCH   1   5
HETATM    5  C10 UNL     1      13.086   8.796  21.134  1.00  0.00     0.315 C
HETATM    6  N1  UNL     1      14.152   9.671  21.417  1.00  0.00    -0.328 N
ATOM      7  H1  UNL     1      14.487   9.353  22.327  1.00  0.00     0.168 HD
HETATM    8  O1  UNL     1      12.413   8.821  20.131  1.00  0.00    -0.262 OA
BRANCH   6   9
HETATM    9  C9  UNL     1      14.979  10.723  21.120  1.00  0.00     0.103 C
BRANCH   9  10
HETATM   10  C8  UNL     1      14.660  11.948  20.406  1.00  0.00    -0.011 A
HETATM   11  C3  UNL     1      15.796  12.748  20.105  1.00  0.00    -0.025 A
HETATM   12  C4  UNL     1      15.730  13.818  19.302  1.00  0.00     0.012 A
HETATM   13  C5  UNL     1      14.505  14.191  18.724  1.00  0.00     0.001 A
HETATM   14  C6  UNL     1      13.363  13.425  19.005  1.00  0.00     0.001 A
HETATM   15  C7  UNL     1      13.510  12.306  19.854  1.00  0.00     0.013 A
BRANCH  11  16
HETATM   16  C2  UNL     1      16.967  12.352  20.895  1.00  0.00     0.002 C
HETATM   17  C1  UNL     1      17.964  13.143  21.030  1.00  0.00     0.012 C
ENDBRANCH  11  16
ENDBRANCH   9  10
ENDBRANCH   6   9
ENDBRANCH   1   5
BRANCH   3  18
HETATM   18  N3  UNL     1      11.345   6.236  23.414  1.00  0.00    -0.273 N
ATOM     19  H3  UNL     1      12.168   5.745  23.764  1.00  0.00     0.189 HD
BRANCH  18  20
HETATM   20  C12 UNL     1      10.096   5.870  23.884  1.00  0.00     0.191 C
HETATM   21  S1  UNL     1       9.469   6.703  25.167  1.00  0.00    -0.039 SA
BRANCH  20  22
HETATM   22  N4  UNL     1       9.390   4.827  23.323  1.00  0.00    -0.332 N
ATOM     23  H4  UNL     1       8.857   5.081  22.492  1.00  0.00     0.168 HD
BRANCH  22  24
HETATM   24  C13 UNL     1       9.274   3.467  23.696  1.00  0.00     0.034 A
HETATM   25  C14 UNL     1       8.723   3.157  24.973  1.00  0.00     0.031 A
HETATM   26  C15 UNL     1       8.487   1.891  25.376  1.00  0.00     0.026 A
HETATM   27  C16 UNL     1       8.756   0.805  24.574  1.00  0.00     0.034 A
HETATM   28 CL1  UNL     1       8.405  -0.819  25.049  1.00  0.00    -0.084 Cl
HETATM   29  C17 UNL     1       9.305   1.103  23.314  1.00  0.00     0.026 A
HETATM   30  C18 UNL     1       9.541   2.388  22.921  1.00  0.00     0.031 A
ENDBRANCH  22  24
ENDBRANCH  20  22
ENDBRANCH  18  20
ENDBRANCH   3  18
TORSDOF 8
ENDMDL