MODEL 5
REMARK VINA RESULT: -7.532596400      1.629      2.625
REMARK  7 active torsions:
REMARK  status: ('A' for Active; 'I' for Inactive)
REMARK    1  A    between atoms: C2_2  and  N1_3
REMARK    2  A    between atoms: N1_3  and  C3_5
REMARK    3  A    between atoms: C3_5  and  N2_7
REMARK    4  A    between atoms: N2_7  and  C4_9
REMARK    5  A    between atoms: C7_12  and  C8_13
REMARK       I    between atoms: C8_13  and  N3_15
REMARK    6  A    between atoms: N3_15  and  N4_17
REMARK       I    between atoms: N4_17  and  C9_19
REMARK    7  A    between atoms: C9_19  and  C10_21
ROOT
HETATM    1  C8  UNL     1      11.835   6.956  22.950  1.00  0.00     0.270 C
HETATM    2  O1  UNL     1      12.851   6.186  22.874  1.00  0.00    -0.266 OA
HETATM    3  N3  UNL     1      10.583   6.485  23.401  1.00  0.00    -0.263 N
ATOM      4  H3  UNL     1       9.777   7.108  23.456  1.00  0.00     0.190 HD
ENDROOT
BRANCH   1   5
HETATM    5  C7  UNL     1      12.005   8.330  22.559  1.00  0.00     0.033 A
HETATM    6  C6  UNL     1      11.769   9.352  23.428  1.00  0.00     0.019 A
HETATM    7  C5  UNL     1      11.946  10.670  22.985  1.00  0.00     0.030 A
HETATM    8  C4  UNL     1      12.346  11.011  21.730  1.00  0.00     0.034 A
HETATM    9  C17 UNL     1      12.578   9.926  20.863  1.00  0.00     0.030 A
HETATM   10  C16 UNL     1      12.409   8.633  21.278  1.00  0.00     0.019 A
BRANCH   8  11
HETATM   11  N2  UNL     1      12.566  12.329  21.265  1.00  0.00    -0.333 N
ATOM     12  H2  UNL     1      13.385  12.834  21.606  1.00  0.00     0.168 HD
BRANCH  11  13
HETATM   13  C3  UNL     1      11.715  12.973  20.358  1.00  0.00     0.172 C
HETATM   14  S1  UNL     1      12.324  13.553  18.938  1.00  0.00    -0.041 SA
BRANCH  13  15
HETATM   15  N1  UNL     1      10.315  13.106  20.610  1.00  0.00    -0.367 N
ATOM     16  H1  UNL     1       9.983  13.865  21.205  1.00  0.00     0.161 HD
BRANCH  15  17
HETATM   17  C2  UNL     1       9.365  12.189  20.039  1.00  0.00     0.117 C
HETATM   18  C1  UNL     1       8.755  11.307  21.106  1.00  0.00     0.026 C
ENDBRANCH  15  17
ENDBRANCH  13  15
ENDBRANCH  11  13
ENDBRANCH   8  11
ENDBRANCH   1   5
BRANCH   3  19
HETATM   19  N4  UNL     1      10.479   5.138  23.769  1.00  0.00    -0.263 N
HETATM   20  C9  UNL     1       9.272   4.463  23.567  1.00  0.00     0.270 C
HETATM   21  O2  UNL     1       8.297   5.065  23.061  1.00  0.00    -0.266 OA
ATOM     22  H4  UNL     1      11.277   4.654  24.181  1.00  0.00     0.190 HD
BRANCH  20  23
HETATM   23  C10 UNL     1       9.070   3.051  23.922  1.00  0.00     0.033 A
HETATM   24  C11 UNL     1       9.333   2.041  23.022  1.00  0.00     0.019 A
HETATM   25  C12 UNL     1       9.128   0.709  23.390  1.00  0.00     0.025 A
HETATM   26  C13 UNL     1       8.668   0.349  24.633  1.00  0.00     0.034 A
HETATM   27 CL1  UNL     1       8.426  -1.339  25.049  1.00  0.00    -0.084 Cl
HETATM   28  C14 UNL     1       8.406   1.363  25.528  1.00  0.00     0.025 A
HETATM   29  C15 UNL     1       8.608   2.680  25.165  1.00  0.00     0.019 A
ENDBRANCH  20  23
ENDBRANCH   3  19
TORSDOF 7
ENDMDL