MODEL 2
REMARK VINA RESULT: -7.847518378      1.057      2.133
REMARK  8 active torsions:
REMARK  status: ('A' for Active; 'I' for Inactive)
REMARK    1  A    between atoms: C2_2  and  C3_3
REMARK    2  A    between atoms: C8_8  and  N1_9
REMARK       I    between atoms: N1_9  and  C9_11
REMARK    3  A    between atoms: C9_11  and  C10_13
REMARK       I    between atoms: C10_13  and  N2_15
REMARK    4  A    between atoms: N2_15  and  N3_17
REMARK    5  A    between atoms: N3_17  and  C11_19
REMARK    6  A    between atoms: C11_19  and  N4_21
REMARK    7  A    between atoms: N4_21  and  C12_23
REMARK    8  A    between atoms: C12_23  and  C13_24
ROOT
HETATM    1  C10 UNL     1      10.928   7.826  22.800  1.00  0.00     0.328 C
HETATM    2  O2  UNL     1       9.926   8.507  23.143  1.00  0.00    -0.261 OA
HETATM    3  N2  UNL     1      10.971   6.462  23.189  1.00  0.00    -0.260 N
ATOM      4  H2  UNL     1      11.775   5.896  22.919  1.00  0.00     0.190 HD
ENDROOT
BRANCH   3   5
HETATM    5  N3  UNL     1       9.955   5.876  23.924  1.00  0.00    -0.273 N
ATOM      6  H3  UNL     1       9.942   5.988  24.938  1.00  0.00     0.189 HD
BRANCH   5   7
HETATM    7  C11 UNL     1       8.938   5.127  23.300  1.00  0.00     0.186 C
HETATM    8  S1  UNL     1       7.486   5.839  22.962  1.00  0.00    -0.040 SA
BRANCH   7   9
HETATM    9  N4  UNL     1       9.109   3.777  22.923  1.00  0.00    -0.362 N
ATOM     10  H4  UNL     1       8.555   3.409  22.150  1.00  0.00     0.162 HD
BRANCH   9  11
HETATM   11  C12 UNL     1      10.028   2.907  23.585  1.00  0.00     0.162 C
BRANCH  11  12
HETATM   12  C13 UNL     1       9.417   1.682  24.106  1.00  0.00    -0.019 A
HETATM   13  C14 UNL     1       9.308   0.546  23.346  1.00  0.00     0.010 A
HETATM   14  C15 UNL     1       8.697  -0.602  23.860  1.00  0.00     0.001 A
HETATM   15  C16 UNL     1       8.192  -0.614  25.138  1.00  0.00     0.002 A
HETATM   16  C17 UNL     1       8.312   0.541  25.882  1.00  0.00     0.024 A
HETATM   17  C18 UNL     1       8.904   1.676  25.406  1.00  0.00     0.042 A
HETATM   18 CL1  UNL     1       9.038   3.126  26.388  1.00  0.00    -0.084 Cl
ENDBRANCH  11  12
ENDBRANCH   9  11
ENDBRANCH   7   9
ENDBRANCH   5   7
ENDBRANCH   3   5
BRANCH   1  19
HETATM   19  C9  UNL     1      12.036   8.426  22.011  1.00  0.00     0.315 C
HETATM   20  N1  UNL     1      12.531   9.694  22.338  1.00  0.00    -0.318 N
ATOM     21  H1  UNL     1      12.081  10.152  23.130  1.00  0.00     0.169 HD
HETATM   22  O1  UNL     1      12.468   7.745  21.080  1.00  0.00    -0.262 OA
BRANCH  20  23
HETATM   23  C8  UNL     1      13.564  10.422  21.723  1.00  0.00     0.045 A
HETATM   24  C3  UNL     1      13.210  11.327  20.691  1.00  0.00    -0.010 A
HETATM   25  C4  UNL     1      14.248  12.044  20.136  1.00  0.00     0.013 A
HETATM   26  C5  UNL     1      15.556  11.896  20.552  1.00  0.00     0.001 A
HETATM   27  C6  UNL     1      15.913  11.026  21.546  1.00  0.00     0.002 A
HETATM   28  C7  UNL     1      14.887  10.294  22.120  1.00  0.00     0.030 A
BRANCH  24  29
HETATM   29  C2  UNL     1      11.841  11.484  20.234  1.00  0.00     0.003 C
HETATM   30  C1  UNL     1      11.335  12.667  19.996  1.00  0.00     0.012 C
ENDBRANCH  24  29
ENDBRANCH  20  23
ENDBRANCH   1  19
TORSDOF 8
ENDMDL