MODEL 5
REMARK VINA RESULT: -7.678135740      2.978      6.073
REMARK  8 active torsions:
REMARK  status: ('A' for Active; 'I' for Inactive)
REMARK    1  A    between atoms: N1_1  and  C1_4
REMARK    2  A    between atoms: C3_8  and  C4_9
REMARK    3  A    between atoms: C5_10  and  C6_11
REMARK    4  A    between atoms: C6_11  and  C7_12
REMARK    5  A    between atoms: C7_12  and  N3_13
REMARK    6  A    between atoms: N3_13  and  C8_14
REMARK       I    between atoms: N3_13  and  C9_16
REMARK    7  A    between atoms: C9_16  and  C10_18
REMARK    8  A    between atoms: C20_28  and  N4_29
ROOT
HETATM    1  C6  UNL     1       9.759   6.352  24.322  1.00  0.00     0.114 C
ENDROOT
BRANCH   1   2
HETATM    2  C5  UNL     1       9.517   4.948  24.535  1.00  0.00    -0.099 C
HETATM    3  C4  UNL     1       9.320   3.767  24.671  1.00  0.00    -0.062 C
BRANCH   3   4
HETATM    4  C3  UNL     1       9.076   2.362  24.837  1.00  0.00     0.077 A
HETATM    5  C2  UNL     1       9.507   1.427  23.916  1.00  0.00     0.130 A
HETATM    6  N2  UNL     1       9.255   0.104  24.110  1.00  0.00    -0.201 N
HETATM    7  C1  UNL     1       8.588  -0.340  25.191  1.00  0.00     0.677 A
ATOM      8  H2  UNL     1       9.580  -0.570  23.418  1.00  0.00     0.183 HD
HETATM    9  N5  UNL     1       8.163   0.559  26.097  1.00  0.00    -0.176 N
HETATM   10  C20 UNL     1       8.395   1.874  25.936  1.00  0.00     0.135 A
ATOM     11  H5  UNL     1       7.655   0.237  26.920  1.00  0.00     0.186 HD
BRANCH   7  12
HETATM   12  N1  UNL     1       8.338  -1.601  25.393  1.00  0.00    -0.234 N
ATOM     13  H12 UNL     1       8.204  -2.211  24.587  1.00  0.00     0.174 HD
ATOM     14  H11 UNL     1       8.271  -2.006  26.326  1.00  0.00     0.174 HD
ENDBRANCH   7  12
BRANCH  10  15
HETATM   15  N4  UNL     1       7.983   2.734  26.810  1.00  0.00    -0.384 N
ATOM     16  H42 UNL     1       8.511   2.906  27.666  1.00  0.00     0.157 HD
ATOM     17  H41 UNL     1       7.114   3.228  26.608  1.00  0.00     0.157 HD
ENDBRANCH  10  15
ENDBRANCH   3   4
ENDBRANCH   1   2
BRANCH   1  18
HETATM   18  C7  UNL     1       9.555   6.917  22.980  1.00  0.00     0.144 C
BRANCH  18  19
HETATM   19  N3  UNL     1       9.207   8.289  22.816  1.00  0.00    -0.317 N
HETATM   20  C9  UNL     1      10.223   9.280  22.707  1.00  0.00     0.229 C
HETATM   21  O1  UNL     1       9.826  10.480  22.512  1.00  0.00    -0.273 OA
BRANCH  19  22
HETATM   22  C8  UNL     1       7.848   8.761  22.858  1.00  0.00     0.179 C
HETATM   23 CL1  UNL     1       6.614   7.586  23.209  1.00  0.00    -0.078 Cl
ENDBRANCH  19  22
BRANCH  20  24
HETATM   24  C10 UNL     1      11.663   9.102  22.795  1.00  0.00     0.086 C
HETATM   25  C11 UNL     1      12.305   8.637  21.508  1.00  0.00    -0.000 C
HETATM   26  C12 UNL     1      13.648   8.021  21.925  1.00  0.00     0.010 C
HETATM   27  C16 UNL     1      12.561   9.687  20.496  1.00  0.00     0.010 C
HETATM   28  C13 UNL     1      14.463   9.102  22.592  1.00  0.00    -0.013 C
HETATM   29  C14 UNL     1      14.766  10.162  21.559  1.00  0.00     0.009 C
HETATM   30  C19 UNL     1      13.781   9.676  23.809  1.00  0.00     0.010 C
HETATM   31  C15 UNL     1      13.442  10.754  21.113  1.00  0.00    -0.013 C
HETATM   32  C17 UNL     1      12.783  11.330  22.347  1.00  0.00     0.010 C
HETATM   33  C18 UNL     1      12.435  10.268  23.358  1.00  0.00    -0.000 C
ENDBRANCH  20  24
ENDBRANCH  18  19
ENDBRANCH   1  18
TORSDOF 8
ENDMDL