MODEL 1
REMARK VINA RESULT: -8.568833260      0.000      0.000
REMARK  4 active torsions:
REMARK  status: ('A' for Active; 'I' for Inactive)
REMARK       I    between atoms: C1_2  and  N1_3
REMARK       I    between atoms: C1_2  and  N5_18
REMARK    1  A    between atoms: N1_3  and  C2_5
REMARK    2  A    between atoms: C5_12  and  C6_13
REMARK    3  A    between atoms: N5_18  and  C8_20
REMARK    4  A    between atoms: C8_20  and  C9_21
ROOT
HETATM    1  O1  UNL     1      14.528  -3.721  29.713  1.00  0.00    -0.247 OA
HETATM    2  C1  UNL     1      15.512  -3.163  29.191  1.00  0.00     0.325 C
HETATM    3  N1  UNL     1      15.731  -3.500  27.814  1.00  0.00    -0.291 N
ATOM      4  H1  UNL     1      15.348  -2.892  27.091  1.00  0.00     0.172 HD
HETATM    5  N5  UNL     1      16.363  -2.278  29.843  1.00  0.00    -0.322 N
ATOM      6  H5  UNL     1      17.130  -1.928  29.270  1.00  0.00     0.169 HD
ENDROOT
BRANCH   3   7
HETATM    7  C2  UNL     1      16.393  -4.538  27.462  1.00  0.00     0.153 A
HETATM    8  N2  UNL     1      17.458  -5.047  28.106  1.00  0.00    -0.283 N
HETATM    9  N3  UNL     1      17.888  -6.119  27.463  1.00  0.00    -0.297 N
ATOM     10  H2  UNL     1      17.870  -4.664  28.957  1.00  0.00     0.188 HD
HETATM   11  C3  UNL     1      17.139  -6.368  26.379  1.00  0.00     0.080 A
ATOM     12  H3  UNL     1      18.686  -6.683  27.754  1.00  0.00     0.187 HD
HETATM   13  C4  UNL     1      16.892  -7.158  25.285  1.00  0.00     0.059 A
HETATM   14  C7  UNL     1      16.176  -5.355  26.374  1.00  0.00     0.107 A
HETATM   15  C5  UNL     1      15.800  -6.648  24.614  1.00  0.00     0.025 A
HETATM   16  N4  UNL     1      15.395  -5.565  25.296  1.00  0.00    -0.354 N
ATOM     17  H4  UNL     1      14.603  -4.979  25.033  1.00  0.00     0.166 HD
BRANCH  15  18
HETATM   18  C6  UNL     1      15.206  -7.226  23.359  1.00  0.00     0.171 C
HETATM   19 CL1  UNL     1      13.464  -6.887  23.267  1.00  0.00    -0.124 Cl
ENDBRANCH  15  18
ENDBRANCH   3   7
BRANCH   5  20
HETATM   20  C8  UNL     1      16.344  -1.787  31.154  1.00  0.00     0.075 C
BRANCH  20  21
HETATM   21  C9  UNL     1      15.847  -0.405  31.445  1.00  0.00    -0.007 C
HETATM   22  C10 UNL     1      15.193   0.351  30.366  1.00  0.00     0.019 C
HETATM   23  C11 UNL     1      14.580   1.633  30.943  1.00  0.00    -0.013 C
HETATM   24  C12 UNL     1      13.593   1.324  32.012  1.00  0.00     0.009 C
HETATM   25  C16 UNL     1      15.742   2.481  31.398  1.00  0.00     0.009 C
HETATM   26  C13 UNL     1      14.330   0.656  33.150  1.00  0.00    -0.013 C
HETATM   27  C14 UNL     1      15.421   1.552  33.630  1.00  0.00     0.009 C
HETATM   28  C18 UNL     1      14.882  -0.620  32.639  1.00  0.00     0.019 C
HETATM   29  C15 UNL     1      16.443   1.742  32.518  1.00  0.00    -0.013 C
HETATM   30  C17 UNL     1      16.986   0.440  32.015  1.00  0.00     0.019 C
ENDBRANCH  20  21
ENDBRANCH   5  20
TORSDOF 4
ENDMDL