MODEL 4
REMARK VINA RESULT: -6.402220287      2.266      6.451
REMARK  3 active torsions:
REMARK  status: ('A' for Active; 'I' for Inactive)
REMARK    1  A    between atoms: C2_2  and  N1_5
REMARK       I    between atoms: N1_5  and  C4_7
REMARK       I    between atoms: C4_7  and  N5_20
REMARK       I    between atoms: N2_8  and  C5_10
REMARK       I    between atoms: C5_10  and  N3_12
REMARK    2  A    between atoms: N3_12  and  C6_14
REMARK    3  A    between atoms: N5_20  and  C10_22
ROOT
HETATM    1  N1  UNL     1      16.922  -2.798  30.529  1.00  0.00    -0.195 N
ATOM      2  H1  UNL     1      17.700  -2.819  31.189  1.00  0.00     0.184 HD
HETATM    3  C4  UNL     1      16.746  -3.869  29.625  1.00  0.00     0.682 C
HETATM    4  N2  UNL     1      15.916  -3.750  28.650  1.00  0.00    -0.141 N
ATOM      5  H2  UNL     1      15.402  -2.873  28.556  1.00  0.00     0.189 HD
HETATM    6  C5  UNL     1      15.677  -4.781  27.693  1.00  0.00     0.340 C
HETATM    7  O1  UNL     1      14.613  -5.440  27.796  1.00  0.00    -0.246 OA
HETATM    8  N3  UNL     1      16.576  -5.079  26.656  1.00  0.00    -0.294 N
ATOM      9  H3  UNL     1      17.427  -4.519  26.608  1.00  0.00     0.172 HD
HETATM   10  N5  UNL     1      17.472  -5.069  29.781  1.00  0.00    -0.221 N
ATOM     11  H5  UNL     1      17.651  -5.640  28.955  1.00  0.00     0.178 HD
ENDROOT
BRANCH   1  12
HETATM   12  C2  UNL     1      16.023  -1.684  30.529  1.00  0.00     0.029 C
HETATM   13  C1  UNL     1      16.064  -0.676  29.415  1.00  0.00     0.069 C
HETATM   14  C3  UNL     1      15.155  -1.529  31.496  1.00  0.00     0.081 C
HETATM   15 BR1  UNL     1      15.085  -2.787  32.909  1.00  0.00    -0.062 Br
ENDBRANCH   1  12
BRANCH  10  16
HETATM   16  C10 UNL     1      17.978  -5.529  31.068  1.00  0.00     0.099 C
HETATM   17  C11 UNL     1      19.110  -6.472  30.877  1.00  0.00     0.026 C
HETATM   18  C12 UNL     1      19.297  -7.511  31.921  1.00  0.00     0.002 C
HETATM   19  C13 UNL     1      18.036  -7.998  32.572  1.00  0.00     0.000 C
HETATM   20  C14 UNL     1      16.839  -7.572  31.740  1.00  0.00     0.002 C
HETATM   21  C15 UNL     1      16.824  -6.060  31.843  1.00  0.00     0.026 C
ENDBRANCH  10  16
BRANCH   8  22
HETATM   22  C6  UNL     1      16.410  -6.082  25.672  1.00  0.00     0.108 A
HETATM   23  C7  UNL     1      15.617  -6.150  24.564  1.00  0.00     0.050 A
HETATM   24  C8  UNL     1      15.808  -7.368  23.896  1.00  0.00     0.021 A
HETATM   25  C9  UNL     1      16.747  -8.020  24.655  1.00  0.00     0.090 A
HETATM   26  N4  UNL     1      17.098  -7.262  25.697  1.00  0.00    -0.352 N
ATOM     27  H4  UNL     1      17.780  -7.526  26.408  1.00  0.00     0.166 HD
ENDBRANCH   8  22
TORSDOF 3
ENDMDL