MODEL 2
REMARK VINA RESULT: -7.834204080      1.373      1.684
REMARK  4 active torsions:
REMARK  status: ('A' for Active; 'I' for Inactive)
REMARK    1  A    between atoms: C2_2  and  C3_3
REMARK    2  A    between atoms: C6_8  and  C7_9
REMARK    3  A    between atoms: C7_9  and  N2_10
REMARK       I    between atoms: N2_10  and  C8_12
REMARK       I    between atoms: C8_12  and  N3_14
REMARK    4  A    between atoms: N3_14  and  C9_16
ROOT
HETATM    1  C9  UNL     1      14.616  -4.780  30.567  1.00  0.00     0.132 A
HETATM    2  N4  UNL     1      14.686  -3.741  31.396  1.00  0.00    -0.285 N
ATOM      3  H4  UNL     1      14.468  -2.780  31.133  1.00  0.00     0.188 HD
HETATM    4  N5  UNL     1      15.075  -4.115  32.612  1.00  0.00    -0.302 N
ATOM      5  H5  UNL     1      15.200  -3.493  33.410  1.00  0.00     0.186 HD
HETATM    6  C10 UNL     1      15.280  -5.459  32.621  1.00  0.00     0.044 A
HETATM    7  C11 UNL     1      14.994  -5.878  31.344  1.00  0.00     0.013 A
HETATM    8  C12 UNL     1      15.139  -7.332  31.070  1.00  0.00     0.053 C
HETATM    9  C13 UNL     1      14.544  -8.087  32.240  1.00  0.00    -0.043 C
HETATM   10  C14 UNL     1      13.068  -7.814  32.336  1.00  0.00     0.015 C
HETATM   11  C15 UNL     1      14.720  -9.565  31.955  1.00  0.00     0.015 C
HETATM   12  C16 UNL     1      15.211  -7.776  33.531  1.00  0.00     0.024 C
HETATM   13  C17 UNL     1      15.710  -6.392  33.709  1.00  0.00    -0.002 C
HETATM   14  C18 UNL     1      17.225  -6.426  33.702  1.00  0.00     0.021 C
HETATM   15  C19 UNL     1      15.307  -5.783  35.036  1.00  0.00     0.021 C
ENDROOT
BRANCH   1  16
HETATM   16  N3  UNL     1      14.283  -4.880  29.324  1.00  0.00    -0.293 N
HETATM   17  C8  UNL     1      15.108  -4.734  28.223  1.00  0.00     0.322 C
HETATM   18  N2  UNL     1      14.573  -4.714  26.907  1.00  0.00    -0.339 N
HETATM   19  O1  UNL     1      16.343  -4.617  28.353  1.00  0.00    -0.247 OA
ATOM     20  H2  UNL     1      13.570  -4.819  26.758  1.00  0.00     0.164 HD
ATOM     21  H3  UNL     1      13.304  -5.090  29.132  1.00  0.00     0.172 HD
BRANCH  18  22
HETATM   22  C7  UNL     1      15.468  -4.542  25.776  1.00  0.00     0.165 C
BRANCH  22  23
HETATM   23  C6  UNL     1      15.841  -5.892  25.280  1.00  0.00    -0.017 A
HETATM   24  C3  UNL     1      15.044  -6.613  24.438  1.00  0.00     0.016 A
HETATM   25  N1  UNL     1      15.675  -7.760  24.148  1.00  0.00    -0.369 N
HETATM   26  C4  UNL     1      16.849  -7.786  24.784  1.00  0.00     0.089 A
ATOM     27  H1  UNL     1      15.316  -8.496  23.539  1.00  0.00     0.165 HD
HETATM   28  C5  UNL     1      16.993  -6.630  25.507  1.00  0.00     0.027 A
BRANCH  24  29
HETATM   29  C2  UNL     1      13.688  -6.181  23.935  1.00  0.00     0.053 C
HETATM   30  C1  UNL     1      13.269  -6.917  22.708  1.00  0.00     0.011 C
ENDBRANCH  24  29
ENDBRANCH  22  23
ENDBRANCH  18  22
ENDBRANCH   1  16
TORSDOF 4
ENDMDL