MODEL 1
REMARK VINA RESULT: -5.856248706      0.000      0.000
REMARK  7 active torsions:
REMARK  status: ('A' for Active; 'I' for Inactive)
REMARK    1  A    between atoms: C2_2  and  C3_3
REMARK    2  A    between atoms: C2_2  and  C9_12
REMARK    3  A    between atoms: C3_3  and  C4_4
REMARK    4  A    between atoms: C4_4  and  N1_6
REMARK    5  A    between atoms: N1_6  and  C5_8
REMARK    6  A    between atoms: C11_14  and  N2_15
REMARK       I    between atoms: N2_15  and  C12_17
REMARK       I    between atoms: C12_17  and  N3_19
REMARK    7  A    between atoms: N3_19  and  C13_21
ROOT
HETATM    1  C9  UNL     1      15.878   1.297  31.457  1.00  0.00     0.033 A
HETATM    2  C10 UNL     1      16.175   0.007  31.017  1.00  0.00     0.076 A
HETATM    3  C11 UNL     1      15.614  -0.148  29.767  1.00  0.00     0.125 A
HETATM    4  N4  UNL     1      15.003   1.001  29.462  1.00  0.00    -0.285 N
ATOM      5  H4  UNL     1      14.497   1.192  28.598  1.00  0.00     0.188 HD
HETATM    6  N5  UNL     1      15.162   1.850  30.463  1.00  0.00    -0.303 N
ATOM      7  H5  UNL     1      14.790   2.800  30.478  1.00  0.00     0.186 HD
ENDROOT
BRANCH   1   8
HETATM    8  C2  UNL     1      16.258   1.935  32.735  1.00  0.00     0.039 C
HETATM    9  C1  UNL     1      14.967   2.427  33.380  1.00  0.00     0.017 C
BRANCH   8  10
HETATM   10  C3  UNL     1      17.148   3.143  32.511  1.00  0.00     0.079 C
BRANCH  10  11
HETATM   11  C4  UNL     1      18.580   2.777  32.523  1.00  0.00     0.074 C
HETATM   12  S1  UNL     1      19.400   2.809  33.930  1.00  0.00    -0.066 SA
BRANCH  11  13
HETATM   13  N1  UNL     1      19.287   2.391  31.354  1.00  0.00    -0.376 N
ATOM     14  H1  UNL     1      19.657   1.442  31.312  1.00  0.00     0.161 HD
BRANCH  13  15
HETATM   15  C5  UNL     1      19.514   3.246  30.235  1.00  0.00     0.020 C
HETATM   16  C6  UNL     1      18.387   3.216  29.228  1.00  0.00     0.037 C
HETATM   17  C7  UNL     1      19.710   4.690  30.634  1.00  0.00     0.037 C
HETATM   18  C8  UNL     1      20.760   2.789  29.508  1.00  0.00     0.037 C
ENDBRANCH  13  15
ENDBRANCH  11  13
ENDBRANCH  10  11
ENDBRANCH   8  10
ENDBRANCH   1   8
BRANCH   3  19
HETATM   19  N2  UNL     1      15.686  -1.231  29.042  1.00  0.00    -0.294 N
HETATM   20  C12 UNL     1      15.853  -2.503  29.626  1.00  0.00     0.322 C
HETATM   21  O1  UNL     1      14.863  -3.271  29.676  1.00  0.00    -0.247 OA
HETATM   22  N3  UNL     1      17.098  -2.931  30.151  1.00  0.00    -0.335 N
ATOM     23  H3  UNL     1      17.899  -2.303  30.108  1.00  0.00     0.165 HD
ATOM     24  H2  UNL     1      15.620  -1.155  28.027  1.00  0.00     0.172 HD
BRANCH  22  25
HETATM   25  C13 UNL     1      17.253  -4.230  30.743  1.00  0.00     0.023 C
HETATM   26  C14 UNL     1      16.458  -4.303  32.014  1.00  0.00     0.037 C
HETATM   27  C15 UNL     1      18.743  -4.415  31.044  1.00  0.00     0.037 C
HETATM   28  C16 UNL     1      16.829  -5.329  29.767  1.00  0.00     0.037 C
ENDBRANCH  22  25
ENDBRANCH   3  19
TORSDOF 7
ENDMDL