MODEL 1
REMARK VINA RESULT: -8.556432793      0.000      0.000
REMARK  4 active torsions:
REMARK  status: ('A' for Active; 'I' for Inactive)
REMARK    1  A    between atoms: C2_2  and  C3_3
REMARK    2  A    between atoms: C2_2  and  N1_5
REMARK    3  A    between atoms: C11_13  and  N2_14
REMARK       I    between atoms: N2_14  and  C12_16
REMARK       I    between atoms: C12_16  and  N3_18
REMARK    4  A    between atoms: N3_18  and  C13_20
ROOT
HETATM    1  N2  UNL     1      16.776  -6.312  28.793  1.00  0.00    -0.322 N
ATOM      2  H2  UNL     1      16.908  -7.305  28.991  1.00  0.00     0.166 HD
HETATM    3  C12 UNL     1      17.142  -5.843  27.498  1.00  0.00     0.323 C
HETATM    4  O1  UNL     1      16.972  -4.617  27.276  1.00  0.00    -0.247 OA
HETATM    5  N3  UNL     1      17.669  -6.634  26.474  1.00  0.00    -0.292 N
ATOM      6  H3  UNL     1      18.637  -6.936  26.577  1.00  0.00     0.172 HD
ENDROOT
BRANCH   1   7
HETATM    7  C11 UNL     1      16.243  -5.506  29.823  1.00  0.00     0.184 C
HETATM    8  N1  UNL     1      16.888  -5.326  31.036  1.00  0.00    -0.383 N
HETATM    9  C4  UNL     1      16.201  -4.374  31.839  1.00  0.00     0.082 C
HETATM   10  C5  UNL     1      15.569  -4.895  33.084  1.00  0.00     0.025 C
HETATM   11  C9  UNL     1      15.090  -3.623  31.096  1.00  0.00     0.029 C
HETATM   12  C6  UNL     1      14.337  -5.733  32.849  1.00  0.00     0.002 C
HETATM   13  C7  UNL     1      13.370  -5.133  31.879  1.00  0.00     0.005 C
HETATM   14  C8  UNL     1      14.111  -4.639  30.628  1.00  0.00    -0.009 C
HETATM   15  C10 UNL     1      14.754  -5.847  30.021  1.00  0.00     0.051 C
BRANCH   8  16
HETATM   16  C2  UNL     1      17.629  -6.250  31.729  1.00  0.00     0.091 C
HETATM   17  C1  UNL     1      17.269  -7.687  31.714  1.00  0.00     0.033 C
BRANCH  16  18
HETATM   18  C3  UNL     1      19.086  -6.203  31.223  1.00  0.00     0.139 C
HETATM   19 CL1  UNL     1      19.518  -4.496  30.927  1.00  0.00    -0.128 Cl
ENDBRANCH  16  18
ENDBRANCH   8  16
ENDBRANCH   1   7
BRANCH   5  20
HETATM   20  C13 UNL     1      17.050  -7.016  25.418  1.00  0.00     0.153 A
HETATM   21  N4  UNL     1      17.535  -7.910  24.546  1.00  0.00    -0.283 N
HETATM   22  N5  UNL     1      16.660  -8.086  23.571  1.00  0.00    -0.297 N
ATOM     23  H4  UNL     1      18.437  -8.380  24.622  1.00  0.00     0.188 HD
HETATM   24  C14 UNL     1      15.570  -7.323  23.758  1.00  0.00     0.080 A
ATOM     25  H5  UNL     1      16.795  -8.718  22.781  1.00  0.00     0.187 HD
HETATM   26  C15 UNL     1      14.336  -6.957  23.259  1.00  0.00     0.050 A
HETATM   27  C17 UNL     1      15.816  -6.631  24.946  1.00  0.00     0.106 A
HETATM   28  C16 UNL     1      13.845  -6.034  24.168  1.00  0.00     0.091 A
HETATM   29  N6  UNL     1      14.733  -5.852  25.160  1.00  0.00    -0.361 N
ATOM     30  H6  UNL     1      14.608  -5.223  25.953  1.00  0.00     0.165 HD
ENDBRANCH   5  20
TORSDOF 4
ENDMDL