MODEL 4
REMARK VINA RESULT: -6.921658857      4.206      5.399
REMARK  4 active torsions:
REMARK  status: ('A' for Active; 'I' for Inactive)
REMARK    1  A    between atoms: C6_9  and  N2_10
REMARK       I    between atoms: N2_10  and  C7_12
REMARK       I    between atoms: C7_12  and  N4_16
REMARK    2  A    between atoms: N4_16  and  C8_18
REMARK    3  A    between atoms: C8_18  and  C9_19
REMARK    4  A    between atoms: C9_19  and  C10_20
ROOT
HETATM    1  C1  UNL     1      14.473  -6.873  23.346  1.00  0.00     0.050 C
HETATM    2  C2  UNL     1      14.741  -6.085  24.570  1.00  0.00    -0.032 A
HETATM    3  C3  UNL     1      14.038  -4.969  25.029  1.00  0.00     0.096 A
HETATM    4  N1  UNL     1      14.570  -4.526  26.166  1.00  0.00    -0.363 N
ATOM      5  H1  UNL     1      14.249  -3.725  26.710  1.00  0.00     0.165 HD
HETATM    6  C4  UNL     1      15.609  -5.328  26.466  1.00  0.00     0.066 A
HETATM    7  C5  UNL     1      16.496  -5.295  27.547  1.00  0.00     0.083 A
HETATM    8 BR1  UNL     1      16.267  -3.924  28.857  1.00  0.00    -0.045 Br
HETATM    9  C6  UNL     1      17.482  -6.245  27.615  1.00  0.00     0.141 A
HETATM   10  N5  UNL     1      17.555  -7.180  26.623  1.00  0.00    -0.344 N
ATOM     11  H5  UNL     1      18.296  -7.878  26.688  1.00  0.00     0.167 HD
HETATM   12  C13 UNL     1      16.739  -7.253  25.579  1.00  0.00     0.020 A
HETATM   13  C14 UNL     1      16.849  -8.280  24.525  1.00  0.00     0.069 C
HETATM   14  C15 UNL     1      15.741  -6.306  25.493  1.00  0.00     0.022 A
ENDROOT
BRANCH   9  15
HETATM   15  N2  UNL     1      18.323  -6.284  28.560  1.00  0.00    -0.176 N
HETATM   16  C7  UNL     1      18.359  -6.873  29.794  1.00  0.00     0.673 C
HETATM   17  N3  UNL     1      18.894  -8.068  29.912  1.00  0.00    -0.235 N
HETATM   18  N4  UNL     1      17.869  -6.263  31.006  1.00  0.00    -0.226 N
ATOM     19  H32 UNL     1      19.240  -8.499  29.055  1.00  0.00     0.174 HD
ATOM     20  H31 UNL     1      18.921  -8.507  30.832  1.00  0.00     0.174 HD
ATOM     21  H4  UNL     1      17.344  -5.390  30.958  1.00  0.00     0.177 HD
ATOM     22  H2  UNL     1      19.169  -5.753  28.355  1.00  0.00     0.186 HD
BRANCH  18  23
HETATM   23  C8  UNL     1      18.115  -6.875  32.273  1.00  0.00     0.138 C
BRANCH  23  24
HETATM   24  C9  UNL     1      16.831  -7.373  32.925  1.00  0.00     0.024 C
BRANCH  24  25
HETATM   25  C10 UNL     1      15.636  -7.065  32.061  1.00  0.00    -0.021 C
HETATM   26  C11 UNL     1      14.600  -6.248  32.759  1.00  0.00     0.009 C
HETATM   27  C12 UNL     1      15.011  -8.377  31.634  1.00  0.00     0.009 C
ENDBRANCH  24  25
ENDBRANCH  23  24
ENDBRANCH  18  23
ENDBRANCH   9  15
TORSDOF 4
ENDMDL