MODEL 4
REMARK VINA RESULT: -7.188754856      3.420      7.948
REMARK  5 active torsions:
REMARK  status: ('A' for Active; 'I' for Inactive)
REMARK    1  A    between atoms: C2_2  and  N1_5
REMARK       I    between atoms: N1_5  and  C5_7
REMARK       I    between atoms: C5_7  and  N2_9
REMARK    2  A    between atoms: N2_9  and  C6_11
REMARK    3  A    between atoms: C6_11  and  C7_12
REMARK    4  A    between atoms: C15_21  and  C16_22
REMARK    5  A    between atoms: C16_22  and  N4_26
ROOT
HETATM    1  C7  UNL     1      15.661   0.337  31.035  1.00  0.00    -0.004 C
HETATM    2  C8  UNL     1      14.572   1.421  31.251  1.00  0.00     0.016 C
HETATM    3  C9  UNL     1      15.257   2.666  31.657  1.00  0.00     0.015 C
HETATM    4  C10 UNL     1      16.608   2.480  32.237  1.00  0.00     0.007 C
HETATM    5  C11 UNL     1      17.040   3.659  33.048  1.00  0.00     0.020 C
HETATM    6  C12 UNL     1      16.836   1.214  32.972  1.00  0.00     0.114 C
HETATM    7  F1  UNL     1      16.854   1.250  34.334  1.00  0.00    -0.242 F
HETATM    8  C13 UNL     1      16.178  -0.022  32.367  1.00  0.00     0.059 C
HETATM    9  C14 UNL     1      18.249   1.248  32.339  1.00  0.00     0.062 C
HETATM   10  C15 UNL     1      17.576   1.971  31.192  1.00  0.00     0.032 C
HETATM   11  C18 UNL     1      16.807   1.042  30.281  1.00  0.00     0.033 C
ENDROOT
BRANCH   1  12
HETATM   12  C6  UNL     1      15.102  -0.712  30.152  1.00  0.00     0.075 C
BRANCH  12  13
HETATM   13  N2  UNL     1      15.908  -1.646  29.500  1.00  0.00    -0.322 N
HETATM   14  C5  UNL     1      15.685  -3.006  29.211  1.00  0.00     0.320 C
HETATM   15  N1  UNL     1      16.721  -3.772  28.559  1.00  0.00    -0.335 N
HETATM   16  O1  UNL     1      14.645  -3.648  29.465  1.00  0.00    -0.247 OA
ATOM     17  H1  UNL     1      17.599  -3.310  28.321  1.00  0.00     0.165 HD
ATOM     18  H2  UNL     1      16.806  -1.284  29.181  1.00  0.00     0.169 HD
BRANCH  15  19
HETATM   19  C2  UNL     1      16.560  -5.175  28.231  1.00  0.00     0.023 C
HETATM   20  C1  UNL     1      16.244  -5.951  29.486  1.00  0.00     0.037 C
HETATM   21  C3  UNL     1      15.463  -5.347  27.194  1.00  0.00     0.037 C
HETATM   22  C4  UNL     1      17.837  -5.748  27.643  1.00  0.00     0.037 C
ENDBRANCH  15  19
ENDBRANCH  12  13
ENDBRANCH   1  12
BRANCH  10  23
HETATM   23  C16 UNL     1      18.383   2.984  30.517  1.00  0.00     0.086 C
HETATM   24  N3  UNL     1      17.919   3.932  29.786  1.00  0.00    -0.388 N
ATOM     25  H32 UNL     1      16.906   3.975  29.675  1.00  0.00     0.157 HD
ATOM     26  H31 UNL     1      18.482   4.639  29.314  1.00  0.00     0.157 HD
BRANCH  23  27
HETATM   27  N4  UNL     1      19.797   2.924  30.672  1.00  0.00    -0.322 N
HETATM   28  C17 UNL     1      20.578   2.765  29.657  1.00  0.00     0.202 C
HETATM   29  N5  UNL     1      21.974   2.719  29.916  1.00  0.00    -0.066 NA
HETATM   30  N6  UNL     1      20.105   2.638  28.329  1.00  0.00    -0.066 NA
ATOM     31  H4  UNL     1      20.200   3.009  31.604  1.00  0.00     0.169 HD
ENDBRANCH  23  27
ENDBRANCH  10  23
TORSDOF 5
ENDMDL