MODEL 5
REMARK VINA RESULT: -8.217997968      2.284      3.964
REMARK  4 active torsions:
REMARK  status: ('A' for Active; 'I' for Inactive)
REMARK    1  A    between atoms: C2_2  and  C3_3
REMARK    2  A    between atoms: C3_3  and  N1_4
REMARK       I    between atoms: N1_4  and  C4_5
REMARK    3  A    between atoms: N1_4  and  C11_24
REMARK       I    between atoms: C4_5  and  N2_7
REMARK    4  A    between atoms: N2_7  and  C5_9
ROOT
HETATM    1  N1  UNL     1      15.396  -4.398  30.241  1.00  0.00    -0.325 N
HETATM    2  C4  UNL     1      16.344  -5.301  29.642  1.00  0.00     0.324 C
HETATM    3  O1  UNL     1      16.563  -6.388  30.223  1.00  0.00    -0.247 OA
HETATM    4  N2  UNL     1      17.036  -5.023  28.440  1.00  0.00    -0.294 N
ATOM      5  H2  UNL     1      17.885  -4.459  28.464  1.00  0.00     0.172 HD
ENDROOT
BRANCH   4   6
HETATM    6  C5  UNL     1      16.598  -5.479  27.311  1.00  0.00     0.111 A
HETATM    7  C6  UNL     1      17.275  -6.454  26.611  1.00  0.00     0.080 A
HETATM    8  C7  UNL     1      16.832  -6.956  25.409  1.00  0.00     0.067 A
HETATM    9  N3  UNL     1      17.317  -7.896  24.554  1.00  0.00    -0.298 N
HETATM   10  C9  UNL     1      15.650  -6.448  24.894  1.00  0.00     0.052 A
HETATM   11  N4  UNL     1      16.479  -7.984  23.537  1.00  0.00    -0.285 N
ATOM     12  H3  UNL     1      18.173  -8.436  24.677  1.00  0.00     0.187 HD
HETATM   13  C8  UNL     1      15.455  -7.117  23.710  1.00  0.00     0.127 A
ATOM     14  H4  UNL     1      16.588  -8.612  22.741  1.00  0.00     0.188 HD
HETATM   15  N5  UNL     1      14.477  -6.958  22.903  1.00  0.00    -0.384 N
ATOM     16  H52 UNL     1      14.332  -7.455  22.024  1.00  0.00     0.157 HD
ATOM     17  H51 UNL     1      13.705  -6.304  23.033  1.00  0.00     0.157 HD
HETATM   18  C10 UNL     1      14.979  -5.472  25.602  1.00  0.00     0.107 A
HETATM   19  N6  UNL     1      15.455  -5.009  26.780  1.00  0.00    -0.351 N
ATOM     20  H6  UNL     1      14.934  -4.286  27.277  1.00  0.00     0.166 HD
ENDBRANCH   4   6
BRANCH   1  21
HETATM   21  C3  UNL     1      15.191  -3.169  29.527  1.00  0.00     0.154 C
BRANCH  21  22
HETATM   22  C2  UNL     1      16.104  -2.064  29.877  1.00  0.00    -0.017 C
HETATM   23  C1  UNL     1      15.636  -0.934  30.380  1.00  0.00     0.008 C
ENDBRANCH  21  22
ENDBRANCH   1  21
BRANCH   1  24
HETATM   24  C11 UNL     1      14.738  -4.822  31.430  1.00  0.00     0.093 C
HETATM   25  C12 UNL     1      13.246  -5.083  31.203  1.00  0.00     0.026 C
HETATM   26  C13 UNL     1      12.818  -5.443  32.611  1.00  0.00     0.012 C
HETATM   27  C14 UNL     1      13.616  -4.486  33.448  1.00  0.00    -0.035 A
HETATM   28  C15 UNL     1      12.792  -3.455  34.158  1.00  0.00     0.010 A
HETATM   29  C17 UNL     1      14.063  -5.086  34.719  1.00  0.00     0.010 A
HETATM   30  C18 UNL     1      14.660  -3.852  32.565  1.00  0.00     0.013 C
HETATM   31  C16 UNL     1      13.250  -4.052  35.477  1.00  0.00     0.002 A
HETATM   32  C19 UNL     1      15.990  -3.709  33.247  1.00  0.00     0.012 C
ENDBRANCH   1  24
TORSDOF 4
ENDMDL