MODEL 4
REMARK VINA RESULT: -6.841355103      4.321      5.399
REMARK  6 active torsions:
REMARK  status: ('A' for Active; 'I' for Inactive)
REMARK    1  A    between atoms: C4_4  and  S1_5
REMARK    2  A    between atoms: S1_5  and  N1_8
REMARK    3  A    between atoms: N1_8  and  C5_10
REMARK    4  A    between atoms: C5_10  and  C6_11
REMARK    5  A    between atoms: C9_15  and  N2_16
REMARK       I    between atoms: N2_16  and  C10_18
REMARK       I    between atoms: C10_18  and  N4_22
REMARK    6  A    between atoms: N4_22  and  C11_24
ROOT
HETATM    1  C1  UNL     1      16.134 -14.021  17.833  1.00  0.00     0.050 C
HETATM    2  C2  UNL     1      17.599 -14.131  18.140  1.00  0.00    -0.033 A
HETATM    3  C3  UNL     1      18.060 -14.854  19.219  1.00  0.00     0.034 A
HETATM    4  C4  UNL     1      19.402 -14.958  19.503  1.00  0.00     0.080 A
HETATM    5  C7  UNL     1      20.293 -14.313  18.675  1.00  0.00     0.027 A
HETATM    6  C8  UNL     1      19.838 -13.589  17.596  1.00  0.00     0.032 A
HETATM    7  C9  UNL     1      18.501 -13.490  17.318  1.00  0.00     0.055 A
ENDROOT
BRANCH   7   8
HETATM    8  N2  UNL     1      18.016 -12.740  16.199  1.00  0.00    -0.192 N
HETATM    9  C10 UNL     1      18.117 -13.219  14.869  1.00  0.00     0.672 C
HETATM   10  N3  UNL     1      17.161 -13.827  14.270  1.00  0.00    -0.235 N
HETATM   11  N4  UNL     1      19.364 -12.994  14.194  1.00  0.00    -0.218 N
ATOM     12  H32 UNL     1      16.275 -13.988  14.750  1.00  0.00     0.174 HD
ATOM     13  H31 UNL     1      17.234 -14.172  13.313  1.00  0.00     0.174 HD
ATOM     14  H4  UNL     1      20.172 -13.563  14.447  1.00  0.00     0.178 HD
ATOM     15  H2  UNL     1      17.584 -11.830  16.365  1.00  0.00     0.184 HD
BRANCH  11  16
HETATM   16  C11 UNL     1      19.509 -11.988  13.171  1.00  0.00     0.036 C
HETATM   17  C12 UNL     1      19.397 -12.641  11.800  1.00  0.00     0.038 C
HETATM   18  C13 UNL     1      18.450 -10.934  13.357  1.00  0.00     0.038 C
HETATM   19  C14 UNL     1      20.865 -11.360  13.311  1.00  0.00     0.038 C
ENDBRANCH  11  16
ENDBRANCH   7   8
BRANCH   4  20
HETATM   20  S1  UNL     1      19.969 -15.885  20.884  1.00  0.00     0.258 S
HETATM   21  O1  UNL     1      20.864 -16.973  20.317  1.00  0.00    -0.201 OA
HETATM   22  O2  UNL     1      18.851 -16.505  21.629  1.00  0.00    -0.201 OA
BRANCH  20  23
HETATM   23  N1  UNL     1      20.944 -14.859  21.835  1.00  0.00    -0.315 N
ATOM     24  H1  UNL     1      21.836 -14.486  21.512  1.00  0.00     0.172 HD
BRANCH  23  25
HETATM   25  C5  UNL     1      20.399 -14.569  23.123  1.00  0.00     0.143 C
BRANCH  25  26
HETATM   26  C6  UNL     1      21.491 -14.597  24.168  1.00  0.00     0.105 C
HETATM   27 BR1  UNL     1      20.798 -13.754  25.776  1.00  0.00    -0.095 Br
ENDBRANCH  25  26
ENDBRANCH  23  25
ENDBRANCH  20  23
ENDBRANCH   4  20
TORSDOF 6
ENDMDL