MODEL 4
REMARK VINA RESULT: -7.956324717      3.250      5.727
REMARK  6 active torsions:
REMARK  status: ('A' for Active; 'I' for Inactive)
REMARK    1  A    between atoms: C2_2  and  N1_5
REMARK       I    between atoms: C5_7  and  N3_9
REMARK    2  A    between atoms: N3_9  and  N4_11
REMARK       I    between atoms: N4_11  and  C6_13
REMARK    3  A    between atoms: C6_13  and  C7_15
REMARK    4  A    between atoms: C7_15  and  N5_16
REMARK    5  A    between atoms: C7_15  and  C15_27
REMARK       I    between atoms: N5_16  and  C8_18
REMARK    6  A    between atoms: C8_18  and  C9_20
ROOT
HETATM    1  C7  UNL     1      15.325 -14.343  20.289  1.00  0.00     0.089 C
ENDROOT
BRANCH   1   2
HETATM    2  C6  UNL     1      15.871 -14.335  21.623  1.00  0.00     0.283 C
HETATM    3  N4  UNL     1      16.948 -15.043  22.118  1.00  0.00    -0.262 N
ATOM      4  H4  UNL     1      17.456 -15.661  21.485  1.00  0.00     0.190 HD
HETATM    5  O1  UNL     1      15.273 -13.555  22.472  1.00  0.00    -0.265 OA
BRANCH   3   6
HETATM    6  N3  UNL     1      17.380 -14.952  23.462  1.00  0.00    -0.271 N
HETATM    7  C5  UNL     1      18.702 -15.252  23.834  1.00  0.00     0.203 C
HETATM    8  N1  UNL     1      19.246 -14.592  24.768  1.00  0.00    -0.355 N
HETATM    9  N2  UNL     1      19.416 -16.287  23.182  1.00  0.00    -0.062 NA
ATOM     10  H1  UNL     1      18.671 -13.861  25.188  1.00  0.00     0.163 HD
ATOM     11  H3  UNL     1      16.716 -14.662  24.180  1.00  0.00     0.189 HD
BRANCH   8  12
HETATM   12  C2  UNL     1      20.563 -14.737  25.312  1.00  0.00     0.021 C
HETATM   13  C1  UNL     1      20.711 -13.761  26.460  1.00  0.00     0.037 C
HETATM   14  C3  UNL     1      21.670 -14.508  24.308  1.00  0.00     0.037 C
HETATM   15  C4  UNL     1      20.711 -16.131  25.945  1.00  0.00     0.037 C
ENDBRANCH   8  12
ENDBRANCH   3   6
ENDBRANCH   1   2
BRANCH   1  16
HETATM   16  N5  UNL     1      16.379 -14.313  19.261  1.00  0.00    -0.321 N
HETATM   17  C8  UNL     1      16.906 -13.142  18.726  1.00  0.00     0.256 C
HETATM   18  O2  UNL     1      16.453 -12.045  19.135  1.00  0.00    -0.267 OA
ATOM     19  H5  UNL     1      16.743 -15.203  18.921  1.00  0.00     0.169 HD
BRANCH  17  20
HETATM   20  C9  UNL     1      17.947 -13.149  17.730  1.00  0.00     0.032 A
HETATM   21  C10 UNL     1      17.664 -12.640  16.459  1.00  0.00     0.018 A
HETATM   22  C11 UNL     1      18.660 -12.641  15.523  1.00  0.00     0.025 A
HETATM   23  C12 UNL     1      19.941 -13.126  15.777  1.00  0.00     0.034 A
HETATM   24 CL1  UNL     1      21.145 -13.086  14.528  1.00  0.00    -0.084 Cl
HETATM   25  C13 UNL     1      20.230 -13.628  17.020  1.00  0.00     0.025 A
HETATM   26  C14 UNL     1      19.229 -13.630  17.969  1.00  0.00     0.018 A
ENDBRANCH  17  20
ENDBRANCH   1  16
BRANCH   1  27
HETATM   27  C15 UNL     1      14.176 -15.198  19.935  1.00  0.00    -0.003 C
HETATM   28  C16 UNL     1      12.843 -14.523  20.266  1.00  0.00     0.021 C
HETATM   29  C17 UNL     1      14.201 -16.419  20.871  1.00  0.00     0.021 C
HETATM   30  C18 UNL     1      14.149 -15.671  18.534  1.00  0.00     0.021 C
ENDBRANCH   1  27
TORSDOF 6
ENDMDL