MODEL 4
REMARK VINA RESULT: -8.859794962      6.746     10.565
REMARK  6 active torsions:
REMARK  status: ('A' for Active; 'I' for Inactive)
REMARK    1  A    between atoms: C2_2  and  C4_4
REMARK    2  A    between atoms: C6_6  and  N1_7
REMARK       I    between atoms: N1_7  and  C7_9
REMARK       I    between atoms: C7_9  and  N2_11
REMARK    3  A    between atoms: N2_11  and  C8_13
REMARK    4  A    between atoms: C11_16  and  N3_17
REMARK       I    between atoms: N3_17  and  C12_19
REMARK    5  A    between atoms: C12_19  and  O3_21
REMARK    6  A    between atoms: O3_21  and  C13_22
ROOT
HETATM    1  C8  UNL     1      18.856 -12.911  14.150  1.00  0.00     0.106 C
HETATM    2  C9  UNL     1      18.613 -11.443  13.871  1.00  0.00     0.084 C
HETATM    3  C10 UNL     1      17.214 -11.359  13.286  1.00  0.00     0.037 C
HETATM    4  C11 UNL     1      17.079 -12.205  12.058  1.00  0.00     0.087 C
HETATM    5  C17 UNL     1      18.123 -13.258  11.879  1.00  0.00     0.037 C
HETATM    6  C18 UNL     1      19.357 -13.006  12.733  1.00  0.00     0.084 C
HETATM    7  C19 UNL     1      19.691 -11.529  12.799  1.00  0.00     0.255 C
HETATM    8  F1  UNL     1      20.917 -11.266  13.313  1.00  0.00    -0.205 F
HETATM    9  F2  UNL     1      19.371 -10.833  11.644  1.00  0.00    -0.205 F
ENDROOT
BRANCH   1  10
HETATM   10  N2  UNL     1      19.796 -13.110  15.202  1.00  0.00    -0.337 N
HETATM   11  C7  UNL     1      19.303 -13.179  16.558  1.00  0.00     0.316 C
HETATM   12  N1  UNL     1      20.176 -13.375  17.648  1.00  0.00    -0.338 N
HETATM   13  O1  UNL     1      18.069 -13.063  16.763  1.00  0.00    -0.247 OA
ATOM     14  H1  UNL     1      21.166 -13.460  17.415  1.00  0.00     0.164 HD
ATOM     15  H2  UNL     1      20.792 -13.202  15.003  1.00  0.00     0.164 HD
BRANCH  12  16
HETATM   16  C6  UNL     1      19.856 -13.469  19.030  1.00  0.00     0.087 C
HETATM   17  C5  UNL     1      20.085 -14.870  19.567  1.00  0.00     0.034 C
HETATM   18  C4  UNL     1      20.643 -14.222  20.818  1.00  0.00     0.017 C
HETATM   19  C20 UNL     1      20.894 -12.991  20.025  1.00  0.00     0.034 C
BRANCH  18  20
HETATM   20  C2  UNL     1      19.682 -14.193  21.923  1.00  0.00    -0.089 C
HETATM   21  C1  UNL     1      18.405 -13.888  21.864  1.00  0.00     0.014 C
HETATM   22  C3  UNL     1      20.270 -14.563  23.277  1.00  0.00     0.043 C
ENDBRANCH  18  20
ENDBRANCH  12  16
ENDBRANCH   1  10
BRANCH   4  23
HETATM   23  N3  UNL     1      15.778 -12.841  12.127  1.00  0.00    -0.332 N
HETATM   24  C12 UNL     1      14.904 -12.853  11.013  1.00  0.00     0.361 C
HETATM   25  O2  UNL     1      15.228 -12.306   9.905  1.00  0.00    -0.238 OA
ATOM     26  H3  UNL     1      15.486 -13.288  12.996  1.00  0.00     0.165 HD
BRANCH  24  27
HETATM   27  O3  UNL     1      13.656 -13.451  11.045  1.00  0.00    -0.294 OA
BRANCH  27  28
HETATM   28  C13 UNL     1      12.451 -12.748  11.020  1.00  0.00     0.061 C
HETATM   29  C14 UNL     1      11.471 -13.531  11.901  1.00  0.00     0.046 C
HETATM   30  C15 UNL     1      12.544 -11.372  11.655  1.00  0.00     0.046 C
HETATM   31  C16 UNL     1      11.821 -12.648   9.662  1.00  0.00     0.046 C
ENDBRANCH  27  28
ENDBRANCH  24  27
ENDBRANCH   4  23
TORSDOF 6
ENDMDL