MODEL 5
REMARK VINA RESULT: -7.501515285      1.864      2.641
REMARK  7 active torsions:
REMARK  status: ('A' for Active; 'I' for Inactive)
REMARK    1  A    between atoms: O1_2  and  C2_3
REMARK    2  A    between atoms: C6_9  and  C7_10
REMARK    3  A    between atoms: C7_10  and  N2_12
REMARK    4  A    between atoms: N2_12  and  N3_13
REMARK    5  A    between atoms: N3_13  and  C9_15
REMARK    6  A    between atoms: C9_15  and  N4_17
REMARK       I    between atoms: N4_17  and  C10_19
REMARK    7  A    between atoms: C10_19  and  C11_21
ROOT
HETATM    1  N3  UNL     1      17.486 -12.465  21.083  1.00  0.00    -0.279 N
ATOM      2  H3  UNL     1      17.538 -12.367  22.097  1.00  0.00     0.184 HD
ENDROOT
BRANCH   1   3
HETATM    3  N2  UNL     1      16.355 -11.936  20.361  1.00  0.00    -0.128 NA
BRANCH   3   4
HETATM    4  C7  UNL     1      15.208 -12.720  20.784  1.00  0.00     0.148 C
HETATM    5  C8  UNL     1      15.695 -13.808  21.745  1.00  0.00     0.036 C
BRANCH   4   6
HETATM    6  C6  UNL     1      14.192 -11.907  21.511  1.00  0.00     0.064 A
HETATM    7  C2  UNL     1      13.091 -12.286  22.239  1.00  0.00     0.099 A
HETATM    8  C3  UNL     1      12.428 -11.155  22.745  1.00  0.00    -0.011 A
HETATM    9  C4  UNL     1      11.190 -11.168  23.581  1.00  0.00     0.052 C
HETATM   10  C5  UNL     1      13.164 -10.087  22.299  1.00  0.00     0.097 A
HETATM   11  N1  UNL     1      14.199 -10.532  21.575  1.00  0.00    -0.365 N
ATOM     12  H1  UNL     1      14.896  -9.934  21.131  1.00  0.00     0.165 HD
BRANCH   7  13
HETATM   13  O1  UNL     1      12.644 -13.567  22.483  1.00  0.00    -0.353 OA
HETATM   14  C1  UNL     1      12.017 -14.316  21.467  1.00  0.00     0.210 C
ENDBRANCH   7  13
ENDBRANCH   4   6
ENDBRANCH   3   4
ENDBRANCH   1   3
BRANCH   1  15
HETATM   15  C9  UNL     1      18.516 -13.115  20.387  1.00  0.00     0.190 C
HETATM   16  S1  UNL     1      19.491 -14.164  21.245  1.00  0.00    -0.039 SA
BRANCH  15  17
HETATM   17  N4  UNL     1      18.794 -12.953  19.035  1.00  0.00    -0.302 N
HETATM   18  C10 UNL     1      18.213 -13.683  17.965  1.00  0.00     0.235 C
HETATM   19  O2  UNL     1      17.367 -14.571  18.189  1.00  0.00    -0.272 OA
ATOM     20  H4  UNL     1      19.482 -12.242  18.787  1.00  0.00     0.171 HD
BRANCH  18  21
HETATM   21  C11 UNL     1      18.652 -13.349  16.579  1.00  0.00     0.068 A
HETATM   22  C12 UNL     1      20.164 -13.252  16.426  1.00  0.00     0.028 C
HETATM   23  C13 UNL     1      17.834 -12.191  15.995  1.00  0.00    -0.008 A
HETATM   24  C14 UNL     1      18.657 -11.065  15.407  1.00  0.00     0.018 C
HETATM   25  C15 UNL     1      16.569 -11.755  16.652  1.00  0.00     0.018 C
HETATM   26  C16 UNL     1      17.854 -13.540  15.381  1.00  0.00     0.058 A
HETATM   27  C17 UNL     1      16.570 -14.303  15.290  1.00  0.00     0.034 C
HETATM   28 CL1  UNL     1      18.818 -13.689  13.855  1.00  0.00    -0.117 Cl
ENDBRANCH  18  21
ENDBRANCH  15  17
ENDBRANCH   1  15
TORSDOF 7
ENDMDL