MODEL 3
REMARK VINA RESULT: -7.087849955      3.674      7.386
REMARK  8 active torsions:
REMARK  status: ('A' for Active; 'I' for Inactive)
REMARK    1  A    between atoms: C3_3  and  C5_5
REMARK       I    between atoms: C5_5  and  N1_7
REMARK    2  A    between atoms: N1_7  and  C6_9
REMARK    3  A    between atoms: C9_12  and  C10_13
REMARK    4  A    between atoms: C10_13  and  N2_15
REMARK    5  A    between atoms: N2_15  and  N3_17
REMARK    6  A    between atoms: N3_17  and  C11_19
REMARK    7  A    between atoms: C11_19  and  N4_21
REMARK       I    between atoms: N4_21  and  C12_23
REMARK    8  A    between atoms: C12_23  and  C13_25
ROOT
HETATM    1  C6  UNL     1      19.383 -13.199  16.684  1.00  0.00     0.035 A
HETATM    2  C7  UNL     1      18.160 -13.415  17.343  1.00  0.00     0.030 A
HETATM    3  C8  UNL     1      18.086 -13.647  18.688  1.00  0.00     0.017 A
HETATM    4  C9  UNL     1      19.203 -13.684  19.490  1.00  0.00     0.003 A
HETATM    5  C14 UNL     1      20.410 -13.474  18.872  1.00  0.00     0.017 A
HETATM    6  C15 UNL     1      20.490 -13.237  17.492  1.00  0.00     0.030 A
ENDROOT
BRANCH   4   7
HETATM    7  C10 UNL     1      19.114 -13.932  20.931  1.00  0.00     0.125 C
HETATM    8  S1  UNL     1      20.274 -14.801  21.633  1.00  0.00    -0.058 SA
BRANCH   7   9
HETATM    9  N2  UNL     1      18.015 -13.401  21.644  1.00  0.00    -0.287 N
ATOM     10  H2  UNL     1      17.877 -12.390  21.639  1.00  0.00     0.188 HD
BRANCH   9  11
HETATM   11  N3  UNL     1      17.112 -14.189  22.352  1.00  0.00    -0.275 N
ATOM     12  H3  UNL     1      17.339 -14.450  23.311  1.00  0.00     0.189 HD
BRANCH  11  13
HETATM   13  C11 UNL     1      15.894 -14.642  21.797  1.00  0.00     0.193 C
HETATM   14  S2  UNL     1      15.806 -15.952  20.861  1.00  0.00    -0.039 SA
BRANCH  13  15
HETATM   15  N4  UNL     1      14.712 -13.897  22.086  1.00  0.00    -0.302 N
HETATM   16  C12 UNL     1      14.498 -12.593  21.579  1.00  0.00     0.237 C
HETATM   17  O2  UNL     1      15.355 -12.046  20.852  1.00  0.00    -0.272 OA
ATOM     18  H4  UNL     1      13.997 -14.319  22.678  1.00  0.00     0.171 HD
BRANCH  16  19
HETATM   19  C13 UNL     1      13.256 -11.864  21.907  1.00  0.00     0.217 C
HETATM   20 CL1  UNL     1      13.518 -10.106  21.985  1.00  0.00    -0.121 Cl
ENDBRANCH  16  19
ENDBRANCH  13  15
ENDBRANCH  11  13
ENDBRANCH   9  11
ENDBRANCH   7   9
ENDBRANCH   4   7
BRANCH   1  21
HETATM   21  N1  UNL     1      19.371 -12.945  15.292  1.00  0.00    -0.323 N
HETATM   22  C5  UNL     1      19.003 -11.724  14.700  1.00  0.00     0.251 C
HETATM   23  O1  UNL     1      18.650 -10.717  15.337  1.00  0.00    -0.268 OA
ATOM     24  H1  UNL     1      19.651 -13.704  14.671  1.00  0.00     0.169 HD
BRANCH  22  25
HETATM   25  C3  UNL     1      19.028 -11.601  13.252  1.00  0.00     0.002 C
HETATM   26  C2  UNL     1      19.419 -12.605  12.516  1.00  0.00    -0.019 C
HETATM   27  C1  UNL     1      19.448 -12.491  11.043  1.00  0.00     0.036 C
HETATM   28  C4  UNL     1      18.604 -10.323  12.637  1.00  0.00     0.054 C
ENDBRANCH  22  25
ENDBRANCH   1  21
TORSDOF 8
ENDMDL