MODEL 5
REMARK VINA RESULT: -8.664417452      0.258      1.449
REMARK  5 active torsions:
REMARK  status: ('A' for Active; 'I' for Inactive)
REMARK    1  A    between atoms: C5_8  and  C6_10
REMARK    2  A    between atoms: C6_10  and  N2_11
REMARK    3  A    between atoms: C6_10  and  C11_20
REMARK       I    between atoms: N2_11  and  C7_13
REMARK       I    between atoms: C7_13  and  N3_15
REMARK    4  A    between atoms: N3_15  and  C8_17
REMARK       I    between atoms: C11_20  and  N4_22
REMARK    5  A    between atoms: N4_22  and  C12_24
ROOT
HETATM    1  C6  UNL     1      16.669 -12.595  18.414  1.00  0.00     0.223 C
ENDROOT
BRANCH   1   2
HETATM    2  C5  UNL     1      15.331 -13.290  18.351  1.00  0.00     0.170 C
HETATM    3  C1  UNL     1      14.594 -13.271  19.629  1.00  0.00     0.022 C
HETATM    4  N1  UNL     1      14.575 -12.245  20.407  1.00  0.00    -0.403 N
HETATM    5  C2  UNL     1      13.932 -14.570  19.802  1.00  0.00     0.056 C
ATOM      6  H12 UNL     1      14.066 -12.231  21.291  1.00  0.00     0.155 HD
ATOM      7  H11 UNL     1      15.035 -11.342  20.287  1.00  0.00     0.155 HD
HETATM    8  C3  UNL     1      14.161 -15.326  18.539  1.00  0.00     0.010 C
HETATM    9  C4  UNL     1      15.401 -14.694  17.905  1.00  0.00     0.053 C
HETATM   10  F1  UNL     1      14.497 -12.622  17.443  1.00  0.00    -0.234 F
ENDBRANCH   1   2
BRANCH   1  11
HETATM   11  N2  UNL     1      17.634 -13.507  18.998  1.00  0.00    -0.326 N
HETATM   12  C7  UNL     1      18.252 -13.314  20.246  1.00  0.00     0.317 C
HETATM   13  O1  UNL     1      17.922 -12.263  20.854  1.00  0.00    -0.247 OA
HETATM   14  N3  UNL     1      19.185 -14.246  20.775  1.00  0.00    -0.339 N
ATOM     15  H3  UNL     1      19.398 -15.073  20.217  1.00  0.00     0.164 HD
ATOM     16  H2  UNL     1      17.880 -14.343  18.469  1.00  0.00     0.165 HD
BRANCH  14  17
HETATM   17  C8  UNL     1      19.846 -14.106  22.037  1.00  0.00     0.086 A
HETATM   18  C9  UNL     1      21.228 -14.478  22.297  1.00  0.00     0.027 A
HETATM   19  C10 UNL     1      20.133 -15.441  22.731  1.00  0.00     0.027 A
ENDBRANCH  14  17
ENDBRANCH   1  11
BRANCH   1  20
HETATM   20  C11 UNL     1      17.063 -12.230  17.022  1.00  0.00     0.244 C
HETATM   21  O2  UNL     1      16.418 -11.266  16.508  1.00  0.00    -0.271 OA
HETATM   22  N4  UNL     1      18.077 -12.920  16.350  1.00  0.00    -0.350 N
ATOM     23  H4  UNL     1      18.536 -13.686  16.842  1.00  0.00     0.163 HD
BRANCH  22  24
HETATM   24  C12 UNL     1      18.518 -12.622  15.003  1.00  0.00     0.034 C
HETATM   25  C13 UNL     1      19.781 -13.318  14.617  1.00  0.00     0.035 C
HETATM   26  C14 UNL     1      20.120 -12.916  13.199  1.00  0.00    -0.012 C
HETATM   27  C15 UNL     1      20.279 -11.414  13.052  1.00  0.00     0.009 C
HETATM   28  C19 UNL     1      19.044 -13.337  12.222  1.00  0.00     0.009 C
HETATM   29  C16 UNL     1      18.992 -10.729  13.442  1.00  0.00    -0.012 C
HETATM   30  C17 UNL     1      17.862 -11.147  12.559  1.00  0.00     0.009 C
HETATM   31  C21 UNL     1      18.696 -11.134  14.875  1.00  0.00     0.035 C
HETATM   32  C18 UNL     1      17.762 -12.655  12.617  1.00  0.00    -0.012 C
HETATM   33  C20 UNL     1      17.439 -13.030  14.027  1.00  0.00     0.035 C
ENDBRANCH  22  24
ENDBRANCH   1  20
TORSDOF 5
ENDMDL