MODEL 3
REMARK VINA RESULT: -7.369280333      3.079      5.940
REMARK  7 active torsions:
REMARK  status: ('A' for Active; 'I' for Inactive)
REMARK    1  A    between atoms: C2_2  and  C3_3
REMARK    2  A    between atoms: C3_3  and  N1_5
REMARK       I    between atoms: N1_5  and  C5_7
REMARK       I    between atoms: C5_7  and  N2_9
REMARK    3  A    between atoms: N2_9  and  C6_11
REMARK    4  A    between atoms: C10_18  and  N4_19
REMARK    5  A    between atoms: N4_19  and  S1_21
REMARK    6  A    between atoms: S1_21  and  N5_24
REMARK    7  A    between atoms: N5_24  and  C11_26
ROOT
HETATM    1  C6  UNL     1      13.692 -12.461  20.664  1.00  0.00     0.137 A
HETATM    2  N3  UNL     1      13.817 -11.263  21.255  1.00  0.00    -0.349 N
ATOM      3  H3  UNL     1      14.516 -10.595  20.929  1.00  0.00     0.167 HD
HETATM    4  C7  UNL     1      13.000 -10.954  22.296  1.00  0.00     0.113 A
HETATM    5  C8  UNL     1      12.052 -11.840  22.749  1.00  0.00     0.051 A
HETATM    6 CL1  UNL     1      11.013 -11.424  24.085  1.00  0.00    -0.083 Cl
HETATM    7  C9  UNL     1      11.918 -13.067  22.149  1.00  0.00     0.059 A
HETATM    8  C10 UNL     1      12.749 -13.370  21.100  1.00  0.00     0.089 A
ENDROOT
BRANCH   8   9
HETATM    9  N4  UNL     1      12.660 -14.608  20.432  1.00  0.00    -0.264 N
ATOM     10  H4  UNL     1      12.104 -14.669  19.579  1.00  0.00     0.180 HD
BRANCH   9  11
HETATM   11  S1  UNL     1      13.459 -16.026  21.010  1.00  0.00     0.320 S
HETATM   12  O2  UNL     1      12.706 -16.558  22.225  1.00  0.00    -0.182 OA
HETATM   13  O3  UNL     1      14.786 -15.586  21.549  1.00  0.00    -0.182 OA
BRANCH  11  14
HETATM   14  N5  UNL     1      13.476 -17.160  19.805  1.00  0.00    -0.294 N
ATOM     15  H5  UNL     1      12.736 -17.861  19.790  1.00  0.00     0.174 HD
BRANCH  14  16
HETATM   16  C11 UNL     1      14.445 -17.207  18.812  1.00  0.00     0.031 C
HETATM   17  C12 UNL     1      14.054 -18.354  17.853  1.00  0.00     0.038 C
HETATM   18  C13 UNL     1      15.816 -17.591  19.314  1.00  0.00     0.038 C
HETATM   19  C14 UNL     1      14.592 -15.985  17.947  1.00  0.00     0.038 C
ENDBRANCH  14  16
ENDBRANCH  11  14
ENDBRANCH   9  11
ENDBRANCH   8   9
BRANCH   1  20
HETATM   20  N2  UNL     1      14.444 -12.795  19.679  1.00  0.00    -0.293 N
HETATM   21  C5  UNL     1      15.849 -12.801  19.877  1.00  0.00     0.322 C
HETATM   22  N1  UNL     1      16.574 -14.018  19.994  1.00  0.00    -0.339 N
HETATM   23  O1  UNL     1      16.509 -11.710  19.954  1.00  0.00    -0.247 OA
ATOM     24  H1  UNL     1      16.069 -14.902  19.933  1.00  0.00     0.164 HD
ATOM     25  H2  UNL     1      14.041 -13.050  18.777  1.00  0.00     0.172 HD
BRANCH  22  26
HETATM   26  C3  UNL     1      17.999 -14.043  20.194  1.00  0.00     0.081 C
HETATM   27  C4  UNL     1      18.743 -14.581  18.984  1.00  0.00     0.032 C
BRANCH  26  28
HETATM   28  C2  UNL     1      18.287 -14.872  21.423  1.00  0.00     0.020 C
HETATM   29  C1  UNL     1      18.954 -14.072  22.516  1.00  0.00     0.007 C
ENDBRANCH  26  28
ENDBRANCH  22  26
ENDBRANCH   1  20
TORSDOF 7
ENDMDL