MODEL 3
REMARK VINA RESULT: -7.134311050      3.669      6.327
REMARK  7 active torsions:
REMARK  status: ('A' for Active; 'I' for Inactive)
REMARK    1  A    between atoms: C3_3  and  C4_4
REMARK    2  A    between atoms: C4_4  and  C6_6
REMARK    3  A    between atoms: N1_7  and  N2_9
REMARK    4  A    between atoms: N2_9  and  C7_11
REMARK    5  A    between atoms: C7_11  and  N3_13
REMARK    6  A    between atoms: N3_13  and  N4_15
REMARK       I    between atoms: N4_15  and  C8_17
REMARK       I    between atoms: C8_17  and  N5_19
REMARK    7  A    between atoms: N5_19  and  C9_21
ROOT
HETATM    1  C1  UNL     1      11.858  -8.528  24.922  1.00  0.00     0.012 C
HETATM    2  C2  UNL     1      11.544  -9.633  24.548  1.00  0.00    -0.113 C
HETATM    3  C3  UNL     1      11.147 -10.962  24.079  1.00  0.00     0.132 C
ENDROOT
BRANCH   3   4
HETATM    4  C4  UNL     1      11.871 -11.260  22.810  1.00  0.00    -0.040 C
HETATM    5  C5  UNL     1      11.877 -10.350  21.865  1.00  0.00     0.021 C
BRANCH   4   6
HETATM    6  C6  UNL     1      12.542 -12.549  22.673  1.00  0.00     0.114 C
HETATM    7  N1  UNL     1      11.828 -13.612  22.791  1.00  0.00    -0.309 N
ATOM      8  H1  UNL     1      10.827 -13.548  22.973  1.00  0.00     0.186 HD
BRANCH   7   9
HETATM    9  N2  UNL     1      12.449 -14.860  22.664  1.00  0.00    -0.275 N
ATOM     10  H2  UNL     1      12.292 -15.558  23.392  1.00  0.00     0.189 HD
BRANCH   9  11
HETATM   11  C7  UNL     1      13.282 -15.199  21.580  1.00  0.00     0.205 C
HETATM   12  S1  UNL     1      12.615 -15.451  20.120  1.00  0.00    -0.038 SA
BRANCH  11  13
HETATM   13  N3  UNL     1      14.662 -15.317  21.743  1.00  0.00    -0.271 N
ATOM     14  H3  UNL     1      15.051 -16.144  22.196  1.00  0.00     0.189 HD
BRANCH  13  15
HETATM   15  N4  UNL     1      15.508 -14.312  21.289  1.00  0.00    -0.249 N
HETATM   16  C8  UNL     1      16.350 -14.501  20.129  1.00  0.00     0.339 C
HETATM   17  O1  UNL     1      16.273 -15.622  19.557  1.00  0.00    -0.245 OA
HETATM   18  N5  UNL     1      17.176 -13.433  19.735  1.00  0.00    -0.308 N
ATOM     19  H5  UNL     1      17.118 -12.589  20.305  1.00  0.00     0.170 HD
ATOM     20  H4  UNL     1      15.536 -13.421  21.786  1.00  0.00     0.192 HD
BRANCH  18  21
HETATM   21  C9  UNL     1      18.068 -13.386  18.655  1.00  0.00     0.036 A
HETATM   22  C10 UNL     1      17.600 -12.953  17.415  1.00  0.00     0.031 A
HETATM   23  C11 UNL     1      18.402 -12.868  16.303  1.00  0.00     0.021 A
HETATM   24  C12 UNL     1      19.718 -13.216  16.390  1.00  0.00     0.011 A
HETATM   25 BR1  UNL     1      20.797 -13.080  14.805  1.00  0.00    -0.051 Br
HETATM   26  C13 UNL     1      20.216 -13.644  17.584  1.00  0.00     0.021 A
HETATM   27  C14 UNL     1      19.378 -13.726  18.719  1.00  0.00     0.031 A
ENDBRANCH  18  21
ENDBRANCH  13  15
ENDBRANCH  11  13
ENDBRANCH   9  11
ENDBRANCH   7   9
ENDBRANCH   4   6
ENDBRANCH   3   4
TORSDOF 7
ENDMDL