MODEL 4
REMARK VINA RESULT: -7.051082943      4.161      6.692
REMARK  9 active torsions:
REMARK  status: ('A' for Active; 'I' for Inactive)
REMARK    1  A    between atoms: N1_2  and  C2_4
REMARK    2  A    between atoms: C2_4  and  N2_6
REMARK    3  A    between atoms: N2_6  and  N3_8
REMARK    4  A    between atoms: C3_10  and  O1_11
REMARK    5  A    between atoms: C3_10  and  C4_13
REMARK    6  A    between atoms: C4_13  and  C5_14
REMARK    7  A    between atoms: C5_14  and  N4_15
REMARK    8  A    between atoms: C5_14  and  C8_20
REMARK       I    between atoms: N4_15  and  C6_17
REMARK    9  A    between atoms: C14_27  and  C15_28
ROOT
HETATM    1  C5  UNL     1      17.342 -13.507  21.001  1.00  0.00     0.126 C
ENDROOT
BRANCH   1   2
HETATM    2  C4  UNL     1      17.003 -14.297  19.688  1.00  0.00     0.115 C
BRANCH   2   3
HETATM    3  C3  UNL     1      17.167 -13.466  18.500  1.00  0.00     0.132 C
HETATM    4  N3  UNL     1      17.617 -13.727  17.238  1.00  0.00    -0.281 N
ATOM      5  H3  UNL     1      17.902 -14.678  17.003  1.00  0.00     0.189 HD
BRANCH   4   6
HETATM    6  N2  UNL     1      17.705 -12.715  16.234  1.00  0.00    -0.275 N
ATOM      7  H2  UNL     1      16.853 -12.341  15.815  1.00  0.00     0.189 HD
BRANCH   6   8
HETATM    8  C2  UNL     1      18.966 -12.228  15.818  1.00  0.00     0.186 C
HETATM    9  S1  UNL     1      20.311 -13.059  16.231  1.00  0.00    -0.040 SA
BRANCH   8  10
HETATM   10  N1  UNL     1      19.101 -11.059  15.043  1.00  0.00    -0.370 N
HETATM   11  C1  UNL     1      19.452 -11.058  13.633  1.00  0.00     0.148 C
ATOM     12  H1  UNL     1      18.944 -10.160  15.498  1.00  0.00     0.161 HD
ENDBRANCH   8  10
ENDBRANCH   6   8
ENDBRANCH   4   6
BRANCH   3  13
HETATM   13  O1  UNL     1      16.805 -12.202  18.697  1.00  0.00    -0.348 OA
ATOM     14  H1  UNL     1      16.999 -11.874  19.567  1.00  0.00     0.219 HD
ENDBRANCH   3  13
ENDBRANCH   2   3
ENDBRANCH   1   2
BRANCH   1  15
HETATM   15  N4  UNL     1      15.969 -13.448  21.579  1.00  0.00    -0.352 N
HETATM   16  C6  UNL     1      14.907 -12.631  21.455  1.00  0.00     0.214 C
HETATM   17  C7  UNL     1      13.651 -12.963  22.259  1.00  0.00     0.117 C
HETATM   18  O2  UNL     1      14.734 -11.598  20.780  1.00  0.00    -0.274 OA
ATOM     19  H4  UNL     1      15.791 -14.214  22.228  1.00  0.00     0.163 HD
ENDBRANCH   1  15
BRANCH   1  20
HETATM   20  C8  UNL     1      18.119 -14.272  21.946  1.00  0.00    -0.022 A
HETATM   21  C9  UNL     1      17.484 -14.669  23.160  1.00  0.00     0.034 A
HETATM   22  C10 UNL     1      18.121 -15.334  24.165  1.00  0.00     0.035 A
HETATM   23 CL1  UNL     1      17.186 -15.766  25.608  1.00  0.00    -0.084 Cl
HETATM   24  C11 UNL     1      19.425 -15.640  24.021  1.00  0.00     0.031 A
HETATM   25  C12 UNL     1      20.086 -15.278  22.869  1.00  0.00    -0.049 A
HETATM   26  C13 UNL     1      21.554 -15.549  22.827  1.00  0.00     0.049 C
HETATM   27  C14 UNL     1      19.445 -14.588  21.802  1.00  0.00    -0.020 A
BRANCH  27  28
HETATM   28  C15 UNL     1      20.249 -14.276  20.663  1.00  0.00    -0.076 C
HETATM   29  C16 UNL     1      20.203 -15.238  19.468  1.00  0.00     0.044 C
HETATM   30  C17 UNL     1      20.707 -12.966  20.192  1.00  0.00     0.044 C
ENDBRANCH  27  28
ENDBRANCH   1  20
TORSDOF 9
ENDMDL