MODEL 2
REMARK VINA RESULT: -8.871760638      3.516      5.095
REMARK  7 active torsions:
REMARK  status: ('A' for Active; 'I' for Inactive)
REMARK    1  A    between atoms: C2_2  and  C3_3
REMARK    2  A    between atoms: C2_2  and  C10_11
REMARK    3  A    between atoms: C3_3  and  C4_4
REMARK       I    between atoms: C10_11  and  N1_13
REMARK    4  A    between atoms: N1_13  and  N2_15
REMARK       I    between atoms: N2_15  and  C11_17
REMARK       I    between atoms: C11_17  and  N3_19
REMARK    5  A    between atoms: N3_19  and  C12_21
REMARK    6  A    between atoms: C12_21  and  N4_23
REMARK    7  A    between atoms: N4_23  and  C13_25
ROOT
HETATM    1  N2  UNL     1      16.416 -14.352  19.951  1.00  0.00    -0.248 N
ATOM      2  H2  UNL     1      16.078 -13.966  19.069  1.00  0.00     0.192 HD
HETATM    3  C11 UNL     1      15.411 -14.725  20.824  1.00  0.00     0.341 C
HETATM    4  O2  UNL     1      15.596 -15.195  21.956  1.00  0.00    -0.245 OA
HETATM    5  N3  UNL     1      14.041 -14.560  20.384  1.00  0.00    -0.284 N
ATOM      6  H3  UNL     1      13.878 -14.164  19.458  1.00  0.00     0.173 HD
ENDROOT
BRANCH   1   7
HETATM    7  N1  UNL     1      17.766 -14.406  20.051  1.00  0.00    -0.262 N
HETATM    8  C10 UNL     1      18.645 -13.406  20.499  1.00  0.00     0.265 C
HETATM    9  O1  UNL     1      18.265 -12.243  20.867  1.00  0.00    -0.266 OA
ATOM     10  H1  UNL     1      18.199 -15.283  19.763  1.00  0.00     0.190 HD
BRANCH   8  11
HETATM   11  C2  UNL     1      20.088 -13.706  20.553  1.00  0.00     0.006 C
HETATM   12  C1  UNL     1      20.960 -12.927  20.024  1.00  0.00     0.025 C
BRANCH  11  13
HETATM   13  C3  UNL     1      20.532 -14.963  21.206  1.00  0.00     0.082 C
BRANCH  13  14
HETATM   14  C4  UNL     1      20.761 -14.635  22.662  1.00  0.00    -0.054 A
HETATM   15  C5  UNL     1      21.977 -14.584  23.252  1.00  0.00     0.009 A
HETATM   16  C6  UNL     1      22.170 -14.316  24.611  1.00  0.00     0.024 A
HETATM   17  C7  UNL     1      21.043 -14.093  25.361  1.00  0.00     0.034 A
HETATM   18 CL1  UNL     1      21.188 -13.772  27.072  1.00  0.00    -0.084 Cl
HETATM   19  C8  UNL     1      19.794 -14.137  24.782  1.00  0.00     0.024 A
HETATM   20  C9  UNL     1      19.627 -14.400  23.463  1.00  0.00     0.009 A
ENDBRANCH  13  14
ENDBRANCH  11  13
ENDBRANCH   8  11
ENDBRANCH   1   7
BRANCH   5  21
HETATM   21  C12 UNL     1      12.925 -14.916  21.161  1.00  0.00     0.180 C
HETATM   22  S1  UNL     1      11.897 -16.089  20.532  1.00  0.00    -0.040 SA
BRANCH  21  23
HETATM   23  N4  UNL     1      12.579 -14.299  22.368  1.00  0.00    -0.333 N
ATOM     24  H4  UNL     1      12.410 -14.910  23.167  1.00  0.00     0.168 HD
BRANCH  23  25
HETATM   25  C13 UNL     1      12.443 -12.935  22.581  1.00  0.00     0.034 A
HETATM   26  C14 UNL     1      13.213 -11.943  22.041  1.00  0.00     0.029 A
HETATM   27  C15 UNL     1      13.030 -10.602  22.322  1.00  0.00     0.002 A
HETATM   28  C16 UNL     1      12.028 -10.253  23.179  1.00  0.00     0.000 A
HETATM   29  C17 UNL     1      11.210 -11.217  23.759  1.00  0.00     0.002 A
HETATM   30  C18 UNL     1      11.421 -12.537  23.459  1.00  0.00     0.029 A
ENDBRANCH  23  25
ENDBRANCH  21  23
ENDBRANCH   5  21
TORSDOF 7
ENDMDL