MODEL 3
REMARK VINA RESULT: -9.388625120      1.591      4.057
REMARK  13 active torsions:
REMARK  status: ('A' for Active; 'I' for Inactive)
REMARK    1  A    between atoms: C2_2  and  C3_3
REMARK    2  A    between atoms: C3_3  and  C4_4
REMARK    3  A    between atoms: C3_3  and  C17_25
REMARK    4  A    between atoms: C5_5  and  C6_6
REMARK    5  A    between atoms: C6_6  and  C7_7
REMARK    6  A    between atoms: C8_8  and  O1_9
REMARK    7  A    between atoms: C10_12  and  O2_13
REMARK    8  A    between atoms: C11_15  and  C12_16
REMARK    9  A    between atoms: C12_16  and  C13_17
REMARK   10  A    between atoms: C13_17  and  C14_18
REMARK   11  A    between atoms: C14_18  and  O3_19
REMARK   12  A    between atoms: C14_18  and  C15_21
REMARK   13  A    between atoms: C15_21  and  C16_22
ROOT
HETATM    1  C7  UNL     1      50.100  52.220  19.169  1.00  0.00     0.024 C
HETATM    2  C8  UNL     1      51.062  52.981  20.025  1.00  0.00     0.125 C
HETATM    3  C9  UNL     1      52.198  52.061  20.390  1.00  0.00     0.064 C
HETATM    4  C10 UNL     1      51.842  50.675  19.886  1.00  0.00     0.125 C
HETATM    5  C11 UNL     1      50.533  50.768  19.213  1.00  0.00     0.021 C
ENDROOT
BRANCH   1   6
HETATM    6  C6  UNL     1      50.280  52.746  17.723  1.00  0.00     0.034 C
BRANCH   6   7
HETATM    7  C5  UNL     1      49.043  53.310  17.217  1.00  0.00    -0.030 C
HETATM    8  C4  UNL     1      48.688  54.481  16.942  1.00  0.00    -0.025 C
BRANCH   8   9
HETATM    9  C3  UNL     1      49.222  55.853  16.952  1.00  0.00     0.015 C
BRANCH   9  10
HETATM   10  C2  UNL     1      48.345  56.902  16.392  1.00  0.00     0.005 C
HETATM   11  C1  UNL     1      47.188  56.370  15.535  1.00  0.00     0.006 C
ENDBRANCH   9  10
BRANCH   9  12
HETATM   12  C17 UNL     1      49.658  56.090  18.395  1.00  0.00     0.016 C
HETATM   13  C18 UNL     1      51.073  56.210  18.644  1.00  0.00    -0.016 C
HETATM   14  C19 UNL     1      51.532  56.966  19.646  1.00  0.00    -0.055 C
HETATM   15  C20 UNL     1      53.011  57.076  19.886  1.00  0.00     0.213 C
HETATM   16  C23 UNL     1      50.674  57.732  20.577  1.00  0.00     0.025 C
HETATM   17  O6  UNL     1      53.252  56.540  21.155  1.00  0.00    -0.317 OA
HETATM   18  C21 UNL     1      52.199  56.416  22.046  1.00  0.00     0.259 C
HETATM   19  O7  UNL     1      52.162  55.467  22.879  1.00  0.00    -0.265 OA
HETATM   20  C22 UNL     1      51.118  57.434  21.988  1.00  0.00     0.120 C
HETATM   21  C24 UNL     1      49.217  57.327  20.458  1.00  0.00     0.010 C
HETATM   22  C25 UNL     1      48.931  57.303  18.955  1.00  0.00     0.010 C
ENDBRANCH   9  12
ENDBRANCH   8   9
ENDBRANCH   6   7
ENDBRANCH   1   6
BRANCH   2  23
HETATM   23  O1  UNL     1      50.457  53.479  21.188  1.00  0.00    -0.395 OA
ATOM     24  H1  UNL     1      51.082  53.901  21.766  1.00  0.00     0.210 HD
ENDBRANCH   2  23
BRANCH   5  25
HETATM   25  C12 UNL     1      49.444  49.840  19.564  1.00  0.00     0.010 C
BRANCH  25  26
HETATM   26  C13 UNL     1      48.419  49.468  18.586  1.00  0.00     0.033 C
BRANCH  26  27
HETATM   27  C14 UNL     1      48.784  49.203  17.181  1.00  0.00     0.128 C
BRANCH  27  28
HETATM   28  O3  UNL     1      48.536  47.839  16.878  1.00  0.00    -0.395 OA
ATOM     29  H3  UNL     1      47.785  47.775  16.300  1.00  0.00     0.210 HD
ENDBRANCH  27  28
BRANCH  27  30
HETATM   30  C15 UNL     1      47.864  49.946  16.195  1.00  0.00     0.144 C
BRANCH  30  31
HETATM   31  C16 UNL     1      46.820  49.006  15.745  1.00  0.00     0.175 C
HETATM   32  O4  UNL     1      46.927  48.431  14.638  1.00  0.00    -0.648 OA
HETATM   33  O5  UNL     1      45.708  48.736  16.521  1.00  0.00    -0.648 OA
ENDBRANCH  30  31
ENDBRANCH  27  30
ENDBRANCH  26  27
ENDBRANCH  25  26
ENDBRANCH   5  25
BRANCH   4  34
HETATM   34  O2  UNL     1      52.882  50.305  18.981  1.00  0.00    -0.395 OA
ATOM     35  H2  UNL     1      52.913  49.356  18.991  1.00  0.00     0.210 HD
ENDBRANCH   4  34
TORSDOF 13
ENDMDL