MODEL 5
REMARK VINA RESULT: -7.324186157      1.072      1.195
REMARK  12 active torsions:
REMARK  status: ('A' for Active; 'I' for Inactive)
REMARK    1  A    between atoms: C2_2  and  C3_3
REMARK    2  A    between atoms: C3_3  and  O1_4
REMARK    3  A    between atoms: C3_3  and  C4_6
REMARK    4  A    between atoms: C4_6  and  C5_7
REMARK    5  A    between atoms: C5_7  and  C6_8
REMARK    6  A    between atoms: C6_8  and  C8_10
REMARK    7  A    between atoms: C12_14  and  O2_15
REMARK    8  A    between atoms: C15_19  and  O3_20
REMARK    9  A    between atoms: C16_22  and  C17_23
REMARK   10  A    between atoms: C18_25  and  O5_26
REMARK   11  A    between atoms: O5_26  and  C19_27
REMARK   12  A    between atoms: C19_27  and  C20_28
ROOT
HETATM    1  C8  UNL     1      50.964  52.372  19.667  1.00  0.00    -0.002 C
HETATM    2  C9  UNL     1      52.218  51.743  20.190  1.00  0.00    -0.012 C
HETATM    3  C10 UNL     1      52.291  51.763  21.731  1.00  0.00     0.010 C
HETATM    4  C11 UNL     1      52.426  50.302  19.818  1.00  0.00     0.037 C
HETATM    5  C12 UNL     1      51.192  49.470  19.878  1.00  0.00     0.123 C
HETATM    6  C13 UNL     1      49.915  50.262  19.787  1.00  0.00     0.022 C
HETATM    7  C14 UNL     1      48.752  49.472  19.308  1.00  0.00     0.040 C
HETATM    8  C15 UNL     1      48.818  49.135  17.840  1.00  0.00     0.136 C
HETATM    9  C16 UNL     1      49.105  50.368  16.997  1.00  0.00     0.069 C
HETATM   10  C18 UNL     1      49.290  49.891  15.593  1.00  0.00     0.140 C
HETATM   11  C21 UNL     1      50.737  49.537  15.344  1.00  0.00     0.033 C
HETATM   12  C22 UNL     1      51.505  50.814  15.372  1.00  0.00     0.003 C
HETATM   13  C23 UNL     1      51.006  51.764  16.477  1.00  0.00     0.006 C
HETATM   14  C24 UNL     1      50.418  50.959  17.561  1.00  0.00     0.011 C
HETATM   15  C25 UNL     1      50.105  51.496  18.859  1.00  0.00     0.002 C
ENDROOT
BRANCH   1  16
HETATM   16  C6  UNL     1      51.156  53.802  19.203  1.00  0.00    -0.014 C
HETATM   17  C7  UNL     1      52.645  54.048  18.987  1.00  0.00     0.010 C
BRANCH  16  18
HETATM   18  C5  UNL     1      50.732  54.806  20.204  1.00  0.00     0.007 C
BRANCH  18  19
HETATM   19  C4  UNL     1      49.380  55.383  19.855  1.00  0.00     0.032 C
BRANCH  19  20
HETATM   20  C3  UNL     1      49.537  56.872  19.498  1.00  0.00     0.117 C
BRANCH  20  21
HETATM   21  C2  UNL     1      48.650  57.671  20.394  1.00  0.00     0.027 C
HETATM   22  C1  UNL     1      49.372  58.305  21.545  1.00  0.00     0.007 C
ENDBRANCH  20  21
BRANCH  20  23
HETATM   23  O1  UNL     1      49.109  57.046  18.189  1.00  0.00    -0.396 OA
ATOM     24  H1  UNL     1      48.350  57.618  18.195  1.00  0.00     0.210 HD
ENDBRANCH  20  23
ENDBRANCH  19  20
ENDBRANCH  18  19
ENDBRANCH  16  18
ENDBRANCH   1  16
BRANCH   5  25
HETATM   25  O2  UNL     1      51.114  48.756  21.100  1.00  0.00    -0.395 OA
ATOM     26  H2  UNL     1      51.001  47.826  20.947  1.00  0.00     0.210 HD
ENDBRANCH   5  25
BRANCH   9  27
HETATM   27  C17 UNL     1      47.986  51.303  17.026  1.00  0.00     0.246 C
HETATM   28  O4  UNL     1      47.955  52.235  16.217  1.00  0.00    -0.306 OA
ENDBRANCH   9  27
BRANCH   8  29
HETATM   29  O3  UNL     1      47.633  48.525  17.481  1.00  0.00    -0.394 OA
ATOM     30  H3  UNL     1      47.815  47.905  16.784  1.00  0.00     0.210 HD
ENDBRANCH   8  29
BRANCH  10  31
HETATM   31  O5  UNL     1      48.450  48.837  15.266  1.00  0.00    -0.374 OA
BRANCH  31  32
HETATM   32  C19 UNL     1      47.583  49.194  14.236  1.00  0.00     0.281 C
BRANCH  32  33
HETATM   33  C20 UNL     1      46.311  48.466  14.363  1.00  0.00     0.197 C
HETATM   34  O6  UNL     1      45.935  47.704  13.456  1.00  0.00    -0.646 OA
HETATM   35  O7  UNL     1      45.535  48.633  15.495  1.00  0.00    -0.646 OA
ENDBRANCH  32  33
ENDBRANCH  31  32
ENDBRANCH  10  31
TORSDOF 12
ENDMDL