MODEL 5
REMARK VINA RESULT: -7.982204485      4.821      9.957
REMARK  15 active torsions:
REMARK  status: ('A' for Active; 'I' for Inactive)
REMARK    1  A    between atoms: O1_2  and  C2_3
REMARK    2  A    between atoms: C2_3  and  C3_4
REMARK    3  A    between atoms: C2_3  and  C23_33
REMARK    4  A    between atoms: C4_5  and  C5_6
REMARK    5  A    between atoms: C5_6  and  C7_8
REMARK    6  A    between atoms: C9_10  and  C10_11
REMARK    7  A    between atoms: C10_11  and  C11_12
REMARK    8  A    between atoms: C11_12  and  C12_13
REMARK    9  A    between atoms: C14_15  and  C15_16
REMARK   10  A    between atoms: C16_17  and  C17_18
REMARK   11  A    between atoms: C18_20  and  O3_21
REMARK   12  A    between atoms: C19_23  and  O4_24
REMARK   13  A    between atoms: C20_26  and  O5_27
REMARK   14  A    between atoms: C21_29  and  C22_30
REMARK   15  A    between atoms: C22_30  and  O6_31
ROOT
HETATM    1  C12 UNL     1      49.497  53.552  17.822  1.00  0.00    -0.084 C
HETATM    2  C13 UNL     1      48.509  54.260  17.018  1.00  0.00     0.043 C
HETATM    3  C14 UNL     1      49.634  53.856  19.112  1.00  0.00     0.002 C
ENDROOT
BRANCH   1   4
HETATM    4  C11 UNL     1      50.352  52.555  17.372  1.00  0.00     0.037 C
BRANCH   4   5
HETATM    5  C10 UNL     1      49.703  51.077  17.447  1.00  0.00     0.031 C
BRANCH   5   6
HETATM    6  C9  UNL     1      50.671  50.570  16.496  1.00  0.00    -0.023 C
HETATM    7  C7  UNL     1      50.091  50.078  15.356  1.00  0.00    -0.080 C
HETATM    8  C8  UNL     1      50.897  49.513  14.250  1.00  0.00     0.044 C
BRANCH   7   9
HETATM    9  C5  UNL     1      48.593  50.079  15.160  1.00  0.00     0.032 C
HETATM   10  C6  UNL     1      48.386  50.396  13.665  1.00  0.00     0.019 C
BRANCH   9  11
HETATM   11  C4  UNL     1      48.066  48.777  15.579  1.00  0.00    -0.020 C
HETATM   12  C3  UNL     1      47.007  48.109  15.669  1.00  0.00     0.002 C
BRANCH  12  13
HETATM   13  C2  UNL     1      45.593  48.465  15.312  1.00  0.00     0.150 C
BRANCH  13  14
HETATM   14  O1  UNL     1      44.832  48.012  16.433  1.00  0.00    -0.386 OA
HETATM   15  C1  UNL     1      45.528  48.103  17.622  1.00  0.00     0.202 C
ENDBRANCH  13  14
BRANCH  13  16
HETATM   16  C23 UNL     1      45.056  47.795  14.125  1.00  0.00    -0.022 C
HETATM   17  C24 UNL     1      43.547  47.842  14.009  1.00  0.00     0.017 C
HETATM   18  C25 UNL     1      45.642  48.356  12.868  1.00  0.00     0.017 C
HETATM   19  C26 UNL     1      45.394  46.301  14.266  1.00  0.00     0.017 C
ENDBRANCH  13  16
ENDBRANCH  12  13
ENDBRANCH   9  11
ENDBRANCH   7   9
ENDBRANCH   5   6
ENDBRANCH   4   5
ENDBRANCH   1   4
BRANCH   3  20
HETATM   20  C15 UNL     1      48.964  54.803  19.911  1.00  0.00     0.003 C
HETATM   21  C16 UNL     1      49.655  55.843  20.423  1.00  0.00     0.033 C
BRANCH  21  22
HETATM   22  C17 UNL     1      51.076  55.939  20.120  1.00  0.00     0.058 C
HETATM   23  O2  UNL     1      51.408  57.048  19.362  1.00  0.00    -0.322 OA
HETATM   24  C18 UNL     1      51.239  58.230  20.030  1.00  0.00     0.294 C
HETATM   25  C19 UNL     1      52.066  58.231  21.319  1.00  0.00     0.203 C
HETATM   26  C20 UNL     1      52.916  56.989  21.345  1.00  0.00     0.164 C
HETATM   27  C21 UNL     1      52.077  55.712  21.177  1.00  0.00     0.097 C
BRANCH  24  28
HETATM   28  O3  UNL     1      49.918  58.489  20.290  1.00  0.00    -0.368 OA
ATOM     29  H3  UNL     1      49.737  58.516  21.222  1.00  0.00     0.212 HD
ENDBRANCH  24  28
BRANCH  25  30
HETATM   30  O4  UNL     1      52.906  59.334  21.225  1.00  0.00    -0.388 OA
ATOM     31  H4  UNL     1      53.490  59.150  20.499  1.00  0.00     0.210 HD
ENDBRANCH  25  30
BRANCH  26  32
HETATM   32  O5  UNL     1      53.745  56.972  22.418  1.00  0.00    -0.392 OA
ATOM     33  H5  UNL     1      53.901  56.088  22.727  1.00  0.00     0.210 HD
ENDBRANCH  26  32
BRANCH  27  34
HETATM   34  C22 UNL     1      51.659  55.166  22.481  1.00  0.00     0.178 C
BRANCH  34  35
HETATM   35  O6  UNL     1      51.857  53.852  22.737  1.00  0.00    -0.400 OA
ATOM     36  H6  UNL     1      51.424  53.457  23.485  1.00  0.00     0.209 HD
ENDBRANCH  34  35
ENDBRANCH  27  34
ENDBRANCH  21  22
ENDBRANCH   3  20
TORSDOF 15
ENDMDL