MODEL 5
REMARK VINA RESULT: -8.242323850      2.704      3.647
REMARK  13 active torsions:
REMARK  status: ('A' for Active; 'I' for Inactive)
REMARK    1  A    between atoms: C3_3  and  C4_4
REMARK    2  A    between atoms: C4_4  and  N1_7
REMARK       I    between atoms: N1_7  and  C7_9
REMARK    3  A    between atoms: C7_9  and  C8_11
REMARK    4  A    between atoms: C13_16  and  C14_17
REMARK    5  A    between atoms: C14_17  and  N2_18
REMARK    6  A    between atoms: C15_19  and  O2_20
REMARK    7  A    between atoms: C16_22  and  C17_23
REMARK    8  A    between atoms: C17_23  and  O3_24
REMARK    9  A    between atoms: C17_23  and  N3_26
REMARK   10  A    between atoms: N3_26  and  C18_27
REMARK   11  A    between atoms: N3_26  and  C21_30
REMARK   12  A    between atoms: C18_27  and  C19_28
REMARK   13  A    between atoms: C21_30  and  C22_31
ROOT
HETATM    1  C1  UNL     1      47.896  60.049  19.034  1.00  0.00     0.112 C
HETATM    2  C2  UNL     1      48.034  58.973  18.047  1.00  0.00    -0.108 C
HETATM    3  C3  UNL     1      48.129  58.087  17.232  1.00  0.00    -0.076 C
ENDROOT
BRANCH   3   4
HETATM    4  C4  UNL     1      48.219  57.015  16.240  1.00  0.00     0.089 C
HETATM    5  C5  UNL     1      49.320  57.325  15.216  1.00  0.00     0.053 C
HETATM    6  C6  UNL     1      46.921  57.026  15.465  1.00  0.00     0.053 C
BRANCH   4   7
HETATM    7  N1  UNL     1      48.465  55.726  16.853  1.00  0.00    -0.341 N
HETATM    8  C7  UNL     1      49.632  55.434  17.581  1.00  0.00     0.223 C
HETATM    9  O1  UNL     1      50.467  56.412  17.660  1.00  0.00    -0.273 OA
ATOM     10  H1  UNL     1      47.759  54.996  16.751  1.00  0.00     0.164 HD
BRANCH   8  11
HETATM   11  C8  UNL     1      49.949  54.127  18.233  1.00  0.00     0.083 C
HETATM   12  C9  UNL     1      49.252  54.049  19.540  1.00  0.00     0.014 C
HETATM   13  C10 UNL     1      49.945  54.655  20.693  1.00  0.00     0.001 C
HETATM   14  C11 UNL     1      51.390  54.334  20.710  1.00  0.00     0.000 C
HETATM   15  C12 UNL     1      52.129  54.402  19.435  1.00  0.00     0.007 C
HETATM   16  C13 UNL     1      51.402  53.845  18.239  1.00  0.00     0.017 C
BRANCH  16  17
HETATM   17  C14 UNL     1      51.850  52.480  17.810  1.00  0.00     0.141 C
BRANCH  17  18
HETATM   18  N2  UNL     1      51.005  51.367  18.018  1.00  0.00    -0.278 N
HETATM   19  C15 UNL     1      50.318  50.689  17.088  1.00  0.00     0.174 A
HETATM   20  C16 UNL     1      49.571  49.673  17.677  1.00  0.00     0.124 A
HETATM   21  N4  UNL     1      49.827  49.757  18.983  1.00  0.00    -0.304 N
HETATM   22  C24 UNL     1      50.697  50.787  19.184  1.00  0.00     0.329 A
ATOM     23  H4  UNL     1      49.437  49.154  19.708  1.00  0.00     0.170 HD
HETATM   24  O4  UNL     1      51.083  51.060  20.376  1.00  0.00    -0.246 OA
BRANCH  19  25
HETATM   25  O2  UNL     1      50.277  50.885  15.703  1.00  0.00    -0.344 OA
ATOM     26  H2  UNL     1      50.950  51.226  15.126  1.00  0.00     0.219 HD
ENDBRANCH  19  25
BRANCH  20  27
HETATM   27  C17 UNL     1      48.688  48.684  17.023  1.00  0.00     0.412 C
BRANCH  27  28
HETATM   28  O3  UNL     1      49.438  48.042  16.037  1.00  0.00    -0.363 OA
ATOM     29  H3  UNL     1      50.356  48.194  16.232  1.00  0.00     0.212 HD
ENDBRANCH  27  28
BRANCH  27  30
HETATM   30  N3  UNL     1      47.551  49.383  16.435  1.00  0.00     0.123 N
BRANCH  30  31
HETATM   31  C18 UNL     1      46.300  48.872  16.979  1.00  0.00     0.276 C
BRANCH  31  32
HETATM   32  C19 UNL     1      46.349  48.757  18.486  1.00  0.00     0.026 C
HETATM   33  C20 UNL     1      45.202  47.814  18.871  1.00  0.00     0.007 C
ENDBRANCH  31  32
ENDBRANCH  30  31
BRANCH  30  34
HETATM   34  C21 UNL     1      47.509  49.026  15.013  1.00  0.00     0.276 C
BRANCH  34  35
HETATM   35  C22 UNL     1      46.280  48.280  14.620  1.00  0.00     0.026 C
HETATM   36  C23 UNL     1      45.830  48.584  13.196  1.00  0.00     0.007 C
ENDBRANCH  34  35
ENDBRANCH  30  34
ENDBRANCH  27  30
ENDBRANCH  20  27
ENDBRANCH  17  18
ENDBRANCH  16  17
ENDBRANCH   8  11
ENDBRANCH   4   7
ENDBRANCH   3   4
TORSDOF 13
ENDMDL