MODEL 1
REMARK VINA RESULT: -8.605900918      0.000      0.000
REMARK  16 active torsions:
REMARK  status: ('A' for Active; 'I' for Inactive)
REMARK    1  A    between atoms: C6_6  and  C7_7
REMARK    2  A    between atoms: C7_7  and  C8_8
REMARK    3  A    between atoms: C7_7  and  C10_10
REMARK    4  A    between atoms: C10_10  and  O1_11
REMARK    5  A    between atoms: C10_10  and  C11_13
REMARK    6  A    between atoms: C11_13  and  C13_15
REMARK    7  A    between atoms: C13_15  and  C14_16
REMARK    8  A    between atoms: C14_16  and  C15_17
REMARK    9  A    between atoms: C15_17  and  O2_18
REMARK   10  A    between atoms: C15_17  and  O3_20
REMARK   11  A    between atoms: O3_20  and  C16_21
REMARK   12  A    between atoms: C18_23  and  O4_24
REMARK   13  A    between atoms: C19_26  and  O5_27
REMARK   14  A    between atoms: C23_32  and  C25_34
REMARK   15  A    between atoms: C25_34  and  C26_35
REMARK   16  A    between atoms: C26_35  and  O6_36
ROOT
HETATM    1  C1  UNL     1      49.061  55.485  20.027  1.00  0.00     0.015 C
HETATM    2  C2  UNL     1      49.652  54.558  19.275  1.00  0.00    -0.080 C
HETATM    3  C3  UNL     1      48.834  54.123  18.102  1.00  0.00     0.034 C
HETATM    4  C4  UNL     1      48.981  52.634  17.799  1.00  0.00     0.010 C
HETATM    5  C5  UNL     1      49.748  52.023  18.894  1.00  0.00     0.002 C
HETATM    6  C6  UNL     1      49.853  50.500  18.895  1.00  0.00     0.028 C
HETATM    7  C18 UNL     1      50.382  50.213  20.247  1.00  0.00     0.151 C
HETATM    8  C19 UNL     1      51.857  50.594  20.247  1.00  0.00     0.148 C
HETATM    9  C20 UNL     1      52.213  51.769  19.459  1.00  0.00     0.044 C
HETATM   10  C21 UNL     1      51.148  52.621  18.892  1.00  0.00    -0.026 C
HETATM   11  C22 UNL     1      51.546  52.856  17.430  1.00  0.00     0.016 C
HETATM   12  C23 UNL     1      51.000  54.002  19.567  1.00  0.00    -0.012 C
HETATM   13  C24 UNL     1      51.101  53.858  21.069  1.00  0.00     0.021 C
ENDROOT
BRANCH   6  14
HETATM   14  C7  UNL     1      48.666  49.778  18.390  1.00  0.00     0.022 C
BRANCH  14  15
HETATM   15  C8  UNL     1      47.753  49.114  19.303  1.00  0.00     0.003 C
HETATM   16  C9  UNL     1      46.371  48.755  18.826  1.00  0.00     0.005 C
ENDBRANCH  14  15
BRANCH  14  17
HETATM   17  C10 UNL     1      48.945  49.088  17.104  1.00  0.00     0.130 C
BRANCH  17  18
HETATM   18  O1  UNL     1      49.176  47.735  17.116  1.00  0.00    -0.395 OA
ATOM     19  H1  UNL     1      49.981  47.412  17.503  1.00  0.00     0.210 HD
ENDBRANCH  17  18
BRANCH  17  20
HETATM   20  C11 UNL     1      47.938  49.356  15.966  1.00  0.00     0.033 C
HETATM   21  C12 UNL     1      47.449  47.987  15.585  1.00  0.00     0.017 C
BRANCH  20  22
HETATM   22  C13 UNL     1      48.587  50.079  14.893  1.00  0.00    -0.015 C
BRANCH  22  23
HETATM   23  C14 UNL     1      49.581  49.929  14.131  1.00  0.00     0.060 C
BRANCH  23  24
HETATM   24  C15 UNL     1      51.001  49.986  14.169  1.00  0.00     0.177 C
BRANCH  24  25
HETATM   25  O2  UNL     1      51.651  48.832  14.218  1.00  0.00    -0.341 OA
ATOM     26  H2  UNL     1      51.229  48.115  14.676  1.00  0.00     0.220 HD
ENDBRANCH  24  25
BRANCH  24  27
HETATM   27  O3  UNL     1      51.878  51.032  14.168  1.00  0.00    -0.331 OA
BRANCH  27  28
HETATM   28  C16 UNL     1      53.128  50.933  14.802  1.00  0.00     0.173 C
HETATM   29  C17 UNL     1      54.163  51.859  14.205  1.00  0.00     0.034 C
ENDBRANCH  27  28
ENDBRANCH  24  27
ENDBRANCH  23  24
ENDBRANCH  22  23
ENDBRANCH  20  22
ENDBRANCH  17  20
ENDBRANCH  14  17
ENDBRANCH   6  14
BRANCH   7  30
HETATM   30  O4  UNL     1      50.321  48.955  20.760  1.00  0.00    -0.393 OA
ATOM     31  H4  UNL     1      49.510  48.461  20.729  1.00  0.00     0.210 HD
ENDBRANCH   7  30
BRANCH   8  32
HETATM   32  O5  UNL     1      52.253  50.647  21.583  1.00  0.00    -0.393 OA
ATOM     33  H5  UNL     1      52.626  49.799  21.788  1.00  0.00     0.210 HD
ENDBRANCH   8  32
BRANCH  12  34
HETATM   34  C25 UNL     1      52.133  54.896  19.136  1.00  0.00     0.040 C
BRANCH  34  35
HETATM   35  C26 UNL     1      52.636  55.786  20.209  1.00  0.00     0.165 C
BRANCH  35  36
HETATM   36  O6  UNL     1      53.684  56.595  19.675  1.00  0.00    -0.401 OA
ATOM     37  H6  UNL     1      54.310  56.776  20.366  1.00  0.00     0.209 HD
ENDBRANCH  35  36
ENDBRANCH  34  35
ENDBRANCH  12  34
TORSDOF 16
ENDMDL