MODEL 1
REMARK VINA RESULT: -8.894222425      0.000      0.000
REMARK  11 active torsions:
REMARK  status: ('A' for Active; 'I' for Inactive)
REMARK    1  A    between atoms: C2_2  and  N1_3
REMARK    2  A    between atoms: N1_3  and  C3_5
REMARK    3  A    between atoms: C3_5  and  C4_6
REMARK    4  A    between atoms: C4_6  and  C5_7
REMARK    5  A    between atoms: C5_7  and  C6_8
REMARK    6  A    between atoms: C6_8  and  N2_9
REMARK       I    between atoms: N2_9  and  C7_11
REMARK    7  A    between atoms: C7_11  and  O2_13
REMARK    8  A    between atoms: O2_13  and  C8_14
REMARK    9  A    between atoms: C8_14  and  C9_15
REMARK   10  A    between atoms: C16_23  and  O4_24
REMARK   11  A    between atoms: C17_26  and  O5_27
ROOT
HETATM    1  C9  UNL     1      49.776  56.995  18.527  1.00  0.00    -0.026 C
HETATM    2  C10 UNL     1      50.874  56.438  18.991  1.00  0.00     0.060 C
HETATM    3  O3  UNL     1      51.824  55.555  18.467  1.00  0.00    -0.348 OA
HETATM    4  C11 UNL     1      52.397  54.804  19.548  1.00  0.00     0.140 C
HETATM    5  C12 UNL     1      51.945  53.397  19.523  1.00  0.00     0.051 C
HETATM    6  C13 UNL     1      51.134  53.002  20.734  1.00  0.00    -0.005 C
HETATM    7  C14 UNL     1      50.707  51.592  20.759  1.00  0.00     0.008 C
HETATM    8  C15 UNL     1      51.355  50.693  19.759  1.00  0.00     0.035 C
HETATM    9  C16 UNL     1      52.800  51.022  19.610  1.00  0.00     0.147 C
HETATM   10  C17 UNL     1      53.113  52.439  19.300  1.00  0.00     0.153 C
HETATM   11  C18 UNL     1      51.985  53.430  21.931  1.00  0.00     0.005 C
HETATM   12  C19 UNL     1      51.733  54.946  21.998  1.00  0.00     0.009 C
HETATM   13  C20 UNL     1      52.198  55.608  20.768  1.00  0.00     0.030 C
HETATM   14  C21 UNL     1      51.281  56.759  20.382  1.00  0.00     0.011 C
HETATM   15  C22 UNL     1      52.024  58.076  20.313  1.00  0.00     0.023 C
HETATM   16  C23 UNL     1      50.041  56.833  21.207  1.00  0.00     0.017 C
HETATM   17  C24 UNL     1      49.174  57.980  20.734  1.00  0.00     0.006 C
HETATM   18  C25 UNL     1      48.898  57.933  19.272  1.00  0.00     0.039 C
ENDROOT
BRANCH   1  19
HETATM   19  C8  UNL     1      49.365  56.679  17.144  1.00  0.00     0.217 C
BRANCH  19  20
HETATM   20  O2  UNL     1      48.286  55.801  17.104  1.00  0.00    -0.300 OA
BRANCH  20  21
HETATM   21  C7  UNL     1      48.416  54.461  16.791  1.00  0.00     0.360 C
HETATM   22  N2  UNL     1      49.210  53.586  17.573  1.00  0.00    -0.337 N
ATOM     23  H2  UNL     1      49.688  53.960  18.393  1.00  0.00     0.164 HD
HETATM   24  O1  UNL     1      47.801  54.042  15.779  1.00  0.00    -0.239 OA
BRANCH  22  25
HETATM   25  C6  UNL     1      49.366  52.201  17.259  1.00  0.00     0.125 C
BRANCH  25  26
HETATM   26  C5  UNL     1      48.308  51.379  17.931  1.00  0.00     0.021 C
BRANCH  26  27
HETATM   27  C4  UNL     1      47.942  50.174  17.109  1.00  0.00     0.021 C
BRANCH  27  28
HETATM   28  C3  UNL     1      48.798  48.982  17.392  1.00  0.00     0.113 C
BRANCH  28  29
HETATM   29  N1  UNL     1      49.564  48.517  16.279  1.00  0.00    -0.421 N
ATOM     30  H1  UNL     1      50.143  47.679  16.331  1.00  0.00     0.153 HD
BRANCH  29  31
HETATM   31  C2  UNL     1      49.469  49.299  15.091  1.00  0.00     0.109 C
HETATM   32  C1  UNL     1      50.797  49.614  14.466  1.00  0.00     0.026 C
ENDBRANCH  29  31
ENDBRANCH  28  29
ENDBRANCH  27  28
ENDBRANCH  26  27
ENDBRANCH  25  26
ENDBRANCH  22  25
ENDBRANCH  20  21
ENDBRANCH  19  20
ENDBRANCH   1  19
BRANCH  10  33
HETATM   33  O5  UNL     1      53.495  52.617  17.963  1.00  0.00    -0.393 OA
ATOM     34  H5  UNL     1      54.444  52.580  17.962  1.00  0.00     0.210 HD
ENDBRANCH  10  33
BRANCH   9  35
HETATM   35  O4  UNL     1      53.532  50.603  20.718  1.00  0.00    -0.393 OA
ATOM     36  H4  UNL     1      53.480  49.661  20.831  1.00  0.00     0.210 HD
ENDBRANCH   9  35
TORSDOF 11
ENDMDL