MODEL 4
REMARK VINA RESULT: -7.623659531      2.120      6.713
REMARK  13 active torsions:
REMARK  status: ('A' for Active; 'I' for Inactive)
REMARK    1  A    between atoms: C5_5  and  O1_6
REMARK    2  A    between atoms: C6_8  and  C7_9
REMARK    3  A    between atoms: C7_9  and  O2_10
REMARK    4  A    between atoms: O2_10  and  C8_11
REMARK    5  A    between atoms: C8_11  and  C9_13
REMARK    6  A    between atoms: C9_13  and  N1_15
REMARK    7  A    between atoms: N1_15  and  C11_17
REMARK    8  A    between atoms: C11_17  and  O4_18
REMARK    9  A    between atoms: C11_17  and  C16_23
REMARK   10  A    between atoms: O4_18  and  C12_19
REMARK   11  A    between atoms: C12_19  and  C13_20
REMARK   12  A    between atoms: C17_26  and  O7_27
REMARK   13  A    between atoms: C17_26  and  C18_29
ROOT
HETATM    1  C1  UNL     1      51.580  54.324  21.957  1.00  0.00     0.015 C
HETATM    2  C2  UNL     1      51.847  54.172  20.692  1.00  0.00    -0.069 C
HETATM    3  C3  UNL     1      52.561  55.078  19.730  1.00  0.00     0.020 C
HETATM    4  C4  UNL     1      53.669  54.187  19.290  1.00  0.00     0.042 C
HETATM    5  C5  UNL     1      52.968  52.854  19.148  1.00  0.00     0.136 C
HETATM    6  C6  UNL     1      51.558  53.064  19.729  1.00  0.00     0.062 C
HETATM    7  C17 UNL     1      50.813  53.762  18.672  1.00  0.00     0.078 C
HETATM    8  C24 UNL     1      51.529  55.113  18.622  1.00  0.00     0.048 C
ENDROOT
BRANCH   6   9
HETATM    9  C7  UNL     1      50.991  51.868  20.335  1.00  0.00     0.198 C
BRANCH   9  10
HETATM   10  O2  UNL     1      50.900  50.825  19.345  1.00  0.00    -0.319 OA
BRANCH  10  11
HETATM   11  C8  UNL     1      49.896  49.895  19.362  1.00  0.00     0.281 C
HETATM   12  O3  UNL     1      49.856  49.141  20.399  1.00  0.00    -0.263 OA
BRANCH  11  13
HETATM   13  C9  UNL     1      48.949  49.805  18.248  1.00  0.00     0.175 C
HETATM   14  C10 UNL     1      47.576  49.389  18.801  1.00  0.00     0.042 C
BRANCH  13  15
HETATM   15  N1  UNL     1      49.272  49.124  17.081  1.00  0.00    -0.375 N
ATOM     16  H1  UNL     1      49.544  48.144  17.154  1.00  0.00     0.157 HD
BRANCH  15  17
HETATM   17  C11 UNL     1      49.245  49.710  15.812  1.00  0.00     0.320 C
BRANCH  17  18
HETATM   18  O4  UNL     1      48.422  48.939  14.928  1.00  0.00    -0.356 OA
BRANCH  18  19
HETATM   19  C12 UNL     1      47.562  48.118  15.617  1.00  0.00     0.174 C
BRANCH  19  20
HETATM   20  C13 UNL     1      46.147  48.558  15.350  1.00  0.00     0.001 C
HETATM   21  C14 UNL     1      45.843  48.278  13.889  1.00  0.00     0.011 C
HETATM   22  C15 UNL     1      45.245  47.700  16.245  1.00  0.00     0.011 C
ENDBRANCH  19  20
ENDBRANCH  18  19
ENDBRANCH  17  18
BRANCH  17  23
HETATM   23  C16 UNL     1      50.413  50.166  15.094  1.00  0.00     0.223 C
HETATM   24  O5  UNL     1      50.759  50.000  13.906  1.00  0.00    -0.645 OA
HETATM   25  O6  UNL     1      51.384  50.953  15.808  1.00  0.00    -0.645 OA
ENDBRANCH  17  23
ENDBRANCH  15  17
ENDBRANCH  13  15
ENDBRANCH  11  13
ENDBRANCH  10  11
ENDBRANCH   9  10
ENDBRANCH   6   9
BRANCH   5  26
HETATM   26  O1  UNL     1      53.655  51.853  19.781  1.00  0.00    -0.394 OA
ATOM     27  H1  UNL     1      53.088  51.122  19.997  1.00  0.00     0.210 HD
ENDBRANCH   5  26
BRANCH   7  28
HETATM   28  O7  UNL     1      51.068  53.075  17.455  1.00  0.00    -0.388 OA
ATOM     29  H7  UNL     1      51.303  53.730  16.807  1.00  0.00     0.210 HD
ENDBRANCH   7  28
BRANCH   7  30
HETATM   30  C18 UNL     1      49.372  54.046  18.819  1.00  0.00     0.021 C
HETATM   31  C19 UNL     1      48.408  53.188  18.111  1.00  0.00     0.007 C
HETATM   32  C20 UNL     1      47.309  54.010  17.439  1.00  0.00     0.000 C
HETATM   33  C21 UNL     1      48.003  54.735  16.291  1.00  0.00     0.000 C
HETATM   34  C22 UNL     1      48.945  55.711  16.947  1.00  0.00     0.000 C
HETATM   35  C23 UNL     1      49.129  55.489  18.419  1.00  0.00     0.007 C
ENDBRANCH   7  30
TORSDOF 13
ENDMDL