MODEL 5
REMARK VINA RESULT: -8.323351876      1.332      1.787
REMARK  11 active torsions:
REMARK  status: ('A' for Active; 'I' for Inactive)
REMARK    1  A    between atoms: C2_2  and  C3_3
REMARK    2  A    between atoms: C3_3  and  C4_4
REMARK    3  A    between atoms: C3_3  and  C25_33
REMARK    4  A    between atoms: C4_4  and  C5_5
REMARK    5  A    between atoms: C5_5  and  C6_6
REMARK    6  A    between atoms: C6_6  and  C7_7
REMARK    7  A    between atoms: C8_8  and  C9_9
REMARK    8  A    between atoms: C9_9  and  C10_10
REMARK    9  A    between atoms: C12_14  and  C13_15
REMARK   10  A    between atoms: C17_19  and  O3_20
REMARK   11  A    between atoms: C24_30  and  O4_31
ROOT
HETATM    1  C10 UNL     1      51.061  51.803  19.263  1.00  0.00     0.159 C
HETATM    2  O1  UNL     1      50.018  52.716  19.406  1.00  0.00    -0.351 OA
HETATM    3  C11 UNL     1      50.268  53.736  18.466  1.00  0.00     0.285 C
HETATM    4  O2  UNL     1      49.437  54.780  18.710  1.00  0.00    -0.353 OA
HETATM    5  C12 UNL     1      49.534  55.834  17.850  1.00  0.00     0.131 C
HETATM    6  C16 UNL     1      49.107  57.164  18.361  1.00  0.00     0.068 C
HETATM    7  C17 UNL     1      48.817  57.302  19.798  1.00  0.00     0.143 C
HETATM    8  C18 UNL     1      49.552  58.368  20.524  1.00  0.00     0.001 C
HETATM    9  C19 UNL     1      50.820  58.528  20.702  1.00  0.00    -0.028 C
HETATM   10  C20 UNL     1      51.963  57.710  20.246  1.00  0.00     0.028 C
HETATM   11  C21 UNL     1      52.334  56.569  21.147  1.00  0.00     0.023 C
HETATM   12  C22 UNL     1      52.903  55.410  20.318  1.00  0.00     0.114 C
HETATM   13  N1  UNL     1      51.941  54.374  20.107  1.00  0.00    -0.410 N
ATOM     14  H1  UNL     1      51.432  53.942  20.879  1.00  0.00     0.153 HD
HETATM   15  C23 UNL     1      51.737  53.984  18.748  1.00  0.00     0.163 C
HETATM   16  C24 UNL     1      52.234  52.530  18.652  1.00  0.00     0.174 C
ENDROOT
BRANCH   1  17
HETATM   17  C9  UNL     1      50.535  50.693  18.371  1.00  0.00     0.061 C
BRANCH  17  18
HETATM   18  C8  UNL     1      49.844  49.646  19.098  1.00  0.00    -0.028 C
HETATM   19  C7  UNL     1      48.555  49.437  19.090  1.00  0.00    -0.031 C
BRANCH  19  20
HETATM   20  C6  UNL     1      47.589  50.248  18.328  1.00  0.00     0.027 C
BRANCH  20  21
HETATM   21  C5  UNL     1      46.404  49.396  17.907  1.00  0.00     0.005 C
BRANCH  21  22
HETATM   22  C4  UNL     1      46.707  48.474  16.773  1.00  0.00     0.015 C
BRANCH  22  23
HETATM   23  C3  UNL     1      47.344  49.177  15.626  1.00  0.00     0.086 C
BRANCH  23  24
HETATM   24  C2  UNL     1      46.664  48.743  14.326  1.00  0.00     0.011 C
HETATM   25  C1  UNL     1      45.462  47.930  14.717  1.00  0.00     0.006 C
ENDBRANCH  23  24
BRANCH  23  26
HETATM   26  C25 UNL     1      48.781  48.901  15.440  1.00  0.00     0.176 C
HETATM   27  O5  UNL     1      49.314  47.920  15.979  1.00  0.00    -0.648 OA
HETATM   28  O6  UNL     1      49.560  49.732  14.656  1.00  0.00    -0.648 OA
ENDBRANCH  23  26
ENDBRANCH  22  23
ENDBRANCH  21  22
ENDBRANCH  20  21
ENDBRANCH  19  20
ENDBRANCH  17  18
ENDBRANCH   1  17
BRANCH  16  29
HETATM   29  O4  UNL     1      53.404  52.350  19.372  1.00  0.00    -0.391 OA
ATOM     30  H4  UNL     1      54.176  52.350  18.818  1.00  0.00     0.210 HD
ENDBRANCH  16  29
BRANCH   5  31
HETATM   31  C13 UNL     1      48.917  55.512  16.492  1.00  0.00     0.006 C
HETATM   32  C14 UNL     1      48.534  56.813  15.804  1.00  0.00     0.012 C
HETATM   33  C15 UNL     1      47.799  54.532  16.562  1.00  0.00     0.012 C
ENDBRANCH   5  31
BRANCH   7  34
HETATM   34  O3  UNL     1      48.931  56.147  20.566  1.00  0.00    -0.392 OA
ATOM     35  H3  UNL     1      48.362  56.087  21.325  1.00  0.00     0.210 HD
ENDBRANCH   7  34
TORSDOF 11
ENDMDL