MODEL 3
REMARK VINA RESULT: -8.757546947      1.272      2.281
REMARK  13 active torsions:
REMARK  status: ('A' for Active; 'I' for Inactive)
REMARK    1  A    between atoms: C4_4  and  C5_5
REMARK    2  A    between atoms: C5_5  and  C6_6
REMARK    3  A    between atoms: C6_6  and  C7_7
REMARK    4  A    between atoms: C9_9  and  C10_10
REMARK    5  A    between atoms: C10_10  and  C11_11
REMARK    6  A    between atoms: C16_16  and  O1_17
REMARK    7  A    between atoms: O1_17  and  C17_18
REMARK    8  A    between atoms: C17_18  and  O2_19
REMARK    9  A    between atoms: O2_19  and  C18_20
REMARK   10  A    between atoms: C19_21  and  O3_22
REMARK   11  A    between atoms: C21_25  and  O4_26
REMARK   12  A    between atoms: C22_28  and  O5_29
REMARK   13  A    between atoms: C23_31  and  O6_32
ROOT
HETATM    1  C11 UNL     1      48.227  51.252  16.860  1.00  0.00    -0.002 C
HETATM    2  C12 UNL     1      48.440  51.102  18.316  1.00  0.00    -0.005 C
HETATM    3  C13 UNL     1      49.352  50.028  18.732  1.00  0.00     0.005 C
HETATM    4  C14 UNL     1      50.293  50.416  19.853  1.00  0.00     0.003 C
HETATM    5  C15 UNL     1      51.114  51.630  19.549  1.00  0.00     0.032 C
HETATM    6  C16 UNL     1      51.293  51.834  18.064  1.00  0.00     0.129 C
HETATM    7  C24 UNL     1      50.190  52.798  17.666  1.00  0.00     0.024 A
HETATM    8  C25 UNL     1      49.066  52.491  16.832  1.00  0.00     0.002 A
HETATM    9  C26 UNL     1      48.962  52.493  18.375  1.00  0.00     0.002 A
ENDROOT
BRANCH   6  10
HETATM   10  O1  UNL     1      52.527  52.446  17.873  1.00  0.00    -0.361 OA
BRANCH  10  11
HETATM   11  C17 UNL     1      52.975  53.210  18.926  1.00  0.00     0.339 C
BRANCH  11  12
HETATM   12  O2  UNL     1      52.994  54.545  18.828  1.00  0.00    -0.356 OA
BRANCH  12  13
HETATM   13  C18 UNL     1      52.419  55.328  19.780  1.00  0.00     0.184 C
HETATM   14  C19 UNL     1      50.960  55.675  19.418  1.00  0.00     0.152 C
HETATM   15  C20 UNL     1      50.344  56.203  20.693  1.00  0.00     0.069 C
HETATM   16  C21 UNL     1      51.002  57.480  21.093  1.00  0.00     0.152 C
HETATM   17  C22 UNL     1      52.302  57.771  20.424  1.00  0.00     0.178 C
HETATM   18  C23 UNL     1      53.165  56.552  20.195  1.00  0.00     0.180 C
BRANCH  14  19
HETATM   19  O3  UNL     1      50.871  56.583  18.403  1.00  0.00    -0.393 OA
ATOM     20  H3  UNL     1      50.302  57.313  18.613  1.00  0.00     0.210 HD
ENDBRANCH  14  19
BRANCH  16  21
HETATM   21  O4  UNL     1      51.119  57.481  22.499  1.00  0.00    -0.393 OA
ATOM     22  H4  UNL     1      51.975  57.830  22.718  1.00  0.00     0.210 HD
ENDBRANCH  16  21
BRANCH  17  23
HETATM   23  O5  UNL     1      53.050  58.636  21.257  1.00  0.00    -0.390 OA
ATOM     24  H5  UNL     1      52.598  59.469  21.307  1.00  0.00     0.210 HD
ENDBRANCH  17  23
BRANCH  18  25
HETATM   25  O6  UNL     1      54.162  56.908  19.277  1.00  0.00    -0.390 OA
ATOM     26  H6  UNL     1      53.934  57.682  18.775  1.00  0.00     0.210 HD
ENDBRANCH  18  25
ENDBRANCH  12  13
ENDBRANCH  11  12
ENDBRANCH  10  11
ENDBRANCH   6  10
BRANCH   1  27
HETATM   27  C10 UNL     1      48.630  50.157  15.931  1.00  0.00     0.033 C
BRANCH  27  28
HETATM   28  C9  UNL     1      47.424  49.322  15.679  1.00  0.00    -0.024 C
HETATM   29  C7  UNL     1      47.388  48.023  15.931  1.00  0.00    -0.087 C
HETATM   30  C8  UNL     1      48.597  47.360  16.488  1.00  0.00     0.043 C
BRANCH  29  31
HETATM   31  C6  UNL     1      46.189  47.184  15.684  1.00  0.00     0.037 C
BRANCH  31  32
HETATM   32  C5  UNL     1      45.234  47.834  14.709  1.00  0.00     0.031 C
BRANCH  32  33
HETATM   33  C4  UNL     1      45.235  47.077  13.428  1.00  0.00    -0.024 C
HETATM   34  C2  UNL     1      45.530  47.649  12.266  1.00  0.00    -0.091 C
HETATM   35  C1  UNL     1      45.525  46.877  11.019  1.00  0.00     0.042 C
HETATM   36  C3  UNL     1      45.866  49.086  12.252  1.00  0.00     0.042 C
ENDBRANCH  32  33
ENDBRANCH  31  32
ENDBRANCH  29  31
ENDBRANCH  27  28
ENDBRANCH   1  27
TORSDOF 13
ENDMDL