MODEL 3
REMARK VINA RESULT: -8.182602952      2.549      7.487
REMARK  12 active torsions:
REMARK  status: ('A' for Active; 'I' for Inactive)
REMARK    1  A    between atoms: C2_2  and  C3_3
REMARK    2  A    between atoms: C3_3  and  C4_4
REMARK    3  A    between atoms: C4_4  and  C5_5
REMARK    4  A    between atoms: C5_5  and  C6_6
REMARK    5  A    between atoms: C6_6  and  C7_7
REMARK    6  A    between atoms: C7_7  and  C8_8
REMARK    7  A    between atoms: C8_8  and  C9_9
REMARK    8  A    between atoms: C9_9  and  C10_10
REMARK    9  A    between atoms: C10_10  and  O1_11
REMARK   10  A    between atoms: C10_10  and  C11_13
REMARK   11  A    between atoms: C17_22  and  C19_24
REMARK   12  A    between atoms: C22_30  and  O5_31
ROOT
HETATM    1  C11 UNL     1      49.240  51.077  18.951  1.00  0.00     0.108 C
HETATM    2  C12 UNL     1      48.911  51.695  17.606  1.00  0.00     0.027 C
HETATM    3  C13 UNL     1      48.052  52.940  17.722  1.00  0.00     0.002 C
HETATM    4  C14 UNL     1      48.771  54.191  17.189  1.00  0.00     0.001 C
HETATM    5  C15 UNL     1      49.954  54.370  18.040  1.00  0.00     0.015 C
HETATM    6  C16 UNL     1      50.562  55.706  18.204  1.00  0.00     0.143 C
HETATM    7  S1  UNL     1      52.040  55.402  19.164  1.00  0.00     0.171 S
HETATM    8  O2  UNL     1      52.994  56.499  18.889  1.00  0.00    -0.225 OA
HETATM    9  O3  UNL     1      52.659  54.140  18.576  1.00  0.00    -0.225 OA
HETATM   10  C17 UNL     1      51.734  55.074  20.868  1.00  0.00     0.133 C
HETATM   11  C18 UNL     1      50.318  55.362  21.295  1.00  0.00     0.056 C
HETATM   12  N1  UNL     1      52.221  53.790  21.331  1.00  0.00    -0.335 N
ATOM     13  H1  UNL     1      52.823  53.843  22.152  1.00  0.00     0.164 HD
HETATM   14  C21 UNL     1      52.016  52.505  20.861  1.00  0.00     0.267 C
HETATM   15  O4  UNL     1      53.051  51.841  20.464  1.00  0.00    -0.269 OA
HETATM   16  C22 UNL     1      50.778  51.703  20.722  1.00  0.00     0.307 C
HETATM   17  N2  UNL     1      50.596  51.200  19.370  1.00  0.00    -0.383 N
ATOM     18  H2  UNL     1      51.381  50.953  18.765  1.00  0.00     0.156 HD
ENDROOT
BRANCH   1  19
HETATM   19  C10 UNL     1      48.825  49.645  18.959  1.00  0.00     0.140 C
BRANCH  19  20
HETATM   20  C9  UNL     1      47.369  49.395  18.735  1.00  0.00     0.037 C
BRANCH  20  21
HETATM   21  C8  UNL     1      47.010  48.519  17.604  1.00  0.00     0.029 C
BRANCH  21  22
HETATM   22  C7  UNL     1      46.673  49.113  16.290  1.00  0.00    -0.031 C
BRANCH  22  23
HETATM   23  C6  UNL     1      47.447  48.868  15.073  1.00  0.00    -0.031 C
BRANCH  23  24
HETATM   24  C5  UNL     1      48.559  49.739  14.661  1.00  0.00     0.027 C
BRANCH  24  25
HETATM   25  C4  UNL     1      49.934  49.301  15.088  1.00  0.00     0.004 C
BRANCH  25  26
HETATM   26  C3  UNL     1      51.055  50.029  14.422  1.00  0.00    -0.000 C
BRANCH  26  27
HETATM   27  C2  UNL     1      51.829  50.879  15.390  1.00  0.00    -0.005 C
HETATM   28  C1  UNL     1      53.216  51.214  14.826  1.00  0.00     0.005 C
ENDBRANCH  26  27
ENDBRANCH  25  26
ENDBRANCH  24  25
ENDBRANCH  23  24
ENDBRANCH  22  23
ENDBRANCH  21  22
ENDBRANCH  20  21
ENDBRANCH  19  20
BRANCH  19  29
HETATM   29  O1  UNL     1      49.635  48.793  18.212  1.00  0.00    -0.394 OA
ATOM     30  H1  UNL     1      50.142  48.203  18.755  1.00  0.00     0.210 HD
ENDBRANCH  19  29
ENDBRANCH   1  19
BRANCH  16  31
HETATM   31  O5  UNL     1      50.883  50.584  21.588  1.00  0.00    -0.368 OA
ATOM     32  H5  UNL     1      50.450  49.849  21.171  1.00  0.00     0.212 HD
ENDBRANCH  16  31
BRANCH  10  33
HETATM   33  C19 UNL     1      52.541  56.199  21.580  1.00  0.00     0.042 C
HETATM   34  C20 UNL     1      51.560  57.271  21.922  1.00  0.00     0.009 C
ENDBRANCH  10  33
TORSDOF 12
ENDMDL