MODEL 1
REMARK VINA RESULT: -9.618819511      0.000      0.000
REMARK  9 active torsions:
REMARK  status: ('A' for Active; 'I' for Inactive)
REMARK    1  A    between atoms: N5_15  and  C6_16
REMARK    2  A    between atoms: C6_16  and  C7_17
REMARK    3  A    between atoms: C7_17  and  O1_18
REMARK    4  A    between atoms: C7_17  and  C8_20
REMARK    5  A    between atoms: C8_20  and  N6_21
REMARK    6  A    between atoms: C10_23  and  O2_24
REMARK    7  A    between atoms: C11_26  and  N7_27
REMARK       I    between atoms: N7_27  and  C12_29
REMARK       I    between atoms: C12_29  and  N8_30
REMARK       I    between atoms: C12_29  and  N9_34
REMARK    8  A    between atoms: C13_40  and  N11_41
REMARK    9  A    between atoms: N11_41  and  N12_43
REMARK       I    between atoms: N12_43  and  C14_44
ROOT
HETATM    1  N6  UNL     1       6.447   8.062  51.469  1.00  0.00    -0.186 N
HETATM    2  C9  UNL     1       7.547   7.985  52.226  1.00  0.00     0.149 A
HETATM    3  C10 UNL     1       7.552   7.423  53.483  1.00  0.00     0.126 A
HETATM    4  C11 UNL     1       6.362   6.900  54.015  1.00  0.00     0.154 A
HETATM    5  N10 UNL     1       5.281   6.999  53.217  1.00  0.00    -0.172 N
ATOM      6  H10 UNL     1       4.397   6.630  53.567  1.00  0.00     0.186 HD
HETATM    7  C13 UNL     1       5.287   7.551  51.992  1.00  0.00     0.711 A
ENDROOT
BRANCH   1   8
HETATM    8  C8  UNL     1       6.436   8.585  50.124  1.00  0.00     0.180 C
BRANCH   8   9
HETATM    9  C7  UNL     1       6.434  10.025  49.929  1.00  0.00     0.155 C
BRANCH   9  10
HETATM   10  C6  UNL     1       6.425  10.712  48.646  1.00  0.00     0.164 C
BRANCH  10  11
HETATM   11  N5  UNL     1       5.314  10.540  47.771  1.00  0.00    -0.325 N
HETATM   12  C3  UNL     1       5.311  10.392  46.449  1.00  0.00     0.140 A
HETATM   13  N3  UNL     1       6.228  10.403  45.460  1.00  0.00    -0.336 N
HETATM   14  C4  UNL     1       3.978  10.208  46.079  1.00  0.00     0.122 A
HETATM   15  C2  UNL     1       5.961  10.251  44.166  1.00  0.00     0.183 A
ATOM     16  H3  UNL     1       7.204  10.537  45.726  1.00  0.00     0.168 HD
HETATM   17  N2  UNL     1       4.690  10.073  43.803  1.00  0.00    -0.337 N
HETATM   18  C1  UNL     1       3.698  10.050  44.742  1.00  0.00     0.131 A
ATOM     19  H2  UNL     1       4.457   9.953  42.817  1.00  0.00     0.168 HD
HETATM   20  N1  UNL     1       2.482   9.875  44.353  1.00  0.00    -0.383 N
ATOM     21  H12 UNL     1       2.275   9.758  43.361  1.00  0.00     0.157 HD
ATOM     22  H11 UNL     1       1.741   9.858  45.054  1.00  0.00     0.157 HD
HETATM   23  N4  UNL     1       3.209  10.248  47.180  1.00  0.00    -0.346 N
HETATM   24  C5  UNL     1       4.020  10.452  48.222  1.00  0.00     0.185 A
ATOM     25  H4  UNL     1       2.195  10.142  47.214  1.00  0.00     0.167 HD
ENDBRANCH  10  11
ENDBRANCH   9  10
BRANCH   9  26
HETATM   26  O1  UNL     1       5.501  10.638  50.832  1.00  0.00    -0.392 OA
ATOM     27  H1  UNL     1       4.918   9.984  51.200  1.00  0.00     0.210 HD
ENDBRANCH   9  26
ENDBRANCH   8   9
ENDBRANCH   1   8
BRANCH   7  28
HETATM   28  N11 UNL     1       4.215   7.613  51.256  1.00  0.00    -0.059 N
ATOM     29  H11 UNL     1       4.120   6.885  50.548  1.00  0.00     0.221 HD
BRANCH  28  30
HETATM   30  N12 UNL     1       3.240   8.490  51.308  1.00  0.00    -0.241 NA
HETATM   31  C14 UNL     1       2.241   9.389  51.360  1.00  0.00     0.389 C
HETATM   32  O3  UNL     1       1.229   9.518  50.638  1.00  0.00    -0.617 OA
HETATM   33  O4  UNL     1       2.285  10.393  52.395  1.00  0.00    -0.617 OA
ENDBRANCH  28  30
ENDBRANCH   7  28
BRANCH   3  34
HETATM   34  O2  UNL     1       8.709   7.358  54.248  1.00  0.00    -0.356 OA
ATOM     35  H2  UNL     1       8.796   7.836  55.064  1.00  0.00     0.218 HD
ENDBRANCH   3  34
BRANCH   4  36
HETATM   36  N7  UNL     1       6.365   6.348  55.162  1.00  0.00    -0.324 N
HETATM   37  C12 UNL     1       6.056   6.866  56.439  1.00  0.00     0.481 C
HETATM   38  N8  UNL     1       5.645   5.770  57.299  1.00  0.00    -0.033 N
HETATM   39  N9  UNL     1       7.126   7.640  57.035  1.00  0.00    -0.033 N
ATOM     40  H83 UNL     1       4.878   5.229  56.901  1.00  0.00     0.278 HD
ATOM     41  H82 UNL     1       6.340   5.023  57.339  1.00  0.00     0.278 HD
ATOM     42  H81 UNL     1       5.422   6.145  58.221  1.00  0.00     0.278 HD
ATOM     43  H93 UNL     1       7.987   7.094  57.068  1.00  0.00     0.278 HD
ATOM     44  H92 UNL     1       7.420   8.388  56.406  1.00  0.00     0.278 HD
ATOM     45  H91 UNL     1       6.903   8.015  57.957  1.00  0.00     0.278 HD
ATOM     46  H7  UNL     1       6.638   5.365  55.158  1.00  0.00     0.165 HD
ENDBRANCH   4  36
TORSDOF 9
ENDMDL