MODEL 5
REMARK VINA RESULT: -8.715802865      1.887      2.305
REMARK  12 active torsions:
REMARK  status: ('A' for Active; 'I' for Inactive)
REMARK    1  A    between atoms: N1_1  and  C1_4
REMARK    2  A    between atoms: C4_9  and  N3_10
REMARK    3  A    between atoms: C6_12  and  C7_13
REMARK    4  A    between atoms: C11_21  and  O1_22
REMARK    5  A    between atoms: N7_26  and  O2_27
REMARK    6  A    between atoms: N9_31  and  C12_32
REMARK    7  A    between atoms: C12_32  and  C13_33
REMARK    8  A    between atoms: C13_33  and  O3_34
REMARK    9  A    between atoms: C13_33  and  C14_36
REMARK   10  A    between atoms: C13_33  and  C15_39
REMARK   11  A    between atoms: C14_36  and  O4_37
REMARK   12  A    between atoms: C15_39  and  O5_40
ROOT
HETATM    1  C1  UNL     1       3.816   7.014  48.675  1.00  0.00     0.679 A
HETATM    2  N2  UNL     1       4.910   7.142  49.469  1.00  0.00    -0.173 N
ATOM      3  H2  UNL     1       5.196   6.362  50.060  1.00  0.00     0.186 HD
HETATM    4  C2  UNL     1       5.618   8.275  49.487  1.00  0.00     0.174 A
HETATM    5  C3  UNL     1       5.206   9.330  48.669  1.00  0.00     0.173 A
HETATM    6  C4  UNL     1       4.097   9.195  47.868  1.00  0.00     0.164 A
HETATM    7  N6  UNL     1       3.417   8.041  47.880  1.00  0.00    -0.174 N
ATOM      8  H6  UNL     1       2.593   7.933  47.288  1.00  0.00     0.186 HD
HETATM    9  N7  UNL     1       6.065  10.343  48.864  1.00  0.00    -0.141 N
HETATM   10  N8  UNL     1       6.939   9.926  49.742  1.00  0.00    -0.212 N
ATOM     11  H8  UNL     1       7.714  10.499  50.076  1.00  0.00     0.211 HD
HETATM   12  N9  UNL     1       6.722   8.697  50.151  1.00  0.00    -0.255 N
ENDROOT
BRANCH   6  13
HETATM   13  N3  UNL     1       3.691  10.271  47.044  1.00  0.00    -0.285 N
HETATM   14  C5  UNL     1       3.859  10.407  45.707  1.00  0.00     0.116 A
HETATM   15  C6  UNL     1       3.316  11.605  45.299  1.00  0.00     0.028 A
HETATM   16  C10 UNL     1       2.799  12.232  46.394  1.00  0.00     0.073 A
HETATM   17  C11 UNL     1       3.039  11.397  47.463  1.00  0.00     0.148 A
BRANCH  15  18
HETATM   18  C7  UNL     1       3.296  12.122  43.915  1.00  0.00     0.108 C
HETATM   19  N4  UNL     1       2.691  13.200  43.546  1.00  0.00    -0.374 N
HETATM   20  C8  UNL     1       2.859  13.436  42.128  1.00  0.00     0.141 C
ATOM     21  H4  UNL     1       2.162  13.807  44.173  1.00  0.00     0.161 HD
HETATM   22  C9  UNL     1       3.430  12.159  41.564  1.00  0.00     0.141 C
HETATM   23  N5  UNL     1       3.933  11.520  42.783  1.00  0.00    -0.374 N
ATOM     24  H5  UNL     1       4.624  10.770  42.818  1.00  0.00     0.161 HD
ENDBRANCH  15  18
BRANCH  17  25
HETATM   25  O1  UNL     1       2.665  11.671  48.776  1.00  0.00    -0.346 OA
ATOM     26  H1  UNL     1       1.899  12.168  49.037  1.00  0.00     0.219 HD
ENDBRANCH  17  25
ENDBRANCH   6  13
BRANCH   9  27
HETATM   27  O2  UNL     1       5.987  11.571  48.225  1.00  0.00    -0.266 OA
ATOM     28  H2  UNL     1       5.390  11.768  47.512  1.00  0.00     0.247 HD
ENDBRANCH   9  27
BRANCH   1  29
HETATM   29  N1  UNL     1       3.157   5.912  48.680  1.00  0.00    -0.234 N
ATOM     30  H12 UNL     1       2.139   5.926  48.737  1.00  0.00     0.174 HD
ATOM     31  H11 UNL     1       3.660   5.026  48.629  1.00  0.00     0.174 HD
ENDBRANCH   1  29
BRANCH  12  32
HETATM   32  C12 UNL     1       7.482   7.910  51.116  1.00  0.00     0.194 C
BRANCH  32  33
HETATM   33  C13 UNL     1       7.335   8.443  52.511  1.00  0.00     0.118 C
BRANCH  33  34
HETATM   34  O3  UNL     1       7.614   9.806  52.567  1.00  0.00    -0.384 OA
ATOM     35  H3  UNL     1       8.374   9.984  53.109  1.00  0.00     0.210 HD
ENDBRANCH  33  34
BRANCH  33  36
HETATM   36  C14 UNL     1       5.943   8.169  53.049  1.00  0.00     0.206 C
BRANCH  36  37
HETATM   37  O4  UNL     1       5.523   6.894  52.755  1.00  0.00    -0.398 OA
ATOM     38  H4  UNL     1       4.977   6.872  51.978  1.00  0.00     0.209 HD
ENDBRANCH  36  37
ENDBRANCH  33  36
BRANCH  33  39
HETATM   39  C15 UNL     1       8.306   7.745  53.437  1.00  0.00     0.206 C
BRANCH  39  40
HETATM   40  O5  UNL     1       8.353   6.374  53.136  1.00  0.00    -0.398 OA
ATOM     41  H5  UNL     1       8.245   5.864  53.931  1.00  0.00     0.209 HD
ENDBRANCH  39  40
ENDBRANCH  33  39
ENDBRANCH  32  33
ENDBRANCH  12  32
TORSDOF 12
ENDMDL