MODEL 4
REMARK VINA RESULT: -9.156756744      1.765      3.094
REMARK  9 active torsions:
REMARK  status: ('A' for Active; 'I' for Inactive)
REMARK    1  A    between atoms: S1_2  and  C2_3
REMARK    2  A    between atoms: C3_4  and  C4_5
REMARK    3  A    between atoms: C5_14  and  O3_15
REMARK    4  A    between atoms: C5_14  and  N4_17
REMARK    5  A    between atoms: N4_17  and  N5_19
REMARK    6  A    between atoms: C6_21  and  C7_22
REMARK    7  A    between atoms: N9_33  and  N10_35
REMARK    8  A    between atoms: N10_35  and  N11_37
REMARK    9  A    between atoms: C11_40  and  O5_41
ROOT
HETATM    1  C7  UNL     1       4.537   8.643  49.008  1.00  0.00     0.158 C
HETATM    2  N6  UNL     1       5.538   8.976  49.993  1.00  0.00    -0.361 N
ATOM      3  H6  UNL     1       6.470   8.570  49.911  1.00  0.00     0.162 HD
HETATM    4  C8  UNL     1       5.259   9.848  51.070  1.00  0.00     0.155 A
HETATM    5  N7  UNL     1       5.962  10.712  51.823  1.00  0.00    -0.223 N
ATOM      6  H7  UNL     1       6.958  10.907  51.726  1.00  0.00     0.198 HD
HETATM    7  O4  UNL     1       5.158  11.264  52.707  1.00  0.00    -0.155 OA
HETATM    8  N8  UNL     1       3.938  10.790  52.561  1.00  0.00    -0.236 N
ATOM      9  H8  UNL     1       3.120  11.046  53.113  1.00  0.00     0.197 HD
HETATM   10  C9  UNL     1       3.974   9.912  51.555  1.00  0.00     0.128 A
HETATM   11  C10 UNL     1       2.968   9.060  50.914  1.00  0.00     0.090 C
HETATM   12  N9  UNL     1       1.978   8.588  51.633  1.00  0.00    -0.286 N
ATOM     13  H9  UNL     1       1.882   8.794  52.628  1.00  0.00     0.188 HD
HETATM   14  C11 UNL     1       3.127   8.777  49.476  1.00  0.00     0.199 C
ENDROOT
BRANCH   1  15
HETATM   15  C6  UNL     1       4.791   9.551  47.853  1.00  0.00     0.108 C
HETATM   16  N5  UNL     1       4.296   9.322  46.690  1.00  0.00    -0.314 N
ATOM     17  H5  UNL     1       3.713   8.497  46.549  1.00  0.00     0.185 HD
BRANCH  16  18
HETATM   18  N4  UNL     1       4.538  10.177  45.623  1.00  0.00    -0.279 N
ATOM     19  H4  UNL     1       5.110  11.012  45.745  1.00  0.00     0.185 HD
BRANCH  18  20
HETATM   20  C5  UNL     1       3.957   9.854  44.326  1.00  0.00     0.280 C
HETATM   21  C2  UNL     1       3.576  11.158  43.648  1.00  0.00     0.092 C
HETATM   22  C3  UNL     1       3.381  11.169  42.341  1.00  0.00     0.145 C
HETATM   23  N1  UNL     1       3.724   9.910  41.703  1.00  0.00    -0.279 N
HETATM   24  N2  UNL     1       4.804   9.205  42.197  1.00  0.00    -0.242 N
ATOM     25  H1  UNL     1       3.183   9.557  40.913  1.00  0.00     0.189 HD
HETATM   26  N3  UNL     1       4.926   9.147  43.559  1.00  0.00    -0.264 N
ATOM     27  H2  UNL     1       5.476   8.750  41.578  1.00  0.00     0.208 HD
ATOM     28  H3  UNL     1       5.679   8.621  44.004  1.00  0.00     0.187 HD
BRANCH  21  29
HETATM   29  S1  UNL     1       3.260  12.555  44.648  1.00  0.00    -0.129 SA
HETATM   30  C1  UNL     1       1.529  12.648  45.108  1.00  0.00     0.095 C
ENDBRANCH  21  29
BRANCH  22  31
HETATM   31  C4  UNL     1       2.889  12.271  41.568  1.00  0.00     0.229 C
HETATM   32  O1  UNL     1       2.229  12.014  40.505  1.00  0.00    -0.643 OA
HETATM   33  O2  UNL     1       3.055  13.576  41.865  1.00  0.00    -0.643 OA
ENDBRANCH  22  31
BRANCH  20  34
HETATM   34  O3  UNL     1       2.764   9.150  44.482  1.00  0.00    -0.348 OA
ATOM     35  H3  UNL     1       3.018   8.260  44.697  1.00  0.00     0.215 HD
ENDBRANCH  20  34
ENDBRANCH  18  20
ENDBRANCH  16  18
ENDBRANCH   1  15
BRANCH  14  36
HETATM   36  O5  UNL     1       2.521   9.857  48.792  1.00  0.00    -0.387 OA
ATOM     37  H5  UNL     1       1.672   9.577  48.470  1.00  0.00     0.210 HD
ENDBRANCH  14  36
BRANCH  12  38
HETATM   38  N10 UNL     1       1.062   7.785  50.948  1.00  0.00    -0.249 N
ATOM     39  H10 UNL     1       0.137   8.156  50.732  1.00  0.00     0.207 HD
BRANCH  38  40
HETATM   40  N11 UNL     1       1.358   6.589  50.583  1.00  0.00    -0.331 N
ATOM     41 2H11 UNL     1       1.336   5.850  51.286  1.00  0.00     0.178 HD
ATOM     42 1H11 UNL     1       1.611   6.372  49.618  1.00  0.00     0.178 HD
ENDBRANCH  38  40
ENDBRANCH  12  38
TORSDOF 9
ENDMDL