MODEL 1
REMARK VINA RESULT: -8.906063038      0.000      0.000
REMARK  11 active torsions:
REMARK  status: ('A' for Active; 'I' for Inactive)
REMARK    1  A    between atoms: N1_1  and  C1_4
REMARK    2  A    between atoms: C4_9  and  C5_10
REMARK    3  A    between atoms: C6_12  and  N3_13
REMARK    4  A    between atoms: C7_18  and  O2_19
REMARK    5  A    between atoms: C9_25  and  N7_26
REMARK    6  A    between atoms: N7_26  and  O3_27
REMARK    7  A    between atoms: O3_27  and  C10_28
REMARK    8  A    between atoms: C10_28  and  C11_29
REMARK    9  A    between atoms: C11_29  and  O4_30
REMARK   10  A    between atoms: C11_29  and  C12_32
REMARK   11  A    between atoms: C12_32  and  N8_33
ROOT
HETATM    1  C1  UNL     1       2.675  12.592  45.767  1.00  0.00     0.681 A
HETATM    2  N2  UNL     1       3.177  12.030  44.676  1.00  0.00    -0.174 N
ATOM      3  H2  UNL     1       2.751  12.184  43.763  1.00  0.00     0.186 HD
HETATM    4  C2  UNL     1       4.262  11.252  44.809  1.00  0.00     0.158 A
HETATM    5  C3  UNL     1       4.976  10.500  43.884  1.00  0.00     0.030 A
HETATM    6  C4  UNL     1       4.674  10.193  42.614  1.00  0.00     0.058 C
HETATM    7  C8  UNL     1       5.987   9.884  44.617  1.00  0.00     0.123 A
HETATM    8  N5  UNL     1       5.814  10.280  45.854  1.00  0.00    -0.299 N
ATOM      9  H5  UNL     1       6.416   9.975  46.618  1.00  0.00     0.186 HD
HETATM   10  N6  UNL     1       4.811  11.093  46.034  1.00  0.00    -0.193 N
HETATM   11  C9  UNL     1       4.287  11.700  47.171  1.00  0.00     0.327 A
HETATM   12  N11 UNL     1       3.162  12.458  47.007  1.00  0.00    -0.145 N
ATOM     13  H11 UNL     1       2.708  12.906  47.803  1.00  0.00     0.188 HD
ENDROOT
BRANCH  11  14
HETATM   14  N7  UNL     1       5.124  11.735  48.045  1.00  0.00    -0.240 NA
BRANCH  14  15
HETATM   15  O3  UNL     1       6.127  11.607  48.719  1.00  0.00    -0.203 OA
BRANCH  15  16
HETATM   16  C10 UNL     1       6.735  10.569  49.503  1.00  0.00     0.251 C
BRANCH  16  17
HETATM   17  C11 UNL     1       5.407   9.689  49.677  1.00  0.00     0.163 C
BRANCH  17  18
HETATM   18  O4  UNL     1       4.804  10.271  50.825  1.00  0.00    -0.392 OA
ATOM     19  H4  UNL     1       4.022   9.744  50.934  1.00  0.00     0.210 HD
ENDBRANCH  17  18
BRANCH  17  20
HETATM   20  C12 UNL     1       5.585   8.282  49.909  1.00  0.00     0.159 C
BRANCH  20  21
HETATM   21  N8  UNL     1       4.306   7.626  49.685  1.00  0.00    -0.352 N
HETATM   22  C13 UNL     1       3.808   6.563  50.593  1.00  0.00     0.145 C
HETATM   23  C14 UNL     1       2.355   7.074  50.644  1.00  0.00     0.142 C
HETATM   24  N9  UNL     1       2.168   7.438  49.233  1.00  0.00    -0.363 N
HETATM   25  C15 UNL     1       3.340   7.749  48.720  1.00  0.00     0.186 C
ATOM     26  H9  UNL     1       1.278   7.449  48.735  1.00  0.00     0.162 HD
HETATM   27  N10 UNL     1       3.580   8.169  47.357  1.00  0.00    -0.064 NA
ENDBRANCH  20  21
ENDBRANCH  17  20
ENDBRANCH  16  17
ENDBRANCH  15  16
ENDBRANCH  14  15
ENDBRANCH  11  14
BRANCH   1  28
HETATM   28  N1  UNL     1       1.536  13.241  45.652  1.00  0.00    -0.234 N
ATOM     29  H12 UNL     1       0.997  13.066  44.804  1.00  0.00     0.174 HD
ATOM     30  H11 UNL     1       1.312  13.937  46.364  1.00  0.00     0.174 HD
ENDBRANCH   1  28
BRANCH   6  31
HETATM   31  C5  UNL     1       3.410  10.633  42.046  1.00  0.00     0.131 A
HETATM   32  O1  UNL     1       2.279  10.038  42.136  1.00  0.00    -0.275 OA
HETATM   33  C6  UNL     1       1.358  10.750  41.479  1.00  0.00     0.224 A
HETATM   34  N4  UNL     1       1.933  11.840  40.924  1.00  0.00    -0.300 N
HETATM   35  C7  UNL     1       3.231  11.798  41.287  1.00  0.00     0.178 A
ATOM     36  H4  UNL     1       1.479  12.549  40.349  1.00  0.00     0.171 HD
BRANCH  33  37
HETATM   37  N3  UNL     1       0.133  10.433  41.410  1.00  0.00    -0.365 N
ATOM     38  H32 UNL     1      -0.287   9.795  40.735  1.00  0.00     0.159 HD
ATOM     39  H31 UNL     1      -0.587  10.797  42.035  1.00  0.00     0.159 HD
ENDBRANCH  33  37
BRANCH  35  40
HETATM   40  O2  UNL     1       4.171  12.734  41.005  1.00  0.00    -0.344 OA
ATOM     41  H2  UNL     1       4.017  13.609  40.669  1.00  0.00     0.219 HD
ENDBRANCH  35  40
ENDBRANCH   6  31
TORSDOF 11
ENDMDL