MODEL 1
REMARK VINA RESULT: -9.632723771      0.000      0.000
REMARK  8 active torsions:
REMARK  status: ('A' for Active; 'I' for Inactive)
REMARK    1  A    between atoms: N3_7  and  N4_8
REMARK    2  A    between atoms: C3_12  and  C4_13
REMARK    3  A    between atoms: C4_13  and  O1_14
REMARK    4  A    between atoms: C4_13  and  C5_16
REMARK       I    between atoms: C5_16  and  N5_18
REMARK       I    between atoms: N5_18  and  C6_20
REMARK    5  A    between atoms: C6_20  and  C7_22
REMARK    6  A    between atoms: C7_22  and  S1_23
REMARK    7  A    between atoms: S1_23  and  C8_24
REMARK    8  A    between atoms: N11_36  and  N12_37
ROOT
HETATM    1  N1  UNL     1       3.300  12.494  41.170  1.00  0.00    -0.230 N
ATOM      2  H11 UNL     1       2.848  13.376  40.929  1.00  0.00     0.174 HD
ATOM      3  H12 UNL     1       3.647  11.945  40.384  1.00  0.00     0.174 HD
HETATM    4  C1  UNL     1       3.425  12.100  42.388  1.00  0.00     0.730 A
HETATM    5  N2  UNL     1       4.055  10.872  42.724  1.00  0.00    -0.107 N
ATOM      6  H2  UNL     1       4.420  10.282  41.976  1.00  0.00     0.208 HD
HETATM    7  N3  UNL     1       4.189  10.445  44.054  1.00  0.00    -0.168 N
HETATM    8  C2  UNL     1       3.758  11.114  45.059  1.00  0.00     0.197 A
HETATM    9  C3  UNL     1       3.744  10.951  46.499  1.00  0.00     0.048 A
HETATM   10  C10 UNL     1       3.142  12.032  47.015  1.00  0.00     0.123 A
HETATM   11  N9  UNL     1       2.741  12.920  46.006  1.00  0.00    -0.286 N
ATOM     12  H9  UNL     1       2.262  13.811  46.145  1.00  0.00     0.188 HD
HETATM   13  N10 UNL     1       3.110  12.373  44.787  1.00  0.00    -0.140 N
HETATM   14  N11 UNL     1       2.939  12.870  43.490  1.00  0.00    -0.002 N
ENDROOT
BRANCH   9  15
HETATM   15  C4  UNL     1       4.194   9.829  47.304  1.00  0.00     0.248 C
BRANCH  15  16
HETATM   16  O1  UNL     1       5.594   9.616  47.223  1.00  0.00    -0.381 OA
ATOM     17  H1  UNL     1       5.841   9.045  46.505  1.00  0.00     0.211 HD
ENDBRANCH  15  16
BRANCH  15  18
HETATM   18  C5  UNL     1       3.821   9.812  48.720  1.00  0.00     0.257 C
HETATM   19  O2  UNL     1       4.523  10.313  49.604  1.00  0.00    -0.270 OA
HETATM   20  N5  UNL     1       2.604   9.205  49.156  1.00  0.00    -0.294 N
HETATM   21  C6  UNL     1       2.187   9.154  50.504  1.00  0.00     0.233 C
ATOM     22  H5  UNL     1       1.999   8.783  48.451  1.00  0.00     0.171 HD
HETATM   23  O3  UNL     1       1.074   8.584  50.752  1.00  0.00    -0.272 OA
BRANCH  21  24
HETATM   24  C7  UNL     1       2.964   9.720  51.632  1.00  0.00     0.184 C
BRANCH  24  25
HETATM   25  S1  UNL     1       3.938   8.393  52.428  1.00  0.00    -0.099 SA
BRANCH  25  26
HETATM   26  C8  UNL     1       5.276   7.867  51.313  1.00  0.00     0.119 A
HETATM   27  N6  UNL     1       6.455   8.490  51.344  1.00  0.00    -0.304 N
HETATM   28  S2  UNL     1       7.368   7.700  50.182  1.00  0.00     0.069 SA
ATOM     29  H6  UNL     1       6.737   9.268  51.940  1.00  0.00     0.176 HD
HETATM   30  N7  UNL     1       6.225   6.588  49.675  1.00  0.00    -0.298 N
HETATM   31  C9  UNL     1       5.155   6.851  50.420  1.00  0.00     0.157 A
ATOM     32  H7  UNL     1       6.325   5.870  48.956  1.00  0.00     0.177 HD
HETATM   33  N8  UNL     1       3.927   6.082  50.273  1.00  0.00    -0.079 NA
ENDBRANCH  25  26
ENDBRANCH  24  25
ENDBRANCH  21  24
ENDBRANCH  15  18
ENDBRANCH   9  15
BRANCH   7  34
HETATM   34  N4  UNL     1       4.867   9.258  44.253  1.00  0.00    -0.322 N
ATOM     35  H42 UNL     1       5.185   8.712  43.453  1.00  0.00     0.179 HD
ATOM     36  H41 UNL     1       4.989   8.963  45.221  1.00  0.00     0.179 HD
ENDBRANCH   7  34
BRANCH  14  37
HETATM   37  N12 UNL     1       2.311  14.081  43.297  1.00  0.00    -0.307 N
ATOM     38 2H12 UNL     1       1.346  14.207  43.603  1.00  0.00     0.179 HD
ATOM     39 1H12 UNL     1       2.791  14.863  42.851  1.00  0.00     0.179 HD
ENDBRANCH  14  37
TORSDOF 8
ENDMDL