MODEL 3
REMARK VINA RESULT: -9.228035106      2.138      9.738
REMARK  12 active torsions:
REMARK  status: ('A' for Active; 'I' for Inactive)
REMARK    1  A    between atoms: C2_3  and  N2_4
REMARK    2  A    between atoms: N5_12  and  C4_13
REMARK    3  A    between atoms: C4_13  and  C5_14
REMARK    4  A    between atoms: C5_14  and  C6_15
REMARK    5  A    between atoms: N8_20  and  C7_21
REMARK    6  A    between atoms: C7_21  and  C8_22
REMARK    7  A    between atoms: C9_25  and  N10_26
REMARK    8  A    between atoms: C10_31  and  N12_32
REMARK    9  A    between atoms: N12_32  and  N13_34
REMARK   10  A    between atoms: C11_41  and  C12_42
REMARK   11  A    between atoms: C12_42  and  N16_43
REMARK   12  A    between atoms: C12_42  and  O1_47
ROOT
HETATM    1  C6  UNL     1       3.496   8.338  49.022  1.00  0.00     0.114 A
HETATM    2  N6  UNL     1       3.811   7.762  47.848  1.00  0.00    -0.272 N
ATOM      3  H6  UNL     1       3.664   6.783  47.604  1.00  0.00     0.190 HD
HETATM    4  N7  UNL     1       4.342   8.677  47.072  1.00  0.00    -0.224 N
ATOM      5  H7  UNL     1       4.676   8.523  46.120  1.00  0.00     0.210 HD
HETATM    6  N8  UNL     1       4.374   9.824  47.716  1.00  0.00    -0.211 N
HETATM    7  N15 UNL     1       3.859   9.629  48.908  1.00  0.00    -0.270 N
ATOM      8  H15 UNL     1       3.752  10.340  49.632  1.00  0.00     0.190 HD
ENDROOT
BRANCH   1   9
HETATM    9  C5  UNL     1       2.876   7.624  50.149  1.00  0.00     0.101 C
BRANCH   9  10
HETATM   10  C4  UNL     1       2.794   8.442  51.400  1.00  0.00     0.157 C
BRANCH  10  11
HETATM   11  N5  UNL     1       4.031   8.222  52.147  1.00  0.00    -0.288 N
HETATM   12  N4  UNL     1       4.446   7.125  52.731  1.00  0.00    -0.281 N
HETATM   13  C3  UNL     1       5.626   7.285  53.323  1.00  0.00     0.165 A
ATOM     14  H4  UNL     1       3.923   6.248  52.733  1.00  0.00     0.189 HD
HETATM   15  N3  UNL     1       6.605   6.720  54.039  1.00  0.00    -0.173 N
HETATM   16  C13 UNL     1       5.987   8.617  53.084  1.00  0.00     0.125 A
HETATM   17  C2  UNL     1       7.532   7.640  54.241  1.00  0.00     0.680 A
ATOM     18  H3  UNL     1       6.631   5.755  54.368  1.00  0.00     0.186 HD
HETATM   19  N1  UNL     1       7.182   8.825  53.664  1.00  0.00    -0.182 N
HETATM   20  C1  UNL     1       7.962  10.054  53.677  1.00  0.00     0.176 C
HETATM   21  C11 UNL     1       4.975   9.188  52.345  1.00  0.00     0.115 A
BRANCH  17  22
HETATM   22  N2  UNL     1       8.632   7.478  54.890  1.00  0.00    -0.234 N
ATOM     23  H22 UNL     1       8.732   7.453  55.905  1.00  0.00     0.174 HD
ATOM     24  H21 UNL     1       9.533   7.357  54.429  1.00  0.00     0.174 HD
ENDBRANCH  17  22
BRANCH  21  25
HETATM   25  C12 UNL     1       4.910  10.575  51.874  1.00  0.00     0.371 C
BRANCH  25  26
HETATM   26  N16 UNL     1       4.935  11.566  52.935  1.00  0.00    -0.047 N
ATOM     27 3H16 UNL     1       4.053  11.562  53.448  1.00  0.00     0.277 HD
ATOM     28 2H16 UNL     1       5.569  11.276  53.678  1.00  0.00     0.277 HD
ATOM     29 1H16 UNL     1       5.159  12.509  52.621  1.00  0.00     0.277 HD
ENDBRANCH  25  26
BRANCH  25  30
HETATM   30  O1  UNL     1       5.862  10.858  50.894  1.00  0.00    -0.365 OA
ATOM     31  H1  UNL     1       5.473  11.041  50.047  1.00  0.00     0.212 HD
ENDBRANCH  25  30
ENDBRANCH  21  25
ENDBRANCH  10  11
ENDBRANCH   9  10
ENDBRANCH   1   9
BRANCH   6  32
HETATM   32  C7  UNL     1       4.897  11.057  47.160  1.00  0.00     0.248 C
BRANCH  32  33
HETATM   33  C8  UNL     1       4.034  11.551  46.046  1.00  0.00     0.134 A
HETATM   34  N9  UNL     1       3.038  12.422  46.238  1.00  0.00    -0.178 N
HETATM   35  C9  UNL     1       2.278  12.852  45.222  1.00  0.00     0.691 A
ATOM     36  H9  UNL     1       2.854  12.768  47.180  1.00  0.00     0.185 HD
HETATM   37  N11 UNL     1       2.530  12.386  43.970  1.00  0.00    -0.021 N
HETATM   38  C10 UNL     1       3.528  11.505  43.746  1.00  0.00     0.712 A
ATOM     39  H11 UNL     1       1.957  12.706  43.189  1.00  0.00     0.203 HD
HETATM   40  N14 UNL     1       4.248  11.116  44.789  1.00  0.00    -0.176 N
ATOM     41  H14 UNL     1       5.004  10.451  44.631  1.00  0.00     0.185 HD
BRANCH  35  42
HETATM   42  N10 UNL     1       1.319  13.693  45.422  1.00  0.00    -0.234 N
ATOM     43 2H10 UNL     1       0.395  13.361  45.699  1.00  0.00     0.174 HD
ATOM     44 1H10 UNL     1       1.470  14.695  45.307  1.00  0.00     0.174 HD
ENDBRANCH  35  42
BRANCH  38  45
HETATM   45  N12 UNL     1       3.729  11.097  42.548  1.00  0.00    -0.138 N
ATOM     46  H12 UNL     1       3.529  10.121  42.329  1.00  0.00     0.205 HD
BRANCH  45  47
HETATM   47  N13 UNL     1       4.207  11.920  41.530  1.00  0.00    -0.331 N
ATOM     48 2H13 UNL     1       4.652  12.795  41.806  1.00  0.00     0.177 HD
ATOM     49 1H13 UNL     1       4.131  11.686  40.540  1.00  0.00     0.177 HD
ENDBRANCH  45  47
ENDBRANCH  38  45
ENDBRANCH  32  33
ENDBRANCH   6  32
TORSDOF 12
ENDMDL