MODEL 5
REMARK VINA RESULT: -9.585733474      2.255      3.874
REMARK  11 active torsions:
REMARK  status: ('A' for Active; 'I' for Inactive)
REMARK    1  A    between atoms: C2_2  and  C3_3
REMARK    2  A    between atoms: C2_2  and  C8_21
REMARK    3  A    between atoms: C3_3  and  O1_4
REMARK    4  A    between atoms: O1_4  and  C4_5
REMARK       I    between atoms: C4_5  and  N1_7
REMARK    5  A    between atoms: N1_7  and  C5_9
REMARK    6  A    between atoms: C6_15  and  C7_16
REMARK    7  A    between atoms: C7_16  and  N4_17
REMARK    8  A    between atoms: N4_17  and  N5_18
REMARK    9  A    between atoms: C8_21  and  N6_22
REMARK   10  A    between atoms: C9_26  and  C10_27
REMARK   11  A    between atoms: C11_30  and  N10_31
ROOT
HETATM    1  C8  UNL     1       5.528   9.641  48.402  1.00  0.00     0.173 C
ENDROOT
BRANCH   1   2
HETATM    2  C2  UNL     1       4.708   9.465  49.659  1.00  0.00     0.027 C
HETATM    3  C1  UNL     1       3.499  10.374  49.670  1.00  0.00     0.014 C
BRANCH   2   4
HETATM    4  C3  UNL     1       5.576   9.877  50.822  1.00  0.00     0.186 C
BRANCH   4   5
HETATM    5  O1  UNL     1       5.692   8.857  51.789  1.00  0.00    -0.303 OA
BRANCH   5   6
HETATM    6  C4  UNL     1       5.334   7.545  51.626  1.00  0.00     0.366 C
HETATM    7  O2  UNL     1       6.073   6.789  50.947  1.00  0.00    -0.238 OA
HETATM    8  N1  UNL     1       4.156   6.970  52.187  1.00  0.00    -0.285 N
ATOM      9  H1  UNL     1       4.210   6.240  52.896  1.00  0.00     0.172 HD
BRANCH   8  10
HETATM   10  C5  UNL     1       3.016   7.411  51.761  1.00  0.00     0.158 A
HETATM   11  N2  UNL     1       2.288   8.398  52.307  1.00  0.00    -0.223 N
HETATM   12  O3  UNL     1       1.228   8.524  51.583  1.00  0.00    -0.155 OA
ATOM     13  H2  UNL     1       2.527   8.944  53.134  1.00  0.00     0.198 HD
HETATM   14  N3  UNL     1       1.193   7.702  50.604  1.00  0.00    -0.241 N
HETATM   15  C6  UNL     1       2.306   6.958  50.655  1.00  0.00     0.096 A
ATOM     16  H3  UNL     1       0.451   7.626  49.907  1.00  0.00     0.196 HD
BRANCH  15  17
HETATM   17  C7  UNL     1       2.754   5.877  49.771  1.00  0.00     0.197 C
BRANCH  17  18
HETATM   18  N4  UNL     1       3.257   6.376  48.504  1.00  0.00    -0.142 NA
BRANCH  18  19
HETATM   19  N5  UNL     1       4.595   6.095  48.327  1.00  0.00    -0.348 N
ATOM     20  H52 UNL     1       4.928   5.246  47.871  1.00  0.00     0.172 HD
ATOM     21  H51 UNL     1       5.196   6.828  48.702  1.00  0.00     0.172 HD
ENDBRANCH  18  19
ENDBRANCH  17  18
ENDBRANCH  15  17
ENDBRANCH   8  10
ENDBRANCH   5   6
ENDBRANCH   4   5
ENDBRANCH   2   4
ENDBRANCH   1   2
BRANCH   1  22
HETATM   22  N6  UNL     1       4.655   9.913  47.249  1.00  0.00    -0.216 N
HETATM   23  N7  UNL     1       3.813   9.069  46.674  1.00  0.00    -0.003 NA
HETATM   24  N8  UNL     1       3.194   9.658  45.666  1.00  0.00    -0.265 N
HETATM   25  C9  UNL     1       3.653  10.937  45.582  1.00  0.00     0.164 A
ATOM     26  H8  UNL     1       2.495   9.230  45.059  1.00  0.00     0.186 HD
HETATM   27  N13 UNL     1       4.549  11.043  46.577  1.00  0.00    -0.268 N
ATOM     28  H13 UNL     1       5.080  11.888  46.786  1.00  0.00     0.190 HD
BRANCH  25  29
HETATM   29  C10 UNL     1       3.246  11.947  44.615  1.00  0.00     0.125 A
HETATM   30  N9  UNL     1       2.578  13.053  44.971  1.00  0.00    -0.186 N
HETATM   31  C11 UNL     1       2.211  13.980  44.046  1.00  0.00     0.679 A
ATOM     32  H9  UNL     1       2.342  13.203  45.953  1.00  0.00     0.184 HD
HETATM   33  N11 UNL     1       2.493  13.841  42.742  1.00  0.00    -0.155 N
HETATM   34  C12 UNL     1       3.160  12.749  42.338  1.00  0.00     0.286 A
ATOM     35  H11 UNL     1       2.206  14.553  42.070  1.00  0.00     0.187 HD
HETATM   36  O4  UNL     1       3.433  12.603  41.120  1.00  0.00    -0.266 OA
HETATM   37  C13 UNL     1       3.543  11.788  43.285  1.00  0.00     0.145 A
HETATM   38  N12 UNL     1       4.252  10.620  42.882  1.00  0.00    -0.094 NA
BRANCH  31  39
HETATM   39  N10 UNL     1       1.567  15.045  44.393  1.00  0.00    -0.234 N
ATOM     40 2H10 UNL     1       2.075  15.725  44.961  1.00  0.00     0.174 HD
ATOM     41 1H10 UNL     1       0.599  15.190  44.108  1.00  0.00     0.174 HD
ENDBRANCH  31  39
ENDBRANCH  25  29
ENDBRANCH   1  22
TORSDOF 11
ENDMDL