MODEL 1
REMARK VINA RESULT: -9.909346629      0.000      0.000
REMARK  8 active torsions:
REMARK  status: ('A' for Active; 'I' for Inactive)
REMARK    1  A    between atoms: C2_8  and  N4_9
REMARK    2  A    between atoms: N5_13  and  C3_14
REMARK    3  A    between atoms: N10_28  and  C8_29
REMARK    4  A    between atoms: C8_29  and  C9_30
REMARK    5  A    between atoms: C8_29  and  C10_33
REMARK    6  A    between atoms: C9_30  and  O1_31
REMARK    7  A    between atoms: C10_33  and  N11_34
REMARK    8  A    between atoms: C12_36  and  C13_37
ROOT
HETATM    1  C3  UNL     1       3.690  10.820  45.499  1.00  0.00     0.159 A
HETATM    2  N6  UNL     1       3.230  12.067  45.749  1.00  0.00    -0.174 N
ATOM      3  H6  UNL     1       3.163  12.739  44.985  1.00  0.00     0.186 HD
HETATM    4  C4  UNL     1       2.853  12.441  47.007  1.00  0.00     0.679 A
HETATM    5  N7  UNL     1       2.436  13.650  47.123  1.00  0.00    -0.234 N
ATOM      6  H71 UNL     1       2.154  13.930  48.062  1.00  0.00     0.174 HD
ATOM      7  H72 UNL     1       2.388  14.287  46.328  1.00  0.00     0.174 HD
HETATM    8  N8  UNL     1       2.917  11.601  48.056  1.00  0.00    -0.174 N
ATOM      9  H8  UNL     1       2.627  11.910  48.984  1.00  0.00     0.186 HD
HETATM   10  C5  UNL     1       3.365  10.354  47.864  1.00  0.00     0.155 A
HETATM   11  C6  UNL     1       3.746   9.972  46.596  1.00  0.00     0.124 A
HETATM   12  N9  UNL     1       4.149   8.701  46.685  1.00  0.00    -0.346 N
ATOM     13  H9  UNL     1       4.494   8.121  45.920  1.00  0.00     0.167 HD
HETATM   14  C7  UNL     1       4.012   8.327  47.977  1.00  0.00     0.185 A
HETATM   15  N10 UNL     1       3.534   9.331  48.702  1.00  0.00    -0.318 N
ENDROOT
BRANCH  15  16
HETATM   16  C8  UNL     1       3.269   9.257  50.153  1.00  0.00     0.136 C
BRANCH  16  17
HETATM   17  C9  UNL     1       1.823   9.528  50.416  1.00  0.00     0.191 C
BRANCH  17  18
HETATM   18  O1  UNL     1       1.072   8.408  50.141  1.00  0.00    -0.399 OA
ATOM     19  H1  UNL     1       0.362   8.328  50.766  1.00  0.00     0.209 HD
ENDBRANCH  17  18
ENDBRANCH  16  17
BRANCH  16  20
HETATM   20  C10 UNL     1       4.156  10.267  50.781  1.00  0.00     0.177 C
BRANCH  20  21
HETATM   21  N11 UNL     1       5.369   9.820  51.396  1.00  0.00    -0.285 N
HETATM   22  C11 UNL     1       6.082   8.704  51.149  1.00  0.00     0.149 A
HETATM   23  C12 UNL     1       7.192   8.634  51.960  1.00  0.00     0.143 A
HETATM   24  N12 UNL     1       7.122   9.763  52.714  1.00  0.00    -0.279 N
HETATM   25  N13 UNL     1       6.052  10.450  52.377  1.00  0.00    -0.240 N
ATOM     26  H12 UNL     1       7.796  10.035  53.431  1.00  0.00     0.189 HD
ATOM     27  H13 UNL     1       5.776  11.336  52.799  1.00  0.00     0.208 HD
BRANCH  23  28
HETATM   28  C13 UNL     1       8.213   7.607  52.013  1.00  0.00     0.229 C
HETATM   29  O2  UNL     1       9.150   7.616  51.196  1.00  0.00    -0.643 OA
HETATM   30  O3  UNL     1       8.134   6.625  52.970  1.00  0.00    -0.643 OA
ENDBRANCH  23  28
ENDBRANCH  20  21
ENDBRANCH  16  20
ENDBRANCH  15  16
BRANCH   1  31
HETATM   31  N5  UNL     1       4.105  10.389  44.212  1.00  0.00    -0.257 N
HETATM   32  C1  UNL     1       3.486  10.647  42.962  1.00  0.00     0.196 C
HETATM   33  N1  UNL     1       2.793  11.677  42.626  1.00  0.00    -0.370 N
HETATM   34  N2  UNL     1       3.780   9.538  42.084  1.00  0.00    -0.271 N
ATOM     35  H12 UNL     1       2.349  11.863  41.726  1.00  0.00     0.159 HD
ATOM     36  H11 UNL     1       2.586  12.460  43.245  1.00  0.00     0.159 HD
HETATM   37  N3  UNL     1       4.967   8.993  42.557  1.00  0.00    -0.083 NA
ATOM     38  H2  UNL     1       3.230   9.221  41.286  1.00  0.00     0.185 HD
HETATM   39  C2  UNL     1       5.258   9.555  43.839  1.00  0.00     0.407 C
BRANCH  39  40
HETATM   40  N4  UNL     1       6.468  10.312  43.749  1.00  0.00    -0.042 N
ATOM     41  H43 UNL     1       6.731  10.733  44.640  1.00  0.00     0.278 HD
ATOM     42  H42 UNL     1       7.290   9.720  43.624  1.00  0.00     0.278 HD
ATOM     43  H41 UNL     1       6.370  11.004  43.006  1.00  0.00     0.278 HD
ENDBRANCH  39  40
ENDBRANCH   1  31
TORSDOF 8
ENDMDL