MODEL 5
REMARK VINA RESULT: -9.630902683      2.055      2.734
REMARK  11 active torsions:
REMARK  status: ('A' for Active; 'I' for Inactive)
REMARK    1  A    between atoms: C2_2  and  C3_4
REMARK    2  A    between atoms: N1_6  and  C5_7
REMARK    3  A    between atoms: C5_7  and  C6_8
REMARK    4  A    between atoms: C6_8  and  O2_9
REMARK    5  A    between atoms: C6_8  and  N2_11
REMARK    6  A    between atoms: N2_11  and  C7_13
REMARK    7  A    between atoms: C8_16  and  C9_17
REMARK    8  A    between atoms: C9_17  and  O3_18
REMARK    9  A    between atoms: C9_17  and  O4_20
REMARK   10  A    between atoms: C13_31  and  N7_32
REMARK   11  A    between atoms: C14_39  and  C15_40
ROOT
HETATM    1  C5  UNL     1       5.075   8.322  50.241  1.00  0.00     0.297 C
HETATM    2  C12 UNL     1       3.623   8.368  50.910  1.00  0.00     0.308 C
HETATM    3  N6  UNL     1       2.752   8.422  49.784  1.00  0.00    -0.017 N
ATOM      4  H61 UNL     1       2.667   9.331  49.329  1.00  0.00     0.281 HD
ATOM      5  H62 UNL     1       1.755   8.340  49.986  1.00  0.00     0.281 HD
HETATM    6  C13 UNL     1       3.321   7.373  48.988  1.00  0.00     0.581 C
HETATM    7  N8  UNL     1       4.728   7.508  49.155  1.00  0.00     0.015 N
ATOM      8  H81 UNL     1       5.175   6.595  49.226  1.00  0.00     0.285 HD
ATOM      9  H82 UNL     1       5.165   7.841  48.295  1.00  0.00     0.285 HD
ENDROOT
BRANCH   1  10
HETATM   10  N1  UNL     1       5.904   7.867  51.311  1.00  0.00    -0.294 N
HETATM   11  C4  UNL     1       5.451   7.784  52.611  1.00  0.00     0.129 A
HETATM   12  C3  UNL     1       6.507   7.456  53.441  1.00  0.00     0.095 A
HETATM   13  N10 UNL     1       7.552   7.360  52.623  1.00  0.00    -0.334 N
HETATM   14  C14 UNL     1       7.189   7.598  51.331  1.00  0.00     0.177 A
ATOM     15  H10 UNL     1       8.501   7.138  52.923  1.00  0.00     0.168 HD
BRANCH  12  16
HETATM   16  C2  UNL     1       6.451   7.406  54.904  1.00  0.00     0.173 C
HETATM   17  C1  UNL     1       7.341   8.175  55.785  1.00  0.00     0.098 C
HETATM   18  O1  UNL     1       5.554   6.654  55.414  1.00  0.00    -0.291 OA
ENDBRANCH  12  16
BRANCH  14  19
HETATM   19  C15 UNL     1       8.162   7.428  50.284  1.00  0.00     0.299 C
HETATM   20  N9  UNL     1       9.585   7.535  50.556  1.00  0.00    -0.054 NA
HETATM   21  O5  UNL     1       7.972   7.168  49.071  1.00  0.00    -0.268 OA
ENDBRANCH  14  19
ENDBRANCH   1  10
BRANCH   1  22
HETATM   22  C6  UNL     1       5.285   9.737  49.890  1.00  0.00     0.178 C
BRANCH  22  23
HETATM   23  O2  UNL     1       4.905  10.616  50.807  1.00  0.00    -0.346 OA
ATOM     24  H2  UNL     1       5.373  11.443  50.800  1.00  0.00     0.219 HD
ENDBRANCH  22  23
BRANCH  22  25
HETATM   25  N2  UNL     1       5.829  10.229  48.721  1.00  0.00    -0.321 N
ATOM     26  H2  UNL     1       6.815  10.487  48.768  1.00  0.00     0.169 HD
BRANCH  25  27
HETATM   27  C7  UNL     1       5.194  10.427  47.449  1.00  0.00     0.134 A
HETATM   28  N3  UNL     1       5.748  10.160  46.292  1.00  0.00    -0.326 N
HETATM   29  C8  UNL     1       4.990  10.327  45.148  1.00  0.00     0.139 A
ATOM     30  H3  UNL     1       6.714   9.836  46.237  1.00  0.00     0.169 HD
HETATM   31  N4  UNL     1       3.718  10.753  45.201  1.00  0.00    -0.350 N
HETATM   32  C10 UNL     1       3.109  11.037  46.358  1.00  0.00     0.120 A
ATOM     33  H4  UNL     1       3.199  10.862  44.331  1.00  0.00     0.166 HD
HETATM   34  C11 UNL     1       3.854  10.875  47.501  1.00  0.00     0.105 A
HETATM   35  N5  UNL     1       3.204  11.155  48.717  1.00  0.00    -0.097 NA
BRANCH  29  36
HETATM   36  C9  UNL     1       5.548  10.031  43.800  1.00  0.00     0.323 C
BRANCH  36  37
HETATM   37  O3  UNL     1       6.916   9.995  43.823  1.00  0.00    -0.365 OA
ATOM     38  H3  UNL     1       7.239   9.102  43.839  1.00  0.00     0.213 HD
ENDBRANCH  36  37
BRANCH  36  39
HETATM   39  O4  UNL     1       4.989   8.828  43.325  1.00  0.00    -0.365 OA
ATOM     40  H4  UNL     1       5.216   8.720  42.409  1.00  0.00     0.213 HD
ENDBRANCH  36  39
ENDBRANCH  29  36
ENDBRANCH  25  27
ENDBRANCH  22  25
ENDBRANCH   1  22
BRANCH   6  41
HETATM   41  N7  UNL     1       2.834   6.052  49.265  1.00  0.00    -0.026 N
ATOM     42  H73 UNL     1       2.113   6.090  49.986  1.00  0.00     0.278 HD
ATOM     43  H72 UNL     1       2.286   5.710  48.476  1.00  0.00     0.278 HD
ATOM     44  H71 UNL     1       3.545   5.365  49.520  1.00  0.00     0.278 HD
ENDBRANCH   6  41
TORSDOF 11
ENDMDL