MODEL 5
REMARK VINA RESULT: -9.196482368      1.780      2.839
REMARK  10 active torsions:
REMARK  status: ('A' for Active; 'I' for Inactive)
REMARK    1  A    between atoms: N1_1  and  N2_4
REMARK    2  A    between atoms: N2_4  and  C1_6
REMARK    3  A    between atoms: C1_6  and  N3_7
REMARK    4  A    between atoms: N3_7  and  N4_9
REMARK    5  A    between atoms: N5_11  and  N6_13
REMARK    6  A    between atoms: N6_13  and  C3_15
REMARK    7  A    between atoms: C4_20  and  O1_21
REMARK    8  A    between atoms: C5_23  and  C6_24
REMARK    9  A    between atoms: C6_24  and  C8_31
REMARK   10  A    between atoms: N9_25  and  N10_27
REMARK       I    between atoms: N10_27  and  C7_28
ROOT
HETATM    1  N4  UNL     1       3.672   9.628  50.588  1.00  0.00    -0.037 N
HETATM    2  C2  UNL     1       4.900   9.451  51.094  1.00  0.00     0.724 A
HETATM    3  N5  UNL     1       5.016   9.007  52.295  1.00  0.00    -0.128 N
ATOM      4  H5  UNL     1       4.183   8.796  52.844  1.00  0.00     0.205 HD
HETATM    5  N8  UNL     1       6.002   9.727  50.385  1.00  0.00    -0.166 N
ATOM      6  H8  UNL     1       6.923   9.581  50.797  1.00  0.00     0.186 HD
HETATM    7  C4  UNL     1       5.892  10.206  49.099  1.00  0.00     0.173 A
HETATM    8  C5  UNL     1       4.665  10.396  48.560  1.00  0.00     0.118 A
HETATM    9  C9  UNL     1       3.520  10.088  49.352  1.00  0.00     0.300 A
HETATM   10  O4  UNL     1       2.364  10.249  48.890  1.00  0.00    -0.264 OA
ENDROOT
BRANCH   8  11
HETATM   11  C6  UNL     1       4.385  10.890  47.226  1.00  0.00     0.127 C
HETATM   12  N9  UNL     1       3.514  11.847  47.153  1.00  0.00    -0.225 N
ATOM     13  H9  UNL     1       3.138  12.126  48.059  1.00  0.00     0.202 HD
BRANCH  12  14
HETATM   14  N10 UNL     1       3.028  12.516  46.168  1.00  0.00    -0.255 NA
HETATM   15  C7  UNL     1       2.510  13.230  45.120  1.00  0.00     0.388 C
HETATM   16  O2  UNL     1       1.701  14.171  45.144  1.00  0.00    -0.617 OA
HETATM   17  O3  UNL     1       2.932  12.878  43.790  1.00  0.00    -0.617 OA
ENDBRANCH  12  14
BRANCH  11  18
HETATM   18  C8  UNL     1       4.929  10.452  45.965  1.00  0.00     0.168 A
HETATM   19  N11 UNL     1       4.179   9.921  44.922  1.00  0.00    -0.267 N
HETATM   20  N12 UNL     1       4.979   9.642  43.932  1.00  0.00    -0.227 N
ATOM     21  H11 UNL     1       3.169   9.775  44.930  1.00  0.00     0.190 HD
HETATM   22  N13 UNL     1       6.230   9.953  44.245  1.00  0.00    -0.227 N
ATOM     23  H12 UNL     1       4.686   9.241  43.042  1.00  0.00     0.210 HD
HETATM   24  N14 UNL     1       6.145  10.431  45.468  1.00  0.00    -0.267 N
ATOM     25  H13 UNL     1       7.065   9.847  43.670  1.00  0.00     0.210 HD
ATOM     26  H14 UNL     1       6.958  10.759  45.989  1.00  0.00     0.190 HD
ENDBRANCH  11  18
ENDBRANCH   8  11
BRANCH   7  27
HETATM   27  O1  UNL     1       7.054  10.475  48.409  1.00  0.00    -0.345 OA
ATOM     28  H1  UNL     1       7.006  11.076  47.675  1.00  0.00     0.219 HD
ENDBRANCH   7  27
BRANCH   1  29
HETATM   29  N3  UNL     1       2.571   9.302  51.413  1.00  0.00    -0.225 N
ATOM     30  H3  UNL     1       2.329   9.896  52.207  1.00  0.00     0.199 HD
BRANCH  29  31
HETATM   31  C1  UNL     1       1.872   8.245  51.153  1.00  0.00     0.084 C
BRANCH  31  32
HETATM   32  N2  UNL     1       1.355   7.159  50.751  1.00  0.00    -0.256 N
ATOM     33  H2  UNL     1       0.409   6.924  51.051  1.00  0.00     0.197 HD
BRANCH  32  34
HETATM   34  N1  UNL     1       2.033   6.274  49.916  1.00  0.00    -0.337 N
ATOM     35  H12 UNL     1       2.285   6.600  48.983  1.00  0.00     0.177 HD
ATOM     36  H11 UNL     1       2.279   5.328  50.207  1.00  0.00     0.177 HD
ENDBRANCH  32  34
ENDBRANCH  31  32
ENDBRANCH  29  31
ENDBRANCH   1  29
BRANCH   3  37
HETATM   37  N6  UNL     1       6.289   8.814  52.849  1.00  0.00    -0.264 N
ATOM     38  H6  UNL     1       6.959   9.583  52.824  1.00  0.00     0.189 HD
BRANCH  37  39
HETATM   39  C3  UNL     1       6.676   7.590  53.442  1.00  0.00     0.200 C
HETATM   40  N7  UNL     1       6.895   6.436  52.654  1.00  0.00    -0.068 NA
HETATM   41  S1  UNL     1       6.880   7.493  55.049  1.00  0.00    -0.043 SA
ENDBRANCH  37  39
ENDBRANCH   3  37
TORSDOF 10
ENDMDL