MODEL 4
REMARK VINA RESULT: -7.127175104      3.348      7.513
REMARK  14 active torsions:
REMARK  status: ('A' for Active; 'I' for Inactive)
REMARK    1  A    between atoms: C2_2  and  C3_3
REMARK    2  A    between atoms: C3_3  and  C4_4
REMARK    3  A    between atoms: C6_6  and  N1_7
REMARK    4  A    between atoms: N3_12  and  C8_13
REMARK    5  A    between atoms: C8_13  and  C9_14
REMARK    6  A    between atoms: C9_14  and  C10_15
REMARK    7  A    between atoms: C10_15  and  N5_19
REMARK    8  A    between atoms: C12_22  and  O1_23
REMARK    9  A    between atoms: O1_23  and  C13_24
REMARK   10  A    between atoms: C13_24  and  C14_25
REMARK       I    between atoms: C14_25  and  N6_27
REMARK   11  A    between atoms: N6_27  and  C15_29
REMARK   12  A    between atoms: C15_29  and  C16_30
REMARK   13  A    between atoms: C16_30  and  C17_31
REMARK   14  A    between atoms: C17_31  and  N7_32
ROOT
HETATM    1  C4  UNL     1      42.345  34.069  44.199  1.00  0.00     0.001 A
HETATM    2  C5  UNL     1      42.122  34.786  45.354  1.00  0.00     0.061 A
HETATM    3  C6  UNL     1      42.337  34.233  46.597  1.00  0.00     0.116 A
HETATM    4  N2  UNL     1      42.771  32.963  46.642  1.00  0.00    -0.282 N
ATOM      5  H2  UNL     1      42.938  32.530  47.549  1.00  0.00     0.189 HD
HETATM    6  N3  UNL     1      42.994  32.245  45.523  1.00  0.00    -0.269 N
HETATM    7  C12 UNL     1      42.796  32.757  44.310  1.00  0.00     0.166 A
ENDROOT
BRANCH   7   8
HETATM    8  O1  UNL     1      43.010  32.089  43.150  1.00  0.00    -0.325 OA
BRANCH   8   9
HETATM    9  C13 UNL     1      42.361  31.022  42.556  1.00  0.00     0.280 C
BRANCH   9  10
HETATM   10  C14 UNL     1      42.504  31.162  41.062  1.00  0.00     0.241 C
HETATM   11  O2  UNL     1      42.099  30.232  40.333  1.00  0.00    -0.271 OA
HETATM   12  N6  UNL     1      43.088  32.334  40.545  1.00  0.00    -0.359 N
ATOM     13  H6  UNL     1      43.394  33.048  41.207  1.00  0.00     0.162 HD
BRANCH  12  14
HETATM   14  C15 UNL     1      43.281  32.592  39.129  1.00  0.00     0.124 C
BRANCH  14  15
HETATM   15  C16 UNL     1      44.553  33.394  38.968  1.00  0.00     0.047 C
BRANCH  15  16
HETATM   16  C17 UNL     1      45.298  33.266  40.291  1.00  0.00     0.237 C
BRANCH  16  17
HETATM   17  N7  UNL     1      46.086  34.440  40.507  1.00  0.00    -0.079 N
HETATM   18  C18 UNL     1      45.208  35.527  40.880  1.00  0.00     0.271 C
HETATM   19  C19 UNL     1      46.801  34.734  39.279  1.00  0.00     0.271 C
HETATM   20  C20 UNL     1      47.068  34.258  41.542  1.00  0.00     0.271 C
ENDBRANCH  16  17
ENDBRANCH  15  16
ENDBRANCH  14  15
ENDBRANCH  12  14
ENDBRANCH   9  10
ENDBRANCH   8   9
ENDBRANCH   7   8
BRANCH   1  21
HETATM   21  C3  UNL     1      42.111  34.719  42.896  1.00  0.00     0.069 C
BRANCH  21  22
HETATM   22  C2  UNL     1      40.650  34.783  42.646  1.00  0.00    -0.032 C
HETATM   23  C1  UNL     1      39.919  33.750  42.338  1.00  0.00     0.007 C
ENDBRANCH  21  22
ENDBRANCH   1  21
BRANCH   6  24
HETATM   24  C8  UNL     1      43.434  30.869  45.749  1.00  0.00     0.159 C
BRANCH  24  25
HETATM   25  C9  UNL     1      42.286  30.080  46.275  1.00  0.00     0.097 C
BRANCH  25  26
HETATM   26  C10 UNL     1      42.412  28.621  45.956  1.00  0.00     0.071 C
HETATM   27  N4  UNL     1      42.089  28.163  44.800  1.00  0.00    -0.389 N
ATOM     28  H42 UNL     1      41.743  28.818  44.099  1.00  0.00     0.157 HD
ATOM     29  H41 UNL     1      42.176  27.170  44.583  1.00  0.00     0.157 HD
BRANCH  26  30
HETATM   30  N5  UNL     1      42.895  27.706  46.932  1.00  0.00    -0.384 N
HETATM   31  C11 UNL     1      44.266  27.282  47.044  1.00  0.00     0.147 C
ATOM     32  H5  UNL     1      42.223  27.325  47.599  1.00  0.00     0.160 HD
ENDBRANCH  26  30
ENDBRANCH  25  26
ENDBRANCH  24  25
ENDBRANCH   6  24
BRANCH   3  33
HETATM   33  N1  UNL     1      42.137  34.883  47.693  1.00  0.00    -0.380 N
HETATM   34  C7  UNL     1      40.771  35.241  48.022  1.00  0.00     0.147 C
ATOM     35  H1  UNL     1      42.912  35.135  48.307  1.00  0.00     0.160 HD
ENDBRANCH   3  33
TORSDOF 14
ENDMDL