MODEL 4
REMARK VINA RESULT: -7.778467169      4.483     10.199
REMARK  12 active torsions:
REMARK  status: ('A' for Active; 'I' for Inactive)
REMARK    1  A    between atoms: C2_2  and  C4_4
REMARK    2  A    between atoms: C4_4  and  C5_5
REMARK    3  A    between atoms: C5_5  and  N1_6
REMARK    4  A    between atoms: C5_5  and  C16_27
REMARK       I    between atoms: N1_6  and  C6_8
REMARK    5  A    between atoms: C6_8  and  C7_10
REMARK    6  A    between atoms: C7_10  and  C8_11
REMARK    7  A    between atoms: C8_11  and  C9_12
REMARK    8  A    between atoms: C9_12  and  C10_13
REMARK    9  A    between atoms: C9_12  and  C14_18
REMARK   10  A    between atoms: C10_13  and  N2_14
REMARK   11  A    between atoms: N4_20  and  N5_22
REMARK       I    between atoms: C16_27  and  N8_29
REMARK   12  A    between atoms: N8_29  and  C18_31
ROOT
HETATM    1  C7  UNL     1      42.100  35.966  48.481  1.00  0.00     0.103 C
ENDROOT
BRANCH   1   2
HETATM    2  C6  UNL     1      41.668  35.051  47.395  1.00  0.00     0.218 C
HETATM    3  N1  UNL     1      42.595  34.151  46.825  1.00  0.00    -0.348 N
ATOM      4  H1  UNL     1      43.556  34.139  47.166  1.00  0.00     0.163 HD
HETATM    5  O1  UNL     1      40.478  35.040  46.945  1.00  0.00    -0.274 OA
BRANCH   3   6
HETATM    6  C5  UNL     1      42.197  33.221  45.737  1.00  0.00     0.177 C
BRANCH   6   7
HETATM    7  C4  UNL     1      43.057  31.987  45.862  1.00  0.00     0.038 C
BRANCH   7   8
HETATM    8  C2  UNL     1      42.448  30.787  45.241  1.00  0.00    -0.020 C
HETATM    9  C1  UNL     1      43.282  30.306  44.043  1.00  0.00     0.009 C
HETATM   10  C3  UNL     1      42.459  29.601  46.226  1.00  0.00     0.009 C
ENDBRANCH   7   8
ENDBRANCH   6   7
BRANCH   6  11
HETATM   11  C16 UNL     1      42.528  33.944  44.466  1.00  0.00     0.242 C
HETATM   12  O2  UNL     1      43.613  34.630  44.535  1.00  0.00    -0.271 OA
HETATM   13  N8  UNL     1      41.787  33.930  43.288  1.00  0.00    -0.351 N
HETATM   14  C17 UNL     1      40.545  33.231  43.161  1.00  0.00     0.153 C
BRANCH  13  15
HETATM   15  C18 UNL     1      42.287  34.651  42.127  1.00  0.00     0.078 C
HETATM   16  C19 UNL     1      41.090  35.198  41.377  1.00  0.00     0.032 C
HETATM   17  C20 UNL     1      43.079  33.769  41.218  1.00  0.00     0.032 C
ENDBRANCH  13  15
ENDBRANCH   6  11
ENDBRANCH   3   6
ENDBRANCH   1   2
BRANCH   1  18
HETATM   18  C8  UNL     1      41.491  37.335  48.175  1.00  0.00     0.023 C
BRANCH  18  19
HETATM   19  C9  UNL     1      40.304  37.614  49.047  1.00  0.00     0.078 C
BRANCH  19  20
HETATM   20  C10 UNL     1      40.310  36.745  50.245  1.00  0.00     0.248 C
BRANCH  20  21
HETATM   21  N2  UNL     1      39.168  35.948  50.519  1.00  0.00    -0.078 N
HETATM   22  C11 UNL     1      39.490  34.547  50.676  1.00  0.00     0.271 C
HETATM   23  C12 UNL     1      38.314  36.066  49.310  1.00  0.00     0.271 C
HETATM   24  C13 UNL     1      38.351  36.366  51.613  1.00  0.00     0.271 C
ENDBRANCH  20  21
ENDBRANCH  19  20
BRANCH  19  25
HETATM   25  C14 UNL     1      40.427  39.015  49.522  1.00  0.00     0.113 C
HETATM   26  N3  UNL     1      39.275  39.655  50.024  1.00  0.00    -0.086 NA
HETATM   27  N4  UNL     1      41.536  39.650  49.489  1.00  0.00    -0.289 N
ATOM     28  H4  UNL     1      42.352  39.160  49.121  1.00  0.00     0.188 HD
BRANCH  27  29
HETATM   29  N5  UNL     1      41.708  40.952  49.916  1.00  0.00    -0.275 N
HETATM   30  C15 UNL     1      42.531  41.303  50.846  1.00  0.00     0.215 C
HETATM   31  N6  UNL     1      43.354  40.382  51.538  1.00  0.00    -0.065 NA
HETATM   32  N7  UNL     1      42.613  42.675  51.192  1.00  0.00    -0.065 NA
ATOM     33  H5  UNL     1      41.151  41.681  49.468  1.00  0.00     0.189 HD
ENDBRANCH  27  29
ENDBRANCH  19  25
ENDBRANCH  18  19
ENDBRANCH   1  18
TORSDOF 12
ENDMDL