MODEL 1
REMARK VINA RESULT: -7.967573408      0.000      0.000
REMARK  14 active torsions:
REMARK  status: ('A' for Active; 'I' for Inactive)
REMARK    1  A    between atoms: C3_3  and  C4_4
REMARK    2  A    between atoms: C4_4  and  C5_5
REMARK    3  A    between atoms: C7_7  and  C8_8
REMARK    4  A    between atoms: C8_8  and  C9_9
REMARK    5  A    between atoms: C9_9  and  N1_10
REMARK    6  A    between atoms: C13_19  and  C14_20
REMARK    7  A    between atoms: N5_24  and  C17_25
REMARK    8  A    between atoms: C17_25  and  C18_26
REMARK    9  A    between atoms: C18_26  and  C19_27
REMARK   10  A    between atoms: C19_27  and  C20_28
REMARK   11  A    between atoms: C20_28  and  C21_29
REMARK   12  A    between atoms: C21_29  and  C22_30
REMARK   13  A    between atoms: C22_30  and  C23_31
REMARK   14  A    between atoms: C23_31  and  N6_32
ROOT
HETATM    1  C1  UNL     1      45.222  33.321  43.476  1.00  0.00     0.044 C
HETATM    2  C2  UNL     1      44.165  33.939  42.939  1.00  0.00     0.036 A
HETATM    3  C3  UNL     1      42.709  33.660  43.282  1.00  0.00     0.007 A
HETATM    4  C13 UNL     1      42.003  34.406  42.450  1.00  0.00     0.036 A
HETATM    5  C15 UNL     1      42.965  35.156  41.595  1.00  0.00     0.022 A
HETATM    6  C16 UNL     1      42.537  36.119  40.555  1.00  0.00     0.069 C
HETATM    7  N5  UNL     1      44.168  34.871  41.899  1.00  0.00    -0.350 N
ENDROOT
BRANCH   3   8
HETATM    8  C4  UNL     1      42.397  32.845  44.404  1.00  0.00     0.044 C
BRANCH   8   9
HETATM    9  C5  UNL     1      42.231  31.611  44.769  1.00  0.00     0.034 A
HETATM   10  C6  UNL     1      42.666  30.813  45.773  1.00  0.00     0.039 A
HETATM   11  C7  UNL     1      42.251  29.504  45.599  1.00  0.00    -0.029 A
HETATM   12  C11 UNL     1      41.538  29.514  44.451  1.00  0.00     0.029 A
HETATM   13  C12 UNL     1      40.925  28.463  43.926  1.00  0.00     0.043 C
HETATM   14  N4  UNL     1      41.518  30.744  43.954  1.00  0.00    -0.356 N
ATOM     15  H4  UNL     1      41.044  31.015  43.093  1.00  0.00     0.166 HD
BRANCH  11  16
HETATM   16  C8  UNL     1      42.614  28.373  46.517  1.00  0.00     0.060 C
BRANCH  16  17
HETATM   17  C9  UNL     1      44.042  27.971  46.455  1.00  0.00     0.126 C
BRANCH  17  18
HETATM   18  N1  UNL     1      44.331  26.646  46.039  1.00  0.00    -0.367 N
HETATM   19  C10 UNL     1      44.565  25.698  46.867  1.00  0.00     0.196 C
HETATM   20  N2  UNL     1      44.857  24.363  46.481  1.00  0.00    -0.067 NA
HETATM   21  N3  UNL     1      44.522  26.013  48.260  1.00  0.00    -0.067 NA
ATOM     22  H1  UNL     1      44.355  26.440  45.040  1.00  0.00     0.161 HD
ENDBRANCH  17  18
ENDBRANCH  16  17
ENDBRANCH  11  16
ENDBRANCH   8   9
ENDBRANCH   3   8
BRANCH   4  23
HETATM   23  C14 UNL     1      40.576  34.568  42.308  1.00  0.00     0.272 C
HETATM   24  O1  UNL     1      39.900  33.664  41.693  1.00  0.00    -0.301 OA
ENDBRANCH   4  23
BRANCH   7  25
HETATM   25  C17 UNL     1      45.349  35.510  41.318  1.00  0.00     0.129 C
BRANCH  25  26
HETATM   26  C18 UNL     1      45.802  34.897  40.065  1.00  0.00     0.020 C
BRANCH  26  27
HETATM   27  C19 UNL     1      45.549  33.459  39.783  1.00  0.00     0.002 C
BRANCH  27  28
HETATM   28  C20 UNL     1      44.552  33.410  38.630  1.00  0.00     0.000 C
BRANCH  28  29
HETATM   29  C21 UNL     1      43.305  32.664  39.003  1.00  0.00     0.002 C
BRANCH  29  30
HETATM   30  C22 UNL     1      43.536  31.559  39.982  1.00  0.00     0.027 C
BRANCH  30  31
HETATM   31  C23 UNL     1      43.013  30.268  39.339  1.00  0.00     0.229 C
BRANCH  31  32
HETATM   32  N6  UNL     1      44.031  29.678  38.492  1.00  0.00    -0.079 N
ATOM     33  H63 UNL     1      43.927  29.962  37.518  1.00  0.00     0.274 HD
ATOM     34  H62 UNL     1      44.953  30.078  38.670  1.00  0.00     0.274 HD
ATOM     35  H61 UNL     1      44.032  28.662  38.593  1.00  0.00     0.274 HD
ENDBRANCH  31  32
ENDBRANCH  30  31
ENDBRANCH  29  30
ENDBRANCH  28  29
ENDBRANCH  27  28
ENDBRANCH  26  27
ENDBRANCH  25  26
ENDBRANCH   7  25
TORSDOF 14
ENDMDL