MODEL 2
REMARK VINA RESULT: -7.369827164      4.259      8.057
REMARK  13 active torsions:
REMARK  status: ('A' for Active; 'I' for Inactive)
REMARK    1  A    between atoms: C2_2  and  C3_3
REMARK       I    between atoms: C3_3  and  N1_5
REMARK    2  A    between atoms: N1_5  and  C4_6
REMARK    3  A    between atoms: C4_6  and  N2_7
REMARK    4  A    between atoms: C4_6  and  C10_15
REMARK    5  A    between atoms: N2_7  and  C5_9
REMARK    6  A    between atoms: C5_9  and  C6_10
REMARK    7  A    between atoms: C6_10  and  N3_11
REMARK    8  A    between atoms: C10_15  and  N4_16
REMARK    9  A    between atoms: C10_15  and  C19_29
REMARK       I    between atoms: N4_16  and  C11_18
REMARK   10  A    between atoms: C11_18  and  C12_20
REMARK   11  A    between atoms: C13_21  and  C14_22
REMARK   12  A    between atoms: C14_22  and  C15_23
REMARK   13  A    between atoms: C17_25  and  C18_26
ROOT
HETATM    1  C10 UNL     1      41.378  33.709  43.320  1.00  0.00     0.257 C
ENDROOT
BRANCH   1   2
HETATM    2  C4  UNL     1      41.958  32.326  43.149  1.00  0.00     0.187 C
BRANCH   2   3
HETATM    3  N1  UNL     1      42.148  31.637  44.098  1.00  0.00    -0.354 NA
HETATM    4  C3  UNL     1      42.289  30.849  45.137  1.00  0.00     0.292 C
HETATM    5  O1  UNL     1      42.326  31.349  46.333  1.00  0.00    -0.257 OA
BRANCH   4   6
HETATM    6  C2  UNL     1      42.425  29.350  45.155  1.00  0.00     0.115 C
HETATM    7  C1  UNL     1      43.378  28.961  44.053  1.00  0.00     0.016 C
ENDBRANCH   4   6
ENDBRANCH   2   3
BRANCH   2   8
HETATM    8  N2  UNL     1      42.278  31.928  41.792  1.00  0.00    -0.365 N
ATOM      9  H2  UNL     1      41.760  31.190  41.316  1.00  0.00     0.161 HD
BRANCH   8  10
HETATM   10  C5  UNL     1      43.359  32.620  41.148  1.00  0.00     0.150 C
BRANCH  10  11
HETATM   11  C6  UNL     1      44.708  32.364  41.730  1.00  0.00     0.255 C
BRANCH  11  12
HETATM   12  N3  UNL     1      45.335  33.485  42.369  1.00  0.00    -0.077 N
HETATM   13  C7  UNL     1      44.797  34.766  42.051  1.00  0.00     0.271 C
HETATM   14  C8  UNL     1      46.747  33.495  41.975  1.00  0.00     0.271 C
HETATM   15  C9  UNL     1      45.322  33.295  43.830  1.00  0.00     0.271 C
ENDBRANCH  11  12
ENDBRANCH  10  11
ENDBRANCH   8  10
ENDBRANCH   2   8
ENDBRANCH   1   2
BRANCH   1  16
HETATM   16  N4  UNL     1      41.173  34.015  44.699  1.00  0.00    -0.337 N
HETATM   17  C11 UNL     1      41.893  34.913  45.501  1.00  0.00     0.241 C
HETATM   18  O2  UNL     1      42.840  35.575  45.042  1.00  0.00    -0.269 OA
ATOM     19  H4  UNL     1      40.409  33.520  45.159  1.00  0.00     0.164 HD
BRANCH  17  20
HETATM   20  C12 UNL     1      41.547  35.097  46.901  1.00  0.00     0.070 C
HETATM   21  C13 UNL     1      42.328  35.745  47.748  1.00  0.00    -0.017 C
BRANCH  21  22
HETATM   22  C14 UNL     1      41.928  35.897  49.141  1.00  0.00     0.061 C
BRANCH  22  23
HETATM   23  C15 UNL     1      40.846  36.915  49.324  1.00  0.00    -0.075 C
HETATM   24  C16 UNL     1      39.588  36.464  49.943  1.00  0.00     0.044 C
HETATM   25  C17 UNL     1      41.018  38.167  48.945  1.00  0.00     0.073 C
BRANCH  25  26
HETATM   26  C18 UNL     1      40.057  39.237  49.068  1.00  0.00     0.254 C
HETATM   27  N5  UNL     1      39.921  40.026  50.239  1.00  0.00    -0.058 NA
HETATM   28  O3  UNL     1      39.298  39.498  48.107  1.00  0.00    -0.272 OA
ENDBRANCH  25  26
ENDBRANCH  22  23
ENDBRANCH  21  22
ENDBRANCH  17  20
ENDBRANCH   1  16
BRANCH   1  29
HETATM   29  C19 UNL     1      40.270  34.010  42.421  1.00  0.00     0.262 C
HETATM   30  N6  UNL     1      39.413  32.923  42.011  1.00  0.00    -0.060 NA
HETATM   31  O4  UNL     1      39.975  35.152  41.950  1.00  0.00    -0.274 OA
ENDBRANCH   1  29
TORSDOF 13
ENDMDL