MODEL 1
REMARK VINA RESULT: -8.490901926      0.000      0.000
REMARK  11 active torsions:
REMARK  status: ('A' for Active; 'I' for Inactive)
REMARK    1  A    between atoms: C2_2  and  C3_3
REMARK    2  A    between atoms: C3_3  and  C4_4
REMARK    3  A    between atoms: C4_4  and  C5_5
REMARK    4  A    between atoms: C5_5  and  C6_6
REMARK    5  A    between atoms: C6_6  and  C7_7
REMARK    6  A    between atoms: C7_7  and  C8_8
REMARK    7  A    between atoms: C8_8  and  C9_9
REMARK    8  A    between atoms: C9_9  and  N1_10
REMARK       I    between atoms: N1_10  and  C10_12
REMARK    9  A    between atoms: C10_12  and  C11_14
REMARK   10  A    between atoms: C18_26  and  C19_27
REMARK   11  A    between atoms: C19_27  and  O2_28
ROOT
HETATM    1  C11 UNL     1      41.558  36.296  48.236  1.00  0.00     0.077 C
HETATM    2  C12 UNL     1      42.112  36.403  49.600  1.00  0.00     0.112 C
HETATM    3  C13 UNL     1      41.329  37.276  50.517  1.00  0.00     0.013 C
HETATM    4  C14 UNL     1      40.004  37.769  49.974  1.00  0.00     0.172 C
HETATM    5  N2  UNL     1      39.711  37.578  48.614  1.00  0.00    -0.147 NA
HETATM    6  N3  UNL     1      40.100  36.382  48.134  1.00  0.00    -0.202 NA
HETATM    7  C15 UNL     1      39.531  35.249  48.875  1.00  0.00     0.138 C
HETATM    8  C16 UNL     1      39.926  39.257  50.332  1.00  0.00     0.237 C
HETATM    9  N4  UNL     1      41.018  40.057  49.805  1.00  0.00    -0.060 N
ATOM     10  H41 UNL     1      40.886  40.695  49.021  1.00  0.00     0.278 HD
ATOM     11  H42 UNL     1      41.788  39.636  49.285  1.00  0.00     0.278 HD
HETATM   12  C17 UNL     1      41.188  40.539  51.160  1.00  0.00     0.218 C
HETATM   13  C18 UNL     1      42.618  40.499  51.709  1.00  0.00     0.060 C
HETATM   14  C21 UNL     1      42.960  39.040  51.281  1.00  0.00     0.132 C
HETATM   15  N5  UNL     1      41.819  38.350  51.204  1.00  0.00    -0.376 N
HETATM   16  C22 UNL     1      40.713  39.203  51.615  1.00  0.00     0.147 C
ENDROOT
BRANCH   1  17
HETATM   17  C10 UNL     1      42.102  35.573  47.124  1.00  0.00     0.264 C
HETATM   18  N1  UNL     1      42.318  34.147  47.012  1.00  0.00    -0.336 N
ATOM     19  H1  UNL     1      42.063  33.563  47.809  1.00  0.00     0.168 HD
HETATM   20  O1  UNL     1      42.437  36.208  46.045  1.00  0.00    -0.267 OA
BRANCH  18  21
HETATM   21  C9  UNL     1      42.856  33.510  45.883  1.00  0.00     0.064 C
BRANCH  21  22
HETATM   22  C8  UNL     1      42.008  32.871  44.850  1.00  0.00     0.044 C
BRANCH  22  23
HETATM   23  C7  UNL     1      42.167  33.713  43.584  1.00  0.00     0.005 C
BRANCH  23  24
HETATM   24  C6  UNL     1      40.934  34.521  43.361  1.00  0.00     0.000 C
BRANCH  24  25
HETATM   25  C5  UNL     1      40.738  34.991  41.953  1.00  0.00     0.000 C
BRANCH  25  26
HETATM   26  C4  UNL     1      41.879  34.660  41.045  1.00  0.00     0.000 C
BRANCH  26  27
HETATM   27  C3  UNL     1      42.552  35.928  40.519  1.00  0.00    -0.000 C
BRANCH  27  28
HETATM   28  C2  UNL     1      43.675  36.396  41.432  1.00  0.00    -0.005 C
HETATM   29  C1  UNL     1      44.882  35.489  41.294  1.00  0.00     0.005 C
ENDBRANCH  27  28
ENDBRANCH  26  27
ENDBRANCH  25  26
ENDBRANCH  24  25
ENDBRANCH  23  24
ENDBRANCH  22  23
ENDBRANCH  21  22
ENDBRANCH  18  21
ENDBRANCH   1  17
BRANCH  13  30
HETATM   30  C19 UNL     1      42.438  40.622  53.193  1.00  0.00     0.175 C
BRANCH  30  31
HETATM   31  O2  UNL     1      42.191  41.840  53.732  1.00  0.00    -0.395 OA
HETATM   32  C20 UNL     1      41.849  41.721  55.097  1.00  0.00     0.201 C
ENDBRANCH  30  31
ENDBRANCH  13  30
TORSDOF 11
ENDMDL