MODEL 3
REMARK VINA RESULT: -7.354204208      2.034     10.272
REMARK  13 active torsions:
REMARK  status: ('A' for Active; 'I' for Inactive)
REMARK    1  A    between atoms: C2_2  and  C3_3
REMARK    2  A    between atoms: C5_5  and  N1_6
REMARK    3  A    between atoms: N1_6  and  C6_8
REMARK    4  A    between atoms: C6_8  and  C7_9
REMARK    5  A    between atoms: C7_9  and  N2_10
REMARK       I    between atoms: N2_10  and  C8_12
REMARK       I    between atoms: C8_12  and  N3_14
REMARK    6  A    between atoms: N3_14  and  C9_16
REMARK    7  A    between atoms: C9_16  and  C10_17
REMARK    8  A    between atoms: C10_17  and  C11_18
REMARK    9  A    between atoms: C11_18  and  N4_19
REMARK   10  A    between atoms: C15_25  and  N6_26
REMARK   11  A    between atoms: N6_26  and  C16_28
REMARK   12  A    between atoms: C16_28  and  C17_29
REMARK   13  A    between atoms: C17_29  and  N7_30
ROOT
HETATM    1  C3  UNL     1      40.264  35.789  48.711  1.00  0.00     0.029 A
HETATM    2  C4  UNL     1      40.882  35.237  47.615  1.00  0.00     0.074 A
HETATM    3  C5  UNL     1      42.236  35.318  47.507  1.00  0.00     0.118 A
HETATM    4  N5  UNL     1      42.960  35.939  48.480  1.00  0.00    -0.177 N
ATOM      5  H5  UNL     1      43.975  35.996  48.397  1.00  0.00     0.185 HD
HETATM    6  C15 UNL     1      42.347  36.477  49.550  1.00  0.00     0.679 A
HETATM    7  N8  UNL     1      41.013  36.389  49.640  1.00  0.00    -0.196 N
ATOM      8  H8  UNL     1      40.550  36.797  50.452  1.00  0.00     0.184 HD
ENDROOT
BRANCH   3   9
HETATM    9  N1  UNL     1      42.858  34.829  46.514  1.00  0.00    -0.374 N
ATOM     10  H1  UNL     1      43.716  34.311  46.702  1.00  0.00     0.161 HD
BRANCH   9  11
HETATM   11  C6  UNL     1      42.439  34.953  45.142  1.00  0.00     0.141 C
BRANCH  11  12
HETATM   12  C7  UNL     1      43.336  34.102  44.274  1.00  0.00     0.144 C
BRANCH  12  13
HETATM   13  N2  UNL     1      43.858  34.766  43.134  1.00  0.00    -0.342 N
HETATM   14  C8  UNL     1      45.061  34.351  42.526  1.00  0.00     0.316 C
HETATM   15  O1  UNL     1      45.691  33.382  42.997  1.00  0.00    -0.247 OA
HETATM   16  N3  UNL     1      45.567  35.016  41.391  1.00  0.00    -0.343 N
ATOM     17  H3  UNL     1      45.022  35.798  41.028  1.00  0.00     0.164 HD
ATOM     18  H2  UNL     1      43.352  35.563  42.746  1.00  0.00     0.164 HD
BRANCH  16  19
HETATM   19  C9  UNL     1      46.786  34.685  40.701  1.00  0.00     0.126 C
BRANCH  19  20
HETATM   20  C10 UNL     1      46.584  33.936  39.426  1.00  0.00     0.048 C
BRANCH  20  21
HETATM   21  C11 UNL     1      46.612  32.461  39.537  1.00  0.00     0.237 C
BRANCH  21  22
HETATM   22  N4  UNL     1      45.383  31.757  39.425  1.00  0.00    -0.079 N
HETATM   23  C12 UNL     1      44.987  31.074  40.639  1.00  0.00     0.271 C
HETATM   24  C13 UNL     1      45.647  30.663  38.465  1.00  0.00     0.271 C
HETATM   25  C14 UNL     1      44.284  32.513  38.887  1.00  0.00     0.271 C
ENDBRANCH  21  22
ENDBRANCH  20  21
ENDBRANCH  19  20
ENDBRANCH  16  19
ENDBRANCH  12  13
ENDBRANCH  11  12
ENDBRANCH   9  11
ENDBRANCH   3   9
BRANCH   1  26
HETATM   26  C2  UNL     1      38.800  35.731  48.869  1.00  0.00     0.053 C
HETATM   27  C1  UNL     1      38.490  35.966  50.338  1.00  0.00     0.011 C
ENDBRANCH   1  26
BRANCH   6  28
HETATM   28  N6  UNL     1      43.057  37.055  50.451  1.00  0.00    -0.224 N
ATOM     29  H6  UNL     1      44.065  36.896  50.455  1.00  0.00     0.177 HD
BRANCH  28  30
HETATM   30  C16 UNL     1      42.489  37.925  51.461  1.00  0.00     0.168 C
BRANCH  30  31
HETATM   31  C17 UNL     1      43.257  39.189  51.638  1.00  0.00     0.291 C
BRANCH  31  32
HETATM   32  N7  UNL     1      42.437  40.376  51.511  1.00  0.00     0.081 N
HETATM   33  C18 UNL     1      43.205  41.598  51.625  1.00  0.00     0.309 C
HETATM   34  C19 UNL     1      41.629  40.351  50.311  1.00  0.00     0.309 C
ENDBRANCH  31  32
ENDBRANCH  30  31
ENDBRANCH  28  30
ENDBRANCH   6  28
TORSDOF 13
ENDMDL