MODEL 1
REMARK VINA RESULT: -7.705748771      0.000      0.000
REMARK  15 active torsions:
REMARK  status: ('A' for Active; 'I' for Inactive)
REMARK    1  A    between atoms: C2_2  and  C3_3
REMARK    2  A    between atoms: C3_3  and  C4_4
REMARK    3  A    between atoms: C4_4  and  C5_5
REMARK    4  A    between atoms: C5_5  and  C6_6
REMARK    5  A    between atoms: C6_6  and  C7_7
REMARK    6  A    between atoms: C7_7  and  C8_8
REMARK    7  A    between atoms: N3_14  and  C11_15
REMARK    8  A    between atoms: C11_15  and  C12_16
REMARK    9  A    between atoms: C12_16  and  C13_17
REMARK   10  A    between atoms: C13_17  and  C14_18
REMARK   11  A    between atoms: C14_18  and  N4_19
REMARK   12  A    between atoms: C16_21  and  N5_22
REMARK   13  A    between atoms: C17_27  and  N7_28
REMARK   14  A    between atoms: N7_28  and  C18_30
REMARK   15  A    between atoms: C18_30  and  C19_31
ROOT
HETATM    1  C14 UNL     1      43.296  30.356  42.397  1.00  0.00     0.176 C
ENDROOT
BRANCH   1   2
HETATM    2  C13 UNL     1      43.567  31.654  41.774  1.00  0.00    -0.004 C
BRANCH   2   3
HETATM    3  C12 UNL     1      42.948  32.062  40.510  1.00  0.00     0.017 C
BRANCH   3   4
HETATM    4  C11 UNL     1      43.584  32.473  39.452  1.00  0.00     0.118 C
BRANCH   4   5
HETATM    5  N3  UNL     1      44.966  32.628  39.261  1.00  0.00    -0.253 N
HETATM    6  C8  UNL     1      45.792  33.634  39.477  1.00  0.00     0.104 A
HETATM    7  N1  UNL     1      47.055  33.228  39.084  1.00  0.00    -0.339 N
HETATM    8  C9  UNL     1      46.929  31.989  38.649  1.00  0.00     0.201 A
ATOM      9  H1  UNL     1      47.914  33.777  39.123  1.00  0.00     0.168 HD
HETATM   10  N2  UNL     1      45.666  31.578  38.738  1.00  0.00    -0.285 N
HETATM   11  C10 UNL     1      45.172  30.282  38.350  1.00  0.00     0.179 C
BRANCH   6  12
HETATM   12  C7  UNL     1      45.550  34.981  40.045  1.00  0.00     0.078 C
BRANCH  12  13
HETATM   13  C6  UNL     1      45.445  34.833  41.551  1.00  0.00     0.007 C
BRANCH  13  14
HETATM   14  C5  UNL     1      44.136  35.363  42.091  1.00  0.00     0.000 C
BRANCH  14  15
HETATM   15  C4  UNL     1      43.352  36.062  40.986  1.00  0.00     0.000 C
BRANCH  15  16
HETATM   16  C3  UNL     1      41.903  35.551  41.011  1.00  0.00    -0.000 C
BRANCH  16  17
HETATM   17  C2  UNL     1      41.647  34.914  42.369  1.00  0.00    -0.005 C
HETATM   18  C1  UNL     1      40.162  34.750  42.575  1.00  0.00     0.005 C
ENDBRANCH  16  17
ENDBRANCH  15  16
ENDBRANCH  14  15
ENDBRANCH  13  14
ENDBRANCH  12  13
ENDBRANCH   6  12
ENDBRANCH   4   5
ENDBRANCH   3   4
ENDBRANCH   2   3
ENDBRANCH   1   2
BRANCH   1  19
HETATM   19  N4  UNL     1      42.958  30.341  43.797  1.00  0.00    -0.282 N
HETATM   20  C15 UNL     1      42.637  29.279  44.517  1.00  0.00     0.159 A
HETATM   21  C16 UNL     1      42.353  29.385  45.884  1.00  0.00     0.132 A
HETATM   22  N6  UNL     1      42.393  30.562  46.522  1.00  0.00    -0.175 N
HETATM   23  C17 UNL     1      42.721  31.631  45.770  1.00  0.00     0.694 A
ATOM     24  H6  UNL     1      42.188  30.644  47.518  1.00  0.00     0.186 HD
HETATM   25  N9  UNL     1      42.986  31.515  44.479  1.00  0.00    -0.130 N
ATOM     26  H9  UNL     1      43.228  32.361  43.963  1.00  0.00     0.206 HD
BRANCH  21  27
HETATM   27  N5  UNL     1      42.054  28.318  46.507  1.00  0.00    -0.384 N
ATOM     28  H52 UNL     1      42.577  27.457  46.348  1.00  0.00     0.157 HD
ATOM     29  H51 UNL     1      41.275  28.358  47.164  1.00  0.00     0.157 HD
ENDBRANCH  21  27
BRANCH  23  30
HETATM   30  N7  UNL     1      42.759  32.779  46.391  1.00  0.00    -0.216 N
ATOM     31  H7  UNL     1      42.651  32.779  47.405  1.00  0.00     0.178 HD
BRANCH  30  32
HETATM   32  C18 UNL     1      42.942  34.037  45.733  1.00  0.00     0.237 C
BRANCH  32  33
HETATM   33  C19 UNL     1      41.920  35.033  46.152  1.00  0.00     0.249 C
HETATM   34  N8  UNL     1      42.250  36.327  46.600  1.00  0.00    -0.061 NA
HETATM   35  O1  UNL     1      40.716  34.698  46.099  1.00  0.00    -0.275 OA
ENDBRANCH  32  33
ENDBRANCH  30  32
ENDBRANCH  23  30
ENDBRANCH   1  19
TORSDOF 15
ENDMDL