MODEL 4
REMARK VINA RESULT: -7.575383186      1.340      2.046
REMARK  11 active torsions:
REMARK  status: ('A' for Active; 'I' for Inactive)
REMARK    1  A    between atoms: N2_5  and  C4_6
REMARK    2  A    between atoms: C4_6  and  C5_7
REMARK    3  A    between atoms: C5_7  and  C6_8
REMARK    4  A    between atoms: C6_8  and  N3_9
REMARK    5  A    between atoms: N3_9  and  C7_10
REMARK    6  A    between atoms: C7_10  and  C8_11
REMARK    7  A    between atoms: C8_11  and  N4_12
REMARK    8  A    between atoms: N4_12  and  C9_15
REMARK    9  A    between atoms: C9_15  and  C10_16
REMARK   10  A    between atoms: C10_16  and  C11_17
REMARK   11  A    between atoms: C11_17  and  N5_18
REMARK       I    between atoms: N5_18  and  C12_20
REMARK       I    between atoms: C12_20  and  N6_22
ROOT
HETATM    1  N5  UNL     1      42.539  34.006  46.750  1.00  0.00    -0.342 N
ATOM      2  H5  UNL     1      42.594  33.258  47.441  1.00  0.00     0.164 HD
HETATM    3  C12 UNL     1      42.438  35.341  47.225  1.00  0.00     0.329 C
HETATM    4  O1  UNL     1      42.367  36.331  46.437  1.00  0.00    -0.246 OA
HETATM    5  N6  UNL     1      42.413  35.627  48.619  1.00  0.00    -0.245 N
ATOM      6  H6  UNL     1      42.468  34.854  49.283  1.00  0.00     0.183 HD
HETATM    7  C13 UNL     1      42.315  36.934  49.107  1.00  0.00     0.185 C
HETATM    8  N7  UNL     1      42.252  38.008  49.504  1.00  0.00    -0.172 NA
ENDROOT
BRANCH   1   9
HETATM    9  C11 UNL     1      42.569  33.640  45.364  1.00  0.00     0.126 C
BRANCH   9  10
HETATM   10  C10 UNL     1      41.237  33.699  44.691  1.00  0.00     0.047 C
BRANCH  10  11
HETATM   11  C9  UNL     1      41.321  34.639  43.502  1.00  0.00     0.234 C
BRANCH  11  12
HETATM   12  N4  UNL     1      42.664  35.185  43.405  1.00  0.00    -0.073 N
ATOM     13  H42 UNL     1      43.356  34.562  43.820  1.00  0.00     0.277 HD
ATOM     14  H41 UNL     1      42.790  35.988  44.021  1.00  0.00     0.277 HD
BRANCH  12  15
HETATM   15  C8  UNL     1      42.992  35.511  42.018  1.00  0.00     0.260 C
BRANCH  15  16
HETATM   16  C7  UNL     1      44.139  34.651  41.621  1.00  0.00     0.264 C
BRANCH  16  17
HETATM   17  N3  UNL     1      43.834  33.386  41.040  1.00  0.00    -0.065 N
HETATM   18  C14 UNL     1      44.876  33.023  40.049  1.00  0.00     0.237 C
HETATM   19  C15 UNL     1      44.538  33.758  38.794  1.00  0.00     0.029 C
HETATM   20  C16 UNL     1      43.023  33.630  38.794  1.00  0.00     0.029 C
HETATM   21  C17 UNL     1      42.629  33.514  40.242  1.00  0.00     0.237 C
BRANCH  17  22
HETATM   22  C6  UNL     1      43.825  32.296  41.960  1.00  0.00     0.239 C
BRANCH  22  23
HETATM   23  C5  UNL     1      42.633  31.434  42.050  1.00  0.00     0.056 C
BRANCH  23  24
HETATM   24  C4  UNL     1      42.668  30.521  43.220  1.00  0.00     0.239 C
BRANCH  24  25
HETATM   25  N2  UNL     1      42.194  29.182  42.918  1.00  0.00    -0.062 N
HETATM   26  C3  UNL     1      41.814  29.171  41.520  1.00  0.00     0.265 C
HETATM   27  C2  UNL     1      41.184  27.867  41.093  1.00  0.00     0.265 C
HETATM   28  N1  UNL     1      41.235  26.986  42.256  1.00  0.00    -0.066 N
HETATM   29  C1  UNL     1      40.724  25.708  41.868  1.00  0.00     0.272 C
HETATM   30  C19 UNL     1      40.392  27.585  43.267  1.00  0.00     0.265 C
HETATM   31  C21 UNL     1      42.603  26.847  42.675  1.00  0.00     0.265 C
HETATM   32  C18 UNL     1      41.096  28.806  43.783  1.00  0.00     0.265 C
HETATM   33  C20 UNL     1      43.222  28.174  43.085  1.00  0.00     0.265 C
ENDBRANCH  24  25
ENDBRANCH  23  24
ENDBRANCH  22  23
ENDBRANCH  17  22
ENDBRANCH  16  17
ENDBRANCH  15  16
ENDBRANCH  12  15
ENDBRANCH  11  12
ENDBRANCH  10  11
ENDBRANCH   9  10
ENDBRANCH   1   9
TORSDOF 11
ENDMDL