MODEL 4
REMARK VINA RESULT: -7.591732523      2.806      5.740
REMARK  14 active torsions:
REMARK  status: ('A' for Active; 'I' for Inactive)
REMARK    1  A    between atoms: C2_2  and  C3_3
REMARK    2  A    between atoms: C3_3  and  C4_4
REMARK    3  A    between atoms: C5_7  and  C6_8
REMARK    4  A    between atoms: C6_8  and  C7_9
REMARK    5  A    between atoms: C7_9  and  C8_10
REMARK    6  A    between atoms: C8_10  and  C9_11
REMARK       I    between atoms: C9_11  and  N2_13
REMARK    7  A    between atoms: N2_13  and  C10_15
REMARK    8  A    between atoms: C10_15  and  C11_16
REMARK    9  A    between atoms: C11_16  and  N3_17
REMARK   10  A    between atoms: N3_17  and  C14_20
REMARK   11  A    between atoms: C17_24  and  C18_25
REMARK   12  A    between atoms: C18_25  and  C19_26
REMARK   13  A    between atoms: C19_26  and  C20_27
REMARK   14  A    between atoms: C20_27  and  N4_28
ROOT
HETATM    1  C4  UNL     1      45.415  34.671  40.653  1.00  0.00     0.039 A
HETATM    2  N1  UNL     1      44.354  35.286  41.164  1.00  0.00    -0.359 N
ATOM      3  H1  UNL     1      44.378  35.880  41.993  1.00  0.00     0.166 HD
HETATM    4  C5  UNL     1      43.252  35.032  40.456  1.00  0.00     0.016 A
HETATM    5  C15 UNL     1      43.624  34.193  39.413  1.00  0.00    -0.027 A
HETATM    6  C16 UNL     1      42.692  33.656  38.365  1.00  0.00     0.051 C
HETATM    7  C17 UNL     1      44.970  33.956  39.518  1.00  0.00    -0.006 A
ENDROOT
BRANCH   4   8
HETATM    8  C6  UNL     1      41.897  35.554  40.741  1.00  0.00     0.058 C
BRANCH   8   9
HETATM    9  C7  UNL     1      40.967  34.516  41.262  1.00  0.00     0.015 C
BRANCH   9  10
HETATM   10  C8  UNL     1      40.502  34.840  42.643  1.00  0.00     0.103 C
BRANCH  10  11
HETATM   11  C9  UNL     1      40.946  33.865  43.667  1.00  0.00     0.217 C
HETATM   12  O1  UNL     1      40.583  33.894  44.866  1.00  0.00    -0.274 OA
HETATM   13  N2  UNL     1      41.848  32.802  43.317  1.00  0.00    -0.359 N
ATOM     14  H2  UNL     1      42.164  32.757  42.348  1.00  0.00     0.162 HD
BRANCH  13  15
HETATM   15  C10 UNL     1      42.340  31.805  44.212  1.00  0.00     0.151 C
BRANCH  15  16
HETATM   16  C11 UNL     1      41.625  30.509  44.040  1.00  0.00     0.265 C
BRANCH  16  17
HETATM   17  N3  UNL     1      42.304  29.354  44.572  1.00  0.00    -0.019 N
HETATM   18  C12 UNL     1      42.479  28.353  43.512  1.00  0.00     0.281 C
HETATM   19  C13 UNL     1      43.632  29.793  45.024  1.00  0.00     0.281 C
BRANCH  17  20
HETATM   20  C14 UNL     1      41.596  28.710  45.605  1.00  0.00     0.458 C
HETATM   21  O2  UNL     1      41.752  28.969  46.792  1.00  0.00    -0.276 OA
ENDBRANCH  17  20
ENDBRANCH  16  17
ENDBRANCH  15  16
ENDBRANCH  13  15
ENDBRANCH  10  11
ENDBRANCH   9  10
ENDBRANCH   8   9
ENDBRANCH   4   8
BRANCH   1  22
HETATM   22  C3  UNL     1      46.649  34.727  41.133  1.00  0.00     0.003 C
BRANCH  22  23
HETATM   23  C2  UNL     1      47.100  33.702  42.097  1.00  0.00     0.025 C
HETATM   24  C1  UNL     1      45.970  33.297  43.033  1.00  0.00     0.009 C
ENDBRANCH  22  23
ENDBRANCH   1  22
BRANCH   7  25
HETATM   25  C18 UNL     1      45.777  33.241  38.791  1.00  0.00    -0.011 C
BRANCH  25  26
HETATM   26  C19 UNL     1      46.175  31.841  39.039  1.00  0.00     0.047 C
BRANCH  26  27
HETATM   27  C20 UNL     1      45.141  31.155  39.945  1.00  0.00     0.126 C
BRANCH  27  28
HETATM   28  N4  UNL     1      44.219  30.400  39.124  1.00  0.00    -0.367 N
HETATM   29  C21 UNL     1      42.983  30.302  39.454  1.00  0.00     0.196 C
HETATM   30  N5  UNL     1      42.525  30.941  40.633  1.00  0.00    -0.067 NA
HETATM   31  N6  UNL     1      42.073  29.569  38.661  1.00  0.00    -0.067 NA
ATOM     32  H4  UNL     1      44.555  29.943  38.276  1.00  0.00     0.161 HD
ENDBRANCH  27  28
ENDBRANCH  26  27
ENDBRANCH  25  26
ENDBRANCH   7  25
TORSDOF 14
ENDMDL