MODEL 4
REMARK VINA RESULT: -7.465557411      2.047      2.755
REMARK  11 active torsions:
REMARK  status: ('A' for Active; 'I' for Inactive)
REMARK    1  A    between atoms: C2_2  and  C3_3
REMARK    2  A    between atoms: N1_5  and  C5_7
REMARK    3  A    between atoms: C5_7  and  C6_8
REMARK    4  A    between atoms: C5_7  and  C8_15
REMARK    5  A    between atoms: C6_8  and  N2_9
REMARK    6  A    between atoms: N2_9  and  C7_11
REMARK    7  A    between atoms: C8_15  and  N4_16
REMARK    8  A    between atoms: C12_22  and  N6_23
REMARK       I    between atoms: N6_23  and  C13_25
REMARK    9  A    between atoms: C16_29  and  C17_30
REMARK   10  A    between atoms: C17_30  and  C18_31
REMARK   11  A    between atoms: C18_31  and  C19_32
REMARK       I    between atoms: C19_32  and  N7_34
ROOT
HETATM    1  C3  UNL     1      43.601  34.748  43.198  1.00  0.00     0.079 C
HETATM    2  C4  UNL     1      43.331  33.476  42.365  1.00  0.00     0.083 C
HETATM    3  N1  UNL     1      43.852  33.436  41.262  1.00  0.00    -0.371 N
ATOM      4  H1  UNL     1      44.379  34.299  41.129  1.00  0.00     0.161 HD
HETATM    5  N5  UNL     1      42.509  32.510  42.978  1.00  0.00    -0.358 N
ATOM      6  H5  UNL     1      41.773  32.065  42.432  1.00  0.00     0.162 HD
HETATM    7  C12 UNL     1      42.689  32.128  44.384  1.00  0.00     0.185 C
HETATM    8  C15 UNL     1      43.617  33.098  45.064  1.00  0.00     0.052 C
HETATM    9  C16 UNL     1      43.325  34.543  44.607  1.00  0.00     0.004 C
ENDROOT
BRANCH   1  10
HETATM   10  C2  UNL     1      42.921  35.802  42.477  1.00  0.00    -0.024 C
HETATM   11  C1  UNL     1      43.612  36.537  41.598  1.00  0.00     0.008 C
ENDBRANCH   1  10
BRANCH   3  12
HETATM   12  C5  UNL     1      43.999  32.660  40.120  1.00  0.00     0.126 C
BRANCH  12  13
HETATM   13  C6  UNL     1      44.514  33.635  39.038  1.00  0.00     0.147 C
BRANCH  13  14
HETATM   14  N2  UNL     1      45.981  33.530  39.107  1.00  0.00    -0.384 N
ATOM     15  H2  UNL     1      46.449  32.638  38.953  1.00  0.00     0.160 HD
BRANCH  14  16
HETATM   16  C7  UNL     1      46.733  34.714  39.397  1.00  0.00     0.168 C
HETATM   17  N3  UNL     1      46.911  35.044  40.634  1.00  0.00    -0.396 N
ATOM     18  H32 UNL     1      46.518  34.464  41.376  1.00  0.00     0.156 HD
ATOM     19  H31 UNL     1      47.447  35.888  40.841  1.00  0.00     0.156 HD
ENDBRANCH  14  16
ENDBRANCH  13  14
ENDBRANCH  12  13
BRANCH  12  20
HETATM   20  C8  UNL     1      44.934  31.527  40.329  1.00  0.00     0.262 C
BRANCH  20  21
HETATM   21  N4  UNL     1      44.495  30.246  39.825  1.00  0.00    -0.077 N
HETATM   22  C9  UNL     1      44.972  29.917  38.522  1.00  0.00     0.271 C
HETATM   23  C10 UNL     1      43.028  30.360  39.698  1.00  0.00     0.271 C
HETATM   24  C11 UNL     1      44.727  29.247  40.832  1.00  0.00     0.271 C
ENDBRANCH  20  21
ENDBRANCH  12  20
ENDBRANCH   3  12
BRANCH   9  25
HETATM   25  C17 UNL     1      42.123  35.068  45.293  1.00  0.00     0.015 C
BRANCH  25  26
HETATM   26  C18 UNL     1      42.314  35.541  46.675  1.00  0.00     0.103 C
BRANCH  26  27
HETATM   27  C19 UNL     1      41.054  35.319  47.500  1.00  0.00     0.219 C
HETATM   28  O2  UNL     1      40.010  34.862  46.997  1.00  0.00    -0.273 OA
HETATM   29  N7  UNL     1      41.113  35.651  48.860  1.00  0.00    -0.361 N
HETATM   30  C20 UNL     1      39.959  35.470  49.714  1.00  0.00     0.152 C
HETATM   31  C21 UNL     1      42.319  36.180  49.452  1.00  0.00     0.152 C
ENDBRANCH  26  27
ENDBRANCH  25  26
ENDBRANCH   9  25
BRANCH   7  32
HETATM   32  N6  UNL     1      43.358  30.828  44.362  1.00  0.00    -0.340 N
HETATM   33  C13 UNL     1      43.216  29.887  45.398  1.00  0.00     0.215 C
HETATM   34  C14 UNL     1      43.905  28.590  45.339  1.00  0.00     0.117 C
HETATM   35  O1  UNL     1      42.491  30.163  46.379  1.00  0.00    -0.274 OA
ATOM     36  H6  UNL     1      43.950  30.594  43.566  1.00  0.00     0.164 HD
ENDBRANCH   7  32
TORSDOF 11
ENDMDL