MODEL 1
REMARK VINA RESULT: -5.721371532      0.000      0.000
REMARK  7 active torsions:
REMARK  status: ('A' for Active; 'I' for Inactive)
REMARK    1  A    between atoms: C4_9  and  N4_10
REMARK    2  A    between atoms: C5_15  and  N6_16
REMARK    3  A    between atoms: N6_16  and  C6_18
REMARK    4  A    between atoms: C6_18  and  C7_19
REMARK    5  A    between atoms: C7_19  and  N7_20
REMARK    6  A    between atoms: C7_19  and  C8_24
REMARK    7  A    between atoms: C8_24  and  N8_25
ROOT
HETATM    1  C1  UNL     1      -2.090  -9.179   4.376  1.00  0.00     0.157 C
HETATM    2  N1  UNL     1      -2.570  -9.411   3.029  1.00  0.00    -0.341 N
HETATM    3  C2  UNL     1      -3.483 -10.339   2.627  1.00  0.00     0.184 A
HETATM    4  N2  UNL     1      -3.635 -10.208   1.308  1.00  0.00    -0.336 N
ATOM      5  H2  UNL     1      -4.255 -10.766   0.721  1.00  0.00     0.168 HD
HETATM    6  C3  UNL     1      -2.831  -9.213   0.882  1.00  0.00     0.152 A
HETATM    7  N3  UNL     1      -2.618  -8.696  -0.344  1.00  0.00    -0.174 N
ATOM      8  H3  UNL     1      -3.113  -9.064  -1.157  1.00  0.00     0.186 HD
HETATM    9  C4  UNL     1      -1.741  -7.687  -0.473  1.00  0.00     0.679 A
HETATM   10  N5  UNL     1      -1.069  -7.176   0.582  1.00  0.00    -0.175 N
ATOM     11  H5  UNL     1      -0.413  -6.409   0.430  1.00  0.00     0.186 HD
HETATM   12  C5  UNL     1      -1.243  -7.655   1.831  1.00  0.00     0.148 A
HETATM   13  C9  UNL     1      -2.142  -8.693   1.974  1.00  0.00     0.125 A
ENDROOT
BRANCH  12  14
HETATM   14  N6  UNL     1      -0.638  -7.216   2.868  1.00  0.00    -0.372 N
ATOM     15  H6  UNL     1      -1.090  -7.374   3.768  1.00  0.00     0.161 HD
BRANCH  14  16
HETATM   16  C6  UNL     1       0.611  -6.526   2.884  1.00  0.00     0.155 C
BRANCH  16  17
HETATM   17  C7  UNL     1       0.566  -5.150   3.470  1.00  0.00     0.226 C
BRANCH  17  18
HETATM   18  N7  UNL     1       1.962  -4.699   3.596  1.00  0.00    -0.072 N
ATOM     19  H73 UNL     1       2.526  -5.300   4.197  1.00  0.00     0.274 HD
ATOM     20  H72 UNL     1       2.504  -4.827   2.742  1.00  0.00     0.274 HD
ATOM     21  H71 UNL     1       1.929  -3.730   3.911  1.00  0.00     0.274 HD
ENDBRANCH  17  18
BRANCH  17  22
HETATM   22  C8  UNL     1      -0.119  -4.142   2.586  1.00  0.00     0.264 C
BRANCH  22  23
HETATM   23  N8  UNL     1      -1.463  -3.849   2.963  1.00  0.00    -0.077 N
ATOM     24  H83 UNL     1      -1.955  -3.388   2.198  1.00  0.00     0.274 HD
ATOM     25  H82 UNL     1      -2.009  -4.708   3.029  1.00  0.00     0.274 HD
ATOM     26  H81 UNL     1      -1.549  -3.304   3.821  1.00  0.00     0.274 HD
ENDBRANCH  22  23
ENDBRANCH  17  22
ENDBRANCH  16  17
ENDBRANCH  14  16
ENDBRANCH  12  14
BRANCH   9  27
HETATM   27  N4  UNL     1      -1.552  -7.204  -1.666  1.00  0.00    -0.234 N
ATOM     28  H42 UNL     1      -0.995  -7.721  -2.347  1.00  0.00     0.174 HD
ATOM     29  H41 UNL     1      -1.978  -6.303  -1.883  1.00  0.00     0.174 HD
ENDBRANCH   9  27
TORSDOF 7
ENDMDL