MODEL 4
REMARK VINA RESULT: -5.549764314      2.079      3.078
REMARK  6 active torsions:
REMARK  status: ('A' for Active; 'I' for Inactive)
REMARK    1  A    between atoms: C4_7  and  N3_8
REMARK    2  A    between atoms: N3_8  and  N4_10
REMARK    3  A    between atoms: N4_10  and  N5_11
REMARK    4  A    between atoms: N4_10  and  C5_14
REMARK    5  A    between atoms: C5_14  and  C6_15
REMARK    6  A    between atoms: C6_15  and  N6_16
ROOT
HETATM    1  C1  UNL     1      -0.330 -11.020   3.692  1.00  0.00     0.158 C
HETATM    2  N1  UNL     1      -0.282  -9.799   2.934  1.00  0.00    -0.331 N
HETATM    3  C2  UNL     1       0.653  -8.837   3.066  1.00  0.00     0.184 A
HETATM    4  N2  UNL     1       0.346  -7.870   2.186  1.00  0.00    -0.346 N
ATOM      5  H2  UNL     1       0.882  -7.011   2.061  1.00  0.00     0.167 HD
HETATM    6  C3  UNL     1      -0.769  -8.185   1.486  1.00  0.00     0.125 A
HETATM    7  C4  UNL     1      -1.500  -7.581   0.498  1.00  0.00     0.167 A
HETATM    8  N7  UNL     1      -2.584  -8.196   0.019  1.00  0.00    -0.173 N
ATOM      9  H7  UNL     1      -3.134  -7.753  -0.717  1.00  0.00     0.186 HD
HETATM   10  C7  UNL     1      -2.964  -9.418   0.508  1.00  0.00     0.679 A
HETATM   11  N8  UNL     1      -3.998 -10.002   0.050  1.00  0.00    -0.234 N
ATOM     12  H81 UNL     1      -4.281 -10.911   0.414  1.00  0.00     0.174 HD
ATOM     13  H82 UNL     1      -4.531  -9.538  -0.686  1.00  0.00     0.174 HD
HETATM   14  N9  UNL     1      -2.259 -10.031   1.480  1.00  0.00    -0.174 N
ATOM     15  H9  UNL     1      -2.555 -10.941   1.831  1.00  0.00     0.186 HD
HETATM   16  C8  UNL     1      -1.163  -9.436   1.984  1.00  0.00     0.154 A
ENDROOT
BRANCH   7  17
HETATM   17  N3  UNL     1      -1.151  -6.448   0.042  1.00  0.00    -0.267 N
ATOM     18  H3  UNL     1      -1.196  -6.322  -0.969  1.00  0.00     0.190 HD
BRANCH  17  19
HETATM   19  N4  UNL     1      -0.718  -5.374   0.788  1.00  0.00    -0.238 N
BRANCH  19  20
HETATM   20  N5  UNL     1       0.481  -4.751   0.505  1.00  0.00    -0.329 N
ATOM     21  H52 UNL     1       0.745  -3.897   0.996  1.00  0.00     0.178 HD
ATOM     22  H51 UNL     1       1.117  -5.131  -0.197  1.00  0.00     0.178 HD
ENDBRANCH  19  20
BRANCH  19  23
HETATM   23  C5  UNL     1      -1.544  -4.903   1.881  1.00  0.00     0.196 C
BRANCH  23  24
HETATM   24  C6  UNL     1      -0.727  -4.224   2.958  1.00  0.00     0.253 C
BRANCH  24  25
HETATM   25  N6  UNL     1      -0.479  -5.202   4.001  1.00  0.00    -0.078 N
ATOM     26  H63 UNL     1       0.040  -6.015   3.668  1.00  0.00     0.274 HD
ATOM     27  H62 UNL     1       0.201  -4.883   4.690  1.00  0.00     0.274 HD
ATOM     28  H61 UNL     1      -1.379  -5.445   4.413  1.00  0.00     0.274 HD
ENDBRANCH  24  25
ENDBRANCH  23  24
ENDBRANCH  19  23
ENDBRANCH  17  19
ENDBRANCH   7  17
TORSDOF 6
ENDMDL