MODEL 5
REMARK VINA RESULT: -6.052714806      1.139      1.139
REMARK  4 active torsions:
REMARK  status: ('A' for Active; 'I' for Inactive)
REMARK    1  A    between atoms: N1_1  and  C1_4
REMARK    2  A    between atoms: C4_9  and  N3_10
REMARK    3  A    between atoms: C6_14  and  C7_15
REMARK       I    between atoms: C7_15  and  N5_17
REMARK    4  A    between atoms: N5_17  and  N6_19
ROOT
HETATM    1  N3  UNL     1      -1.786  -7.696   2.599  1.00  0.00    -0.203 N
HETATM    2  N4  UNL     1      -2.274  -8.191   3.719  1.00  0.00    -0.300 N
ATOM      3  H4  UNL     1      -2.046  -7.844   4.651  1.00  0.00     0.186 HD
HETATM    4  C5  UNL     1      -3.121  -9.225   3.468  1.00  0.00     0.130 A
HETATM    5  C6  UNL     1      -3.161  -9.381   2.103  1.00  0.00     0.120 A
HETATM    6  C8  UNL     1      -2.326  -8.422   1.585  1.00  0.00     0.285 A
HETATM    7  O2  UNL     1      -2.089  -8.235   0.357  1.00  0.00    -0.265 OA
ENDROOT
BRANCH   1   8
HETATM    8  C4  UNL     1      -0.873  -6.609   2.524  1.00  0.00     0.147 A
HETATM    9  C3  UNL     1      -0.376  -6.117   3.710  1.00  0.00     0.068 A
HETATM   10  C2  UNL     1       0.516  -5.057   3.663  1.00  0.00     0.110 A
HETATM   11  N2  UNL     1       0.872  -4.538   2.475  1.00  0.00    -0.202 N
HETATM   12  C1  UNL     1       0.394  -5.007   1.311  1.00  0.00     0.677 A
ATOM     13  H2  UNL     1       1.529  -3.758   2.457  1.00  0.00     0.183 HD
HETATM   14  N7  UNL     1      -0.480  -6.049   1.369  1.00  0.00    -0.175 N
ATOM     15  H7  UNL     1      -0.854  -6.421   0.496  1.00  0.00     0.186 HD
BRANCH  12  16
HETATM   16  N1  UNL     1       0.740  -4.503   0.168  1.00  0.00    -0.234 N
ATOM     17  H12 UNL     1       0.472  -3.551  -0.079  1.00  0.00     0.174 HD
ATOM     18  H11 UNL     1       1.282  -5.029  -0.517  1.00  0.00     0.174 HD
ENDBRANCH  12  16
ENDBRANCH   1   8
BRANCH   5  19
HETATM   19  C7  UNL     1      -3.948 -10.380   1.390  1.00  0.00     0.276 C
HETATM   20  O1  UNL     1      -4.484 -10.106   0.266  1.00  0.00    -0.266 OA
HETATM   21  N5  UNL     1      -4.130 -11.661   1.931  1.00  0.00    -0.272 N
ATOM     22  H5  UNL     1      -3.711 -11.905   2.828  1.00  0.00     0.189 HD
BRANCH  21  23
HETATM   23  N6  UNL     1      -4.886 -12.601   1.233  1.00  0.00    -0.342 N
ATOM     24  H62 UNL     1      -5.073 -12.453   0.242  1.00  0.00     0.176 HD
ATOM     25  H61 UNL     1      -5.244 -13.422   1.721  1.00  0.00     0.176 HD
ENDBRANCH  21  23
ENDBRANCH   5  19
TORSDOF 4
ENDMDL