MODEL 2
REMARK VINA RESULT: -5.181967863      2.068      2.787
REMARK  7 active torsions:
REMARK  status: ('A' for Active; 'I' for Inactive)
REMARK    1  A    between atoms: C2_2  and  N1_3
REMARK    2  A    between atoms: C2_2  and  C8_20
REMARK    3  A    between atoms: N1_3  and  C3_5
REMARK    4  A    between atoms: C4_8  and  N3_9
REMARK    5  A    between atoms: C7_14  and  N5_15
REMARK    6  A    between atoms: C8_20  and  N7_21
REMARK    7  A    between atoms: C8_20  and  N8_25
ROOT
HETATM    1  C3  UNL     1      -0.662  -7.613   2.196  1.00  0.00     0.707 A
HETATM    2  N2  UNL     1      -1.634  -8.377   2.725  1.00  0.00    -0.021 N
ATOM      3  H2  UNL     1      -1.587  -8.613   3.716  1.00  0.00     0.203 HD
HETATM    4  C4  UNL     1      -2.666  -8.842   1.999  1.00  0.00     0.708 A
HETATM    5  N4  UNL     1      -2.669  -8.493   0.695  1.00  0.00    -0.022 N
ATOM      6  H4  UNL     1      -3.433  -8.823   0.103  1.00  0.00     0.203 HD
HETATM    7  C7  UNL     1      -1.716  -7.734   0.143  1.00  0.00     0.705 A
HETATM    8  N6  UNL     1      -0.699  -7.286   0.895  1.00  0.00    -0.022 N
ATOM      9  H6  UNL     1       0.033  -6.706   0.484  1.00  0.00     0.203 HD
ENDROOT
BRANCH   1  10
HETATM   10  N1  UNL     1       0.324  -7.175   2.915  1.00  0.00    -0.217 N
ATOM     11  H1  UNL     1       0.424  -7.571   3.850  1.00  0.00     0.178 HD
BRANCH  10  12
HETATM   12  C2  UNL     1       1.278  -6.197   2.525  1.00  0.00     0.153 C
HETATM   13  C1  UNL     1       2.705  -6.673   2.538  1.00  0.00     0.037 C
BRANCH  12  14
HETATM   14  C8  UNL     1       1.211  -4.974   3.423  1.00  0.00     0.400 C
BRANCH  14  15
HETATM   15  N7  UNL     1       2.528  -4.533   3.801  1.00  0.00    -0.048 N
ATOM     16  H73 UNL     1       2.935  -5.137   4.515  1.00  0.00     0.276 HD
ATOM     17  H72 UNL     1       3.206  -4.694   3.055  1.00  0.00     0.276 HD
ATOM     18  H71 UNL     1       2.519  -3.557   4.096  1.00  0.00     0.276 HD
ENDBRANCH  14  15
BRANCH  14  19
HETATM   19  N8  UNL     1       0.516  -3.872   2.797  1.00  0.00    -0.048 N
ATOM     20  H83 UNL     1       1.153  -3.102   2.597  1.00  0.00     0.276 HD
ATOM     21  H82 UNL     1       0.238  -4.106   1.844  1.00  0.00     0.276 HD
ATOM     22  H81 UNL     1      -0.283  -3.556   3.347  1.00  0.00     0.276 HD
ENDBRANCH  14  19
ENDBRANCH  12  14
ENDBRANCH  10  12
ENDBRANCH   1  10
BRANCH   4  23
HETATM   23  N3  UNL     1      -3.696  -9.648   2.542  1.00  0.00    -0.225 N
HETATM   24  C5  UNL     1      -4.362 -10.677   1.801  1.00  0.00     0.168 C
HETATM   25  C6  UNL     1      -4.107  -9.430   3.916  1.00  0.00     0.168 C
ENDBRANCH   4  23
BRANCH   7  26
HETATM   26  N5  UNL     1      -1.768  -7.428  -1.117  1.00  0.00    -0.234 N
ATOM     27  H52 UNL     1      -2.418  -6.708  -1.435  1.00  0.00     0.174 HD
ATOM     28  H51 UNL     1      -1.163  -7.900  -1.789  1.00  0.00     0.174 HD
ENDBRANCH   7  26
TORSDOF 7
ENDMDL