MODEL 1
REMARK VINA RESULT: -6.452845890      0.000      0.000
REMARK  5 active torsions:
REMARK  status: ('A' for Active; 'I' for Inactive)
REMARK       I    between atoms: N1_1  and  C1_4
REMARK       I    between atoms: C1_4  and  N3_6
REMARK    1  A    between atoms: N3_6  and  N4_8
REMARK    2  A    between atoms: N4_8  and  C2_10
REMARK    3  A    between atoms: C2_10  and  N5_11
REMARK    4  A    between atoms: N5_11  and  N6_13
REMARK    5  A    between atoms: N6_13  and  C3_15
ROOT
HETATM    1  C3  UNL     1      -1.603  -7.994   1.825  1.00  0.00     0.713 A
HETATM    2  N7  UNL     1      -2.251  -8.968   1.158  1.00  0.00    -0.170 N
ATOM      3  H7  UNL     1      -1.999  -9.169   0.191  1.00  0.00     0.186 HD
HETATM    4  C4  UNL     1      -3.241  -9.688   1.760  1.00  0.00     0.168 A
HETATM    5  N8  UNL     1      -4.040 -10.690   1.359  1.00  0.00    -0.335 N
ATOM      6  H8  UNL     1      -4.023 -11.112   0.431  1.00  0.00     0.168 HD
HETATM    7  C5  UNL     1      -4.865 -11.057   2.353  1.00  0.00     0.183 A
HETATM    8  N9  UNL     1      -4.597 -10.278   3.424  1.00  0.00    -0.334 N
ATOM      9  H9  UNL     1      -5.061 -10.320   4.331  1.00  0.00     0.168 HD
HETATM   10  C6  UNL     1      -3.596  -9.429   3.069  1.00  0.00     0.167 A
HETATM   11  N10 UNL     1      -2.926  -8.449   3.703  1.00  0.00    -0.268 N
ATOM     12  H10 UNL     1      -3.163  -8.232   4.671  1.00  0.00     0.189 HD
HETATM   13  N11 UNL     1      -1.957  -7.752   3.097  1.00  0.00    -0.129 N
ATOM     14  H11 UNL     1      -1.474  -7.017   3.615  1.00  0.00     0.205 HD
ENDROOT
BRANCH   1  15
HETATM   15  N6  UNL     1      -0.660  -7.278   1.314  1.00  0.00    -0.130 N
ATOM     16  H6  UNL     1       0.278  -7.361   1.707  1.00  0.00     0.205 HD
BRANCH  15  17
HETATM   17  N5  UNL     1      -0.855  -6.404   0.262  1.00  0.00    -0.281 N
ATOM     18  H5  UNL     1      -1.207  -6.747  -0.632  1.00  0.00     0.188 HD
BRANCH  17  19
HETATM   19  C2  UNL     1      -0.562  -5.032   0.431  1.00  0.00     0.214 C
BRANCH  19  20
HETATM   20  N4  UNL     1       0.520  -4.685   1.030  1.00  0.00    -0.293 N
ATOM     21  H4  UNL     1       1.423  -4.832   0.580  1.00  0.00     0.187 HD
BRANCH  20  22
HETATM   22  N3  UNL     1       0.458  -4.111   2.293  1.00  0.00    -0.273 N
HETATM   23  C1  UNL     1       0.975  -4.799   3.415  1.00  0.00     0.200 C
HETATM   24  N1  UNL     1       2.220  -4.689   3.739  1.00  0.00    -0.372 N
HETATM   25  N2  UNL     1       0.124  -5.624   4.203  1.00  0.00    -0.062 NA
ATOM     26  H12 UNL     1       2.592  -5.184   4.548  1.00  0.00     0.158 HD
ATOM     27  H11 UNL     1       2.830  -4.098   3.175  1.00  0.00     0.158 HD
ATOM     28  H3  UNL     1       0.038  -3.189   2.412  1.00  0.00     0.189 HD
ENDBRANCH  20  22
ENDBRANCH  19  20
ENDBRANCH  17  19
ENDBRANCH  15  17
ENDBRANCH   1  15
TORSDOF 5
ENDMDL