MODEL 4
REMARK VINA RESULT: -5.694491488      1.274      5.882
REMARK  7 active torsions:
REMARK  status: ('A' for Active; 'I' for Inactive)
REMARK    1  A    between atoms: N1_1  and  C1_4
REMARK    2  A    between atoms: C1_4  and  C2_5
REMARK    3  A    between atoms: C1_4  and  N5_14
REMARK    4  A    between atoms: C2_5  and  C3_6
REMARK    5  A    between atoms: C3_6  and  N2_7
REMARK    6  A    between atoms: N5_14  and  C6_16
REMARK    7  A    between atoms: C7_21  and  N8_22
ROOT
HETATM    1  C1  UNL     1      -1.477  -5.534   1.127  1.00  0.00     0.092 C
ENDROOT
BRANCH   1   2
HETATM    2  N1  UNL     1      -0.784  -5.414   0.052  1.00  0.00    -0.388 N
ATOM      3  H12 UNL     1      -0.772  -4.500  -0.399  1.00  0.00     0.157 HD
ATOM      4  H11 UNL     1      -0.271  -6.213  -0.320  1.00  0.00     0.157 HD
ENDBRANCH   1   2
BRANCH   1   5
HETATM    5  C2  UNL     1      -1.024  -4.904   2.370  1.00  0.00     0.097 C
BRANCH   5   6
HETATM    6  C3  UNL     1      -0.417  -5.882   3.348  1.00  0.00     0.138 C
BRANCH   6   7
HETATM    7  N2  UNL     1       1.021  -5.783   3.228  1.00  0.00    -0.337 N
HETATM    8  C4  UNL     1       1.782  -6.648   2.538  1.00  0.00     0.200 A
HETATM    9  N3  UNL     1       3.073  -6.264   2.633  1.00  0.00    -0.295 N
HETATM   10  N4  UNL     1       3.060  -5.174   3.382  1.00  0.00    -0.295 N
ATOM     11  H3  UNL     1       3.885  -6.719   2.217  1.00  0.00     0.187 HD
HETATM   12  C5  UNL     1       1.815  -4.852   3.763  1.00  0.00     0.200 A
ATOM     13  H4  UNL     1       3.893  -4.643   3.636  1.00  0.00     0.187 HD
ENDBRANCH   6   7
ENDBRANCH   5   6
ENDBRANCH   1   5
BRANCH   1  14
HETATM   14  N5  UNL     1      -2.672  -6.289   1.051  1.00  0.00    -0.179 N
ATOM     15  H5  UNL     1      -3.557  -5.781   1.092  1.00  0.00     0.185 HD
BRANCH  14  16
HETATM   16  C6  UNL     1      -2.720  -7.557   0.934  1.00  0.00     0.713 A
HETATM   17  N6  UNL     1      -3.141  -8.193  -0.172  1.00  0.00    -0.117 N
HETATM   18  N7  UNL     1      -3.068  -9.497   0.025  1.00  0.00    -0.118 N
ATOM     19  H6  UNL     1      -3.464  -7.741  -1.027  1.00  0.00     0.206 HD
HETATM   20  C7  UNL     1      -2.599  -9.734   1.267  1.00  0.00     0.705 A
ATOM     21  H7  UNL     1      -3.327 -10.212  -0.655  1.00  0.00     0.206 HD
HETATM   22  N9  UNL     1      -2.390  -8.516   1.811  1.00  0.00    -0.020 N
ATOM     23  H9  UNL     1      -2.033  -8.349   2.752  1.00  0.00     0.203 HD
BRANCH  20  24
HETATM   24  N8  UNL     1      -2.418 -10.902   1.748  1.00  0.00    -0.233 N
ATOM     25  H82 UNL     1      -2.993 -11.743   1.687  1.00  0.00     0.174 HD
ATOM     26  H81 UNL     1      -1.606 -11.168   2.304  1.00  0.00     0.174 HD
ENDBRANCH  20  24
ENDBRANCH  14  16
ENDBRANCH   1  14
TORSDOF 7
ENDMDL