MODEL 3
REMARK VINA RESULT: -5.989526919      2.182      6.495
REMARK  5 active torsions:
REMARK  status: ('A' for Active; 'I' for Inactive)
REMARK    1  A    between atoms: C2_3  and  C4_11
REMARK    2  A    between atoms: N2_4  and  N3_6
REMARK    3  A    between atoms: C6_13  and  C7_14
REMARK    4  A    between atoms: C7_14  and  N6_15
REMARK    5  A    between atoms: C8_19  and  N7_20
ROOT
HETATM    1  N1  UNL     1      -1.496  -6.389  -0.680  1.00  0.00    -0.190 NA
HETATM    2  C1  UNL     1      -1.883  -6.830   0.308  1.00  0.00     0.121 C
HETATM    3  C2  UNL     1      -2.358  -7.377   1.568  1.00  0.00     0.156 C
HETATM    4  N2  UNL     1      -2.106  -6.705   2.648  1.00  0.00    -0.287 N
ATOM      5  H2  UNL     1      -2.436  -7.091   3.533  1.00  0.00     0.188 HD
ENDROOT
BRANCH   3   6
HETATM    6  C4  UNL     1      -3.072  -8.624   1.571  1.00  0.00     0.087 A
HETATM    7  C5  UNL     1      -3.496  -9.271   2.715  1.00  0.00     0.046 A
HETATM    8  C6  UNL     1      -4.205 -10.407   2.665  1.00  0.00     0.014 A
HETATM    9  C8  UNL     1      -4.519 -10.940   1.425  1.00  0.00     0.121 A
HETATM   10  N8  UNL     1      -4.109 -10.308   0.300  1.00  0.00    -0.285 N
HETATM   11  N9  UNL     1      -3.413  -9.195   0.364  1.00  0.00    -0.296 N
ATOM     12  H8  UNL     1      -4.343 -10.702  -0.611  1.00  0.00     0.188 HD
ATOM     13  H9  UNL     1      -3.118  -8.743  -0.501  1.00  0.00     0.187 HD
BRANCH   8  14
HETATM   14  C7  UNL     1      -4.752 -11.121   3.849  1.00  0.00     0.272 C
BRANCH  14  15
HETATM   15  N6  UNL     1      -5.755 -10.327   4.562  1.00  0.00    -0.075 N
ATOM     16  H63 UNL     1      -5.713  -9.346   4.285  1.00  0.00     0.274 HD
ATOM     17  H62 UNL     1      -6.697 -10.547   4.238  1.00  0.00     0.274 HD
ATOM     18  H61 UNL     1      -5.679 -10.427   5.574  1.00  0.00     0.274 HD
ENDBRANCH  14  15
ENDBRANCH   8  14
BRANCH   9  19
HETATM   19  N7  UNL     1      -5.189 -12.040   1.388  1.00  0.00    -0.384 N
ATOM     20  H72 UNL     1      -6.069 -12.157   1.892  1.00  0.00     0.157 HD
ATOM     21  H71 UNL     1      -4.823 -12.808   0.826  1.00  0.00     0.157 HD
ENDBRANCH   9  19
ENDBRANCH   3   6
BRANCH   4  22
HETATM   22  N3  UNL     1      -1.456  -5.561   2.684  1.00  0.00    -0.275 N
HETATM   23  C3  UNL     1      -0.626  -4.883   3.195  1.00  0.00     0.215 C
HETATM   24  N4  UNL     1       0.181  -5.287   4.305  1.00  0.00    -0.065 NA
HETATM   25  N5  UNL     1      -0.358  -3.513   2.723  1.00  0.00    -0.065 NA
ATOM     26  H3  UNL     1      -1.842  -4.999   1.925  1.00  0.00     0.189 HD
ENDBRANCH   4  22
TORSDOF 5
ENDMDL