MODEL 1
REMARK VINA RESULT: -6.040772913      0.000      0.000
REMARK  3 active torsions:
REMARK  status: ('A' for Active; 'I' for Inactive)
REMARK    1  A    between atoms: C1_4  and  C2_5
REMARK       I    between atoms: C2_5  and  N2_7
REMARK    2  A    between atoms: N2_7  and  N3_9
REMARK    3  A    between atoms: C3_11  and  C4_12
ROOT
HETATM    1  C4  UNL     1      -2.964  -9.280   2.017  1.00  0.00     0.090 A
HETATM    2  C5  UNL     1      -3.243  -9.680   0.729  1.00  0.00     0.137 A
HETATM    3  N4  UNL     1      -2.466  -9.236  -0.356  1.00  0.00    -0.081 NA
HETATM    4  N5  UNL     1      -4.270 -10.506   0.483  1.00  0.00    -0.296 N
ATOM      5  H5  UNL     1      -4.470 -10.797  -0.474  1.00  0.00     0.171 HD
HETATM    6  C6  UNL     1      -5.047 -10.958   1.502  1.00  0.00     0.328 A
HETATM    7  O2  UNL     1      -6.014 -11.739   1.256  1.00  0.00    -0.247 OA
HETATM    8  N6  UNL     1      -4.795 -10.583   2.766  1.00  0.00    -0.275 N
ATOM      9  H6  UNL     1      -5.380 -10.925   3.528  1.00  0.00     0.173 HD
HETATM   10  C7  UNL     1      -3.774  -9.760   3.018  1.00  0.00     0.264 A
HETATM   11  O3  UNL     1      -3.552  -9.415   4.224  1.00  0.00    -0.267 OA
ENDROOT
BRANCH   1  12
HETATM   12  C3  UNL     1      -1.847  -8.376   2.319  1.00  0.00     0.127 C
HETATM   13  N3  UNL     1      -2.112  -7.266   2.900  1.00  0.00    -0.308 N
ATOM     14  H3  UNL     1      -3.081  -7.050   3.131  1.00  0.00     0.186 HD
BRANCH  13  15
HETATM   15  N2  UNL     1      -1.122  -6.343   3.226  1.00  0.00    -0.266 N
HETATM   16  C2  UNL     1      -0.977  -5.161   2.466  1.00  0.00     0.274 C
HETATM   17  O1  UNL     1      -1.744  -4.927   1.481  1.00  0.00    -0.265 OA
ATOM     18  H2  UNL     1      -0.500  -6.522   4.015  1.00  0.00     0.190 HD
BRANCH  16  19
HETATM   19  C1  UNL     1       0.047  -4.173   2.776  1.00  0.00     0.157 C
HETATM   20  N1  UNL     1       1.193  -4.610   3.168  1.00  0.00    -0.404 N
ATOM     21  H12 UNL     1       1.362  -5.612   3.253  1.00  0.00     0.155 HD
ATOM     22  H11 UNL     1       1.910  -3.917   3.385  1.00  0.00     0.155 HD
ENDBRANCH  16  19
ENDBRANCH  13  15
ENDBRANCH   1  12
TORSDOF 3
ENDMDL