MODEL 3
REMARK VINA RESULT: -6.274973459      2.237      3.003
REMARK  5 active torsions:
REMARK  status: ('A' for Active; 'I' for Inactive)
REMARK    1  A    between atoms: N1_1  and  N2_4
REMARK       I    between atoms: N2_4  and  C1_6
REMARK    2  A    between atoms: C1_6  and  C2_8
REMARK    3  A    between atoms: C5_13  and  C6_14
REMARK    4  A    between atoms: N4_15  and  N5_17
REMARK    5  A    between atoms: N5_17  and  C7_19
ROOT
HETATM    1  C2  UNL     1      -2.367  -9.990   1.918  1.00  0.00     0.061 A
HETATM    2  C3  UNL     1      -1.300 -10.798   2.255  1.00  0.00     0.105 A
HETATM    3  N3  UNL     1      -0.836 -10.427   3.428  1.00  0.00    -0.373 N
ATOM      4  H3  UNL     1      -0.048 -10.866   3.903  1.00  0.00     0.164 HD
HETATM    5  C4  UNL     1      -1.545  -9.382   3.921  1.00  0.00     0.101 A
HETATM    6  C5  UNL     1      -2.508  -9.092   2.985  1.00  0.00     0.013 A
ENDROOT
BRANCH   6   7
HETATM    7  C6  UNL     1      -3.493  -8.016   3.030  1.00  0.00     0.121 C
HETATM    8  N4  UNL     1      -3.289  -6.857   2.617  1.00  0.00    -0.297 N
ATOM      9  H4  UNL     1      -4.096  -6.244   2.741  1.00  0.00     0.186 HD
BRANCH   8  10
HETATM   10  N5  UNL     1      -2.240  -6.233   2.043  1.00  0.00    -0.130 N
ATOM     11  H5  UNL     1      -2.112  -6.354   1.039  1.00  0.00     0.205 HD
BRANCH  10  12
HETATM   12  C7  UNL     1      -1.390  -5.498   2.666  1.00  0.00     0.722 A
HETATM   13  N6  UNL     1      -1.111  -4.211   2.449  1.00  0.00    -0.115 N
HETATM   14  N7  UNL     1      -0.164  -3.893   3.341  1.00  0.00     0.006 NA
ATOM     15  H6  UNL     1      -1.530  -3.599   1.749  1.00  0.00     0.202 HD
HETATM   16  N8  UNL     1       0.149  -4.930   4.096  1.00  0.00     0.006 NA
HETATM   17  N9  UNL     1      -0.618  -5.929   3.674  1.00  0.00    -0.115 N
ATOM     18  H9  UNL     1      -0.620  -6.875   4.056  1.00  0.00     0.202 HD
ENDBRANCH  10  12
ENDBRANCH   8  10
ENDBRANCH   6   7
BRANCH   1  19
HETATM   19  C1  UNL     1      -3.217 -10.127   0.747  1.00  0.00     0.271 C
HETATM   20  N2  UNL     1      -4.506 -10.747   0.815  1.00  0.00    -0.272 N
ATOM     21  H2  UNL     1      -4.830 -11.101   1.715  1.00  0.00     0.189 HD
HETATM   22  O1  UNL     1      -2.788  -9.683  -0.376  1.00  0.00    -0.266 OA
BRANCH  20  23
HETATM   23  N1  UNL     1      -5.318 -10.885  -0.270  1.00  0.00    -0.342 N
ATOM     24  H12 UNL     1      -5.633 -10.034  -0.736  1.00  0.00     0.176 HD
ATOM     25  H11 UNL     1      -5.616 -11.794  -0.626  1.00  0.00     0.176 HD
ENDBRANCH  20  23
ENDBRANCH   1  19
TORSDOF 5
ENDMDL