MODEL 4
REMARK VINA RESULT: -6.434072317      2.887      5.980
REMARK  2 active torsions:
REMARK  status: ('A' for Active; 'I' for Inactive)
REMARK       I    between atoms: N1_1  and  C1_5
REMARK       I    between atoms: C1_5  and  N2_6
REMARK       I    between atoms: C1_5  and  N3_10
REMARK    1  A    between atoms: N3_10  and  N4_11
REMARK    2  A    between atoms: N3_10  and  C2_14
ROOT
HETATM    1  C2  UNL     1      -0.922  -6.499   1.135  1.00  0.00     0.126 A
HETATM    2  C3  UNL     1      -1.424  -6.667  -0.122  1.00  0.00     0.052 A
HETATM    3  C4  UNL     1      -2.316  -7.657  -0.466  1.00  0.00     0.036 A
HETATM    4  C5  UNL     1      -2.719  -8.529   0.543  1.00  0.00     0.069 A
HETATM    5  N5  UNL     1      -3.583  -9.524   0.296  1.00  0.00    -0.306 N
ATOM      6  H5  UNL     1      -3.964  -9.659  -0.641  1.00  0.00     0.171 HD
HETATM    7  C6  UNL     1      -3.944 -10.351   1.317  1.00  0.00     0.327 A
HETATM    8  O1  UNL     1      -4.756 -11.280   1.065  1.00  0.00    -0.247 OA
HETATM    9  N6  UNL     1      -3.468 -10.209   2.562  1.00  0.00    -0.274 N
ATOM     10  H6  UNL     1      -3.764 -10.852   3.297  1.00  0.00     0.173 HD
HETATM   11  C7  UNL     1      -2.598  -9.220   2.842  1.00  0.00     0.278 A
HETATM   12  O2  UNL     1      -2.126  -9.054   3.999  1.00  0.00    -0.265 OA
HETATM   13  C8  UNL     1      -2.215  -8.361   1.810  1.00  0.00     0.130 A
HETATM   14  N7  UNL     1      -1.330  -7.358   2.090  1.00  0.00    -0.335 N
ATOM     15  H7  UNL     1      -0.972  -7.259   3.039  1.00  0.00     0.168 HD
ENDROOT
BRANCH   1  16
HETATM   16  N3  UNL     1      -0.003  -5.492   1.519  1.00  0.00    -0.228 N
HETATM   17  C1  UNL     1       0.271  -5.077   2.873  1.00  0.00     0.502 C
HETATM   18  N1  UNL     1       1.733  -5.158   3.037  1.00  0.00    -0.031 N
HETATM   19  N2  UNL     1      -0.108  -3.666   2.994  1.00  0.00    -0.031 N
ATOM     20  H13 UNL     1       2.240  -4.552   2.392  1.00  0.00     0.279 HD
ATOM     21  H12 UNL     1       2.060  -4.731   3.904  1.00  0.00     0.279 HD
ATOM     22  H11 UNL     1       1.996  -6.139   2.952  1.00  0.00     0.279 HD
ATOM     23  H23 UNL     1       0.219  -3.239   3.862  1.00  0.00     0.279 HD
ATOM     24  H22 UNL     1       0.399  -3.061   2.349  1.00  0.00     0.279 HD
ATOM     25  H21 UNL     1      -1.120  -3.610   2.880  1.00  0.00     0.279 HD
BRANCH  16  26
HETATM   26  N4  UNL     1       0.718  -4.800   0.505  1.00  0.00    -0.338 N
ATOM     27  H42 UNL     1       0.342  -3.921   0.150  1.00  0.00     0.177 HD
ATOM     28  H41 UNL     1       1.588  -5.239   0.203  1.00  0.00     0.177 HD
ENDBRANCH  16  26
ENDBRANCH   1  16
TORSDOF 2
ENDMDL