MODEL 5
REMARK VINA RESULT: -5.273367558      2.392      5.471
REMARK  5 active torsions:
REMARK  status: ('A' for Active; 'I' for Inactive)
REMARK    1  A    between atoms: N1_1  and  N2_4
REMARK    2  A    between atoms: N2_4  and  C1_6
REMARK    3  A    between atoms: C4_14  and  C5_15
REMARK    4  A    between atoms: C5_15  and  O2_16
REMARK    5  A    between atoms: C5_15  and  C6_18
ROOT
HETATM    1  C1  UNL     1      35.288  45.188  11.102  1.00  0.00     0.175 C
HETATM    2  N3  UNL     1      36.166  44.280  11.565  1.00  0.00    -0.290 N
ATOM      3  H3  UNL     1      36.544  43.652  10.856  1.00  0.00     0.172 HD
HETATM    4  C2  UNL     1      36.631  44.062  12.817  1.00  0.00     0.325 C
HETATM    5  O1  UNL     1      37.281  42.993  13.011  1.00  0.00    -0.247 OA
HETATM    6  N4  UNL     1      36.502  44.830  13.915  1.00  0.00    -0.318 N
ATOM      7  H4  UNL     1      37.051  44.525  14.720  1.00  0.00     0.170 HD
HETATM    8  C3  UNL     1      35.757  45.945  14.119  1.00  0.00     0.107 C
HETATM    9  C4  UNL     1      34.857  46.465  13.204  1.00  0.00     0.046 C
HETATM   10  C7  UNL     1      34.677  46.156  11.871  1.00  0.00     0.227 C
HETATM   11  O4  UNL     1      33.829  46.862  11.270  1.00  0.00    -0.284 OA
ENDROOT
BRANCH   1  12
HETATM   12  N2  UNL     1      35.006  45.134   9.833  1.00  0.00    -0.289 N
ATOM     13  H2  UNL     1      35.613  45.642   9.190  1.00  0.00     0.188 HD
BRANCH  12  14
HETATM   14  N1  UNL     1      33.952  44.443   9.304  1.00  0.00    -0.344 N
ATOM     15  H12 UNL     1      33.920  44.365   8.288  1.00  0.00     0.176 HD
ATOM     16  H11 UNL     1      33.212  44.011   9.855  1.00  0.00     0.176 HD
ENDBRANCH  12  14
ENDBRANCH   1  12
BRANCH   9  17
HETATM   17  C5  UNL     1      33.951  47.521  13.769  1.00  0.00     0.217 C
BRANCH  17  18
HETATM   18  O2  UNL     1      32.658  47.010  13.722  1.00  0.00    -0.384 OA
ATOM     19  H2  UNL     1      32.192  47.502  13.056  1.00  0.00     0.211 HD
ENDBRANCH  17  18
BRANCH  17  20
HETATM   20  C6  UNL     1      34.317  47.797  15.182  1.00  0.00     0.267 C
HETATM   21  O3  UNL     1      33.445  48.160  15.943  1.00  0.00    -0.304 OA
ENDBRANCH  17  20
ENDBRANCH   9  17
TORSDOF 5
ENDMDL