MODEL 5
REMARK VINA RESULT: -5.285587563      2.325      4.802
REMARK  5 active torsions:
REMARK  status: ('A' for Active; 'I' for Inactive)
REMARK    1  A    between atoms: N1_1  and  C1_4
REMARK    2  A    between atoms: C2_7  and  S1_8
REMARK    3  A    between atoms: S1_8  and  C3_11
REMARK    4  A    between atoms: C3_11  and  N3_12
REMARK    5  A    between atoms: C3_11  and  N4_16
ROOT
HETATM    1  C1  UNL     1      38.995  47.202  10.766  1.00  0.00     0.682 A
HETATM    2  N2  UNL     1      38.097  46.602  11.563  1.00  0.00    -0.166 N
ATOM      3  H2  UNL     1      37.728  47.103  12.371  1.00  0.00     0.186 HD
HETATM    4  C2  UNL     1      37.672  45.331  11.307  1.00  0.00     0.225 A
HETATM    5  N5  UNL     1      38.148  44.656  10.248  1.00  0.00    -0.284 N
ATOM      6  H5  UNL     1      37.832  43.706  10.056  1.00  0.00     0.172 HD
HETATM    7  C4  UNL     1      39.048  45.253   9.444  1.00  0.00     0.340 A
HETATM    8  O3  UNL     1      39.483  44.598   8.450  1.00  0.00    -0.246 OA
HETATM    9  N6  UNL     1      39.455  46.505   9.711  1.00  0.00    -0.141 N
ATOM     10  H6  UNL     1      40.138  46.942   9.092  1.00  0.00     0.189 HD
ENDROOT
BRANCH   4  11
HETATM   11  S1  UNL     1      36.511  44.599  12.375  1.00  0.00     0.263 S
HETATM   12  O1  UNL     1      37.088  43.362  13.022  1.00  0.00    -0.216 OA
HETATM   13  O2  UNL     1      35.270  44.228  11.616  1.00  0.00    -0.216 OA
BRANCH  11  14
HETATM   14  C3  UNL     1      36.041  45.706  13.665  1.00  0.00     0.505 C
BRANCH  14  15
HETATM   15  N3  UNL     1      36.249  45.178  14.991  1.00  0.00    -0.036 N
ATOM     16  H33 UNL     1      35.549  44.469  15.209  1.00  0.00     0.278 HD
ATOM     17  H32 UNL     1      37.091  44.602  15.020  1.00  0.00     0.278 HD
ATOM     18  H31 UNL     1      36.277  45.892  15.719  1.00  0.00     0.278 HD
ENDBRANCH  14  15
BRANCH  14  19
HETATM   19  N4  UNL     1      34.593  45.987  13.584  1.00  0.00    -0.036 N
ATOM     20  H43 UNL     1      34.404  46.973  13.403  1.00  0.00     0.278 HD
ATOM     21  H42 UNL     1      34.174  45.597  12.740  1.00  0.00     0.278 HD
ATOM     22  H41 UNL     1      34.128  45.657  14.430  1.00  0.00     0.278 HD
ENDBRANCH  14  19
ENDBRANCH  11  14
ENDBRANCH   4  11
BRANCH   1  23
HETATM   23  N1  UNL     1      39.411  48.420  11.001  1.00  0.00    -0.234 N
ATOM     24  H12 UNL     1      38.903  49.227  10.638  1.00  0.00     0.174 HD
ATOM     25  H11 UNL     1      40.251  48.599  11.551  1.00  0.00     0.174 HD
ENDBRANCH   1  23
TORSDOF 5
ENDMDL