MODEL 3
REMARK VINA RESULT: -5.208949552      1.564      4.824
REMARK  7 active torsions:
REMARK  status: ('A' for Active; 'I' for Inactive)
REMARK    1  A    between atoms: N1_2  and  C2_4
REMARK    2  A    between atoms: C3_7  and  N3_8
REMARK    3  A    between atoms: N3_8  and  C4_10
REMARK    4  A    between atoms: C4_10  and  C5_11
REMARK    5  A    between atoms: C5_11  and  N4_12
REMARK    6  A    between atoms: C8_20  and  N6_21
REMARK    7  A    between atoms: N6_21  and  N7_23
ROOT
HETATM    1  C2  UNL     1      37.657  45.103  12.513  1.00  0.00     0.134 A
HETATM    2  N2  UNL     1      37.858  44.556  11.317  1.00  0.00    -0.176 N
ATOM      3  H2  UNL     1      37.577  43.586  11.176  1.00  0.00     0.186 HD
HETATM    4  C3  UNL     1      38.412  45.216  10.285  1.00  0.00     0.681 A
HETATM    5  N5  UNL     1      38.788  46.493  10.451  1.00  0.00    -0.174 N
ATOM      6  H5  UNL     1      39.209  46.999   9.672  1.00  0.00     0.186 HD
HETATM    7  C6  UNL     1      38.616  47.114  11.630  1.00  0.00     0.155 A
HETATM    8  C7  UNL     1      38.049  46.433  12.683  1.00  0.00     0.101 A
HETATM    9  C8  UNL     1      37.998  47.304  13.751  1.00  0.00     0.152 A
HETATM   10  N8  UNL     1      38.519  48.457  13.334  1.00  0.00    -0.280 N
ATOM     11  H8  UNL     1      38.612  49.293  13.911  1.00  0.00     0.189 HD
HETATM   12  N9  UNL     1      38.896  48.373  12.075  1.00  0.00    -0.278 N
HETATM   13  C9  UNL     1      39.510  49.399  11.239  1.00  0.00     0.179 C
ENDROOT
BRANCH   4  14
HETATM   14  N3  UNL     1      38.562  44.605   9.184  1.00  0.00    -0.224 N
ATOM     15  H3  UNL     1      37.980  43.779   9.042  1.00  0.00     0.177 HD
BRANCH  14  16
HETATM   16  C4  UNL     1      39.452  44.943   8.122  1.00  0.00     0.165 C
BRANCH  16  17
HETATM   17  C5  UNL     1      38.781  44.987   6.770  1.00  0.00     0.249 C
BRANCH  17  18
HETATM   18  N4  UNL     1      37.562  44.204   6.834  1.00  0.00    -0.078 N
ATOM     19  H43 UNL     1      36.780  44.659   6.364  1.00  0.00     0.274 HD
ATOM     20  H42 UNL     1      37.605  43.366   6.254  1.00  0.00     0.274 HD
ATOM     21  H41 UNL     1      37.362  43.995   7.812  1.00  0.00     0.274 HD
ENDBRANCH  17  18
ENDBRANCH  16  17
ENDBRANCH  14  16
ENDBRANCH   4  14
BRANCH   1  22
HETATM   22  N1  UNL     1      37.140  44.525  13.518  1.00  0.00    -0.379 N
HETATM   23  C1  UNL     1      35.710  44.399  13.687  1.00  0.00     0.147 C
ATOM     24  H1  UNL     1      37.755  44.136  14.231  1.00  0.00     0.160 HD
ENDBRANCH   1  22
BRANCH   9  25
HETATM   25  N6  UNL     1      37.465  46.954  15.040  1.00  0.00    -0.290 N
ATOM     26  H6  UNL     1      37.418  46.013  15.431  1.00  0.00     0.188 HD
BRANCH  25  27
HETATM   27  N7  UNL     1      37.016  48.137  15.673  1.00  0.00    -0.344 N
ATOM     28  H72 UNL     1      36.661  48.961  15.189  1.00  0.00     0.176 HD
ATOM     29  H71 UNL     1      37.110  48.017  16.681  1.00  0.00     0.176 HD
ENDBRANCH  25  27
ENDBRANCH   9  25
TORSDOF 7
ENDMDL