MODEL 5
REMARK VINA RESULT: -5.733131959      3.749      5.280
REMARK  5 active torsions:
REMARK  status: ('A' for Active; 'I' for Inactive)
REMARK    1  A    between atoms: N1_1  and  C1_4
REMARK    2  A    between atoms: C3_10  and  N4_11
REMARK    3  A    between atoms: N5_14  and  C4_15
REMARK    4  A    between atoms: C4_15  and  O1_16
REMARK    5  A    between atoms: O1_16  and  S1_17
ROOT
HETATM    1  C1  UNL     1      35.921  45.789  14.469  1.00  0.00     0.679 A
HETATM    2  N2  UNL     1      36.373  44.550  14.288  1.00  0.00    -0.172 N
ATOM      3  H2  UNL     1      36.300  43.782  14.954  1.00  0.00     0.186 HD
HETATM    4  C2  UNL     1      36.944  44.490  13.069  1.00  0.00     0.181 A
HETATM    5  N3  UNL     1      37.582  43.709  12.179  1.00  0.00    -0.172 N
ATOM      6  H3  UNL     1      37.811  42.725  12.318  1.00  0.00     0.186 HD
HETATM    7  C3  UNL     1      37.868  44.423  11.080  1.00  0.00     0.683 A
HETATM    8  N5  UNL     1      37.394  45.670  11.303  1.00  0.00    -0.141 N
HETATM    9  C5  UNL     1      36.815  45.751  12.525  1.00  0.00     0.186 A
HETATM   10  N6  UNL     1      36.177  46.562  13.398  1.00  0.00    -0.172 N
ATOM     11  H6  UNL     1      35.941  47.546  13.273  1.00  0.00     0.186 HD
ENDROOT
BRANCH   8  12
HETATM   12  C4  UNL     1      37.471  46.799  10.390  1.00  0.00     0.344 C
BRANCH  12  13
HETATM   13  O1  UNL     1      36.211  47.306  10.124  1.00  0.00    -0.236 OA
BRANCH  13  14
HETATM   14  S1  UNL     1      35.429  46.526   8.891  1.00  0.00     0.253 S
HETATM   15  O2  UNL     1      36.322  45.604   8.120  1.00  0.00    -0.572 OA
HETATM   16  O3  UNL     1      34.872  47.551   7.943  1.00  0.00    -0.572 OA
HETATM   17  O4  UNL     1      34.111  45.686   9.536  1.00  0.00    -0.572 OA
ENDBRANCH  13  14
ENDBRANCH  12  13
ENDBRANCH   8  12
BRANCH   7  18
HETATM   18  N4  UNL     1      38.470  44.047   9.998  1.00  0.00    -0.234 N
ATOM     19  H42 UNL     1      38.034  43.513   9.246  1.00  0.00     0.174 HD
ATOM     20  H41 UNL     1      39.437  44.206   9.712  1.00  0.00     0.174 HD
ENDBRANCH   7  18
BRANCH   1  21
HETATM   21  N1  UNL     1      35.320  46.185  15.533  1.00  0.00    -0.234 N
ATOM     22  H12 UNL     1      35.774  46.649  16.319  1.00  0.00     0.174 HD
ATOM     23  H11 UNL     1      34.321  46.072  15.698  1.00  0.00     0.174 HD
ENDBRANCH   1  21
TORSDOF 5
ENDMDL