MODEL 1
REMARK VINA RESULT: -5.950441251      0.000      0.000
REMARK  6 active torsions:
REMARK  status: ('A' for Active; 'I' for Inactive)
REMARK    1  A    between atoms: N1_1  and  C1_4
REMARK    2  A    between atoms: C2_7  and  N3_8
REMARK    3  A    between atoms: N3_8  and  S1_10
REMARK    4  A    between atoms: S1_10  and  N4_11
REMARK    5  A    between atoms: C3_20  and  C4_21
REMARK    6  A    between atoms: N7_22  and  O3_24
ROOT
HETATM    1  C1  UNL     1      39.209  46.354   9.747  1.00  0.00     0.144 A
HETATM    2  N2  UNL     1      38.815  46.456  11.042  1.00  0.00    -0.173 N
ATOM      3  H2  UNL     1      38.976  47.330  11.542  1.00  0.00     0.186 HD
HETATM    4  C2  UNL     1      38.219  45.439  11.683  1.00  0.00     0.709 A
HETATM    5  N5  UNL     1      37.991  44.256  11.037  1.00  0.00    -0.131 N
ATOM      6  H5  UNL     1      37.537  43.483  11.524  1.00  0.00     0.205 HD
HETATM    7  N6  UNL     1      38.361  44.122   9.779  1.00  0.00    -0.281 N
ATOM      8  H6  UNL     1      38.193  43.241   9.293  1.00  0.00     0.187 HD
HETATM    9  C3  UNL     1      38.965  45.150   9.126  1.00  0.00     0.110 A
ENDROOT
BRANCH   4  10
HETATM   10  N3  UNL     1      37.839  45.514  12.902  1.00  0.00    -0.098 N
ATOM     11  H3  UNL     1      38.426  45.986  13.590  1.00  0.00     0.199 HD
BRANCH  10  12
HETATM   12  S1  UNL     1      36.345  44.824  13.383  1.00  0.00     0.330 S
HETATM   13  O1  UNL     1      36.435  43.323  13.291  1.00  0.00    -0.182 OA
HETATM   14  O2  UNL     1      35.205  45.253  12.487  1.00  0.00    -0.182 OA
BRANCH  12  15
HETATM   15  N4  UNL     1      35.993  45.286  15.014  1.00  0.00    -0.311 N
ATOM     16  H42 UNL     1      36.292  46.161  15.443  1.00  0.00     0.170 HD
ATOM     17  H41 UNL     1      35.447  44.551  15.465  1.00  0.00     0.170 HD
ENDBRANCH  12  15
ENDBRANCH  10  12
ENDBRANCH   4  10
BRANCH   1  18
HETATM   18  N1  UNL     1      39.782  47.307   9.101  1.00  0.00    -0.383 N
ATOM     19  H12 UNL     1      39.604  48.278   9.358  1.00  0.00     0.157 HD
ATOM     20  H11 UNL     1      40.424  47.154   8.323  1.00  0.00     0.157 HD
ENDBRANCH   1  18
BRANCH   9  21
HETATM   21  C4  UNL     1      39.356  44.964   7.748  1.00  0.00     0.148 C
HETATM   22  N7  UNL     1      38.499  44.681   6.831  1.00  0.00    -0.278 N
ATOM     23  H7  UNL     1      38.840  44.564   5.877  1.00  0.00     0.193 HD
BRANCH  22  24
HETATM   24  O3  UNL     1      37.174  44.531   7.054  1.00  0.00    -0.290 OA
ATOM     25  H3  UNL     1      36.581  44.090   6.457  1.00  0.00     0.244 HD
ENDBRANCH  22  24
ENDBRANCH   9  21
TORSDOF 6
ENDMDL