MODEL 2
REMARK VINA RESULT: -5.810007182      0.969      1.016
REMARK  4 active torsions:
REMARK  status: ('A' for Active; 'I' for Inactive)
REMARK    1  A    between atoms: C1_4  and  N2_5
REMARK    2  A    between atoms: C3_7  and  C4_8
REMARK    3  A    between atoms: N3_9  and  N4_11
REMARK    4  A    between atoms: C7_20  and  N8_21
ROOT
HETATM    1  N2  UNL     1      38.218  45.733  11.351  1.00  0.00    -0.154 N
HETATM    2  C2  UNL     1      37.718  46.418  12.398  1.00  0.00     0.134 A
HETATM    3  C3  UNL     1      36.917  45.834  13.352  1.00  0.00     0.066 A
HETATM    4  C6  UNL     1      36.637  44.495  13.201  1.00  0.00     0.272 A
HETATM    5  O1  UNL     1      35.914  43.891  14.032  1.00  0.00    -0.267 OA
HETATM    6  N7  UNL     1      37.128  43.776  12.156  1.00  0.00    -0.155 N
ATOM      7  H7  UNL     1      36.913  42.783  12.056  1.00  0.00     0.187 HD
HETATM    8  C7  UNL     1      37.902  44.407  11.260  1.00  0.00     0.685 A
ENDROOT
BRANCH   3   9
HETATM    9  C4  UNL     1      36.393  46.601  14.469  1.00  0.00     0.125 C
HETATM   10  N3  UNL     1      37.220  47.208  15.273  1.00  0.00    -0.309 N
ATOM     11  H3  UNL     1      38.225  47.144  15.116  1.00  0.00     0.186 HD
BRANCH  10  12
HETATM   12  N4  UNL     1      36.724  47.947  16.350  1.00  0.00    -0.276 N
HETATM   13  C5  UNL     1      36.773  49.224  16.336  1.00  0.00     0.215 C
HETATM   14  N5  UNL     1      36.270  49.954  17.430  1.00  0.00    -0.065 NA
HETATM   15  N6  UNL     1      37.328  49.906  15.234  1.00  0.00    -0.065 NA
ATOM     16  H4  UNL     1      36.321  47.465  17.154  1.00  0.00     0.189 HD
ENDBRANCH  10  12
ENDBRANCH   3   9
BRANCH   1  17
HETATM   17  C1  UNL     1      39.043  46.328  10.366  1.00  0.00     0.199 C
HETATM   18  N1  UNL     1      39.416  47.548  10.438  1.00  0.00    -0.394 N
ATOM     19  H12 UNL     1      39.100  48.097  11.237  1.00  0.00     0.156 HD
ATOM     20  H11 UNL     1      40.010  47.976   9.728  1.00  0.00     0.156 HD
ENDBRANCH   1  17
BRANCH   8  21
HETATM   21  N8  UNL     1      38.391  43.752  10.245  1.00  0.00    -0.234 N
ATOM     22  H82 UNL     1      38.243  44.096   9.296  1.00  0.00     0.174 HD
ATOM     23  H81 UNL     1      38.913  42.900  10.453  1.00  0.00     0.174 HD
ENDBRANCH   8  21
TORSDOF 4
ENDMDL