MODEL 5
REMARK VINA RESULT: -5.461200129      2.358      4.722
REMARK  3 active torsions:
REMARK  status: ('A' for Active; 'I' for Inactive)
REMARK    1  A    between atoms: C4_11  and  N4_12
REMARK    2  A    between atoms: N4_12  and  S1_14
REMARK    3  A    between atoms: S1_14  and  N5_15
ROOT
HETATM    1  N1  UNL     1      36.571  43.402  13.347  1.00  0.00    -0.080 NA
HETATM    2  C1  UNL     1      36.230  44.778  13.509  1.00  0.00     0.153 A
HETATM    3  N2  UNL     1      35.981  45.295  14.724  1.00  0.00    -0.295 N
ATOM      4  H2  UNL     1      36.033  44.706  15.555  1.00  0.00     0.172 HD
HETATM    5  C2  UNL     1      35.663  46.595  14.833  1.00  0.00     0.328 A
HETATM    6  O1  UNL     1      35.424  47.093  15.988  1.00  0.00    -0.247 OA
HETATM    7  N3  UNL     1      35.596  47.371  13.734  1.00  0.00    -0.273 N
ATOM      8  H3  UNL     1      35.352  48.355  13.850  1.00  0.00     0.173 HD
HETATM    9  C3  UNL     1      35.834  46.916  12.492  1.00  0.00     0.280 A
HETATM   10  O2  UNL     1      35.755  47.693  11.496  1.00  0.00    -0.265 OA
HETATM   11  C4  UNL     1      36.159  45.585  12.376  1.00  0.00     0.153 A
ENDROOT
BRANCH  11  12
HETATM   12  N4  UNL     1      36.416  45.074  11.078  1.00  0.00    -0.260 N
ATOM     13  H4  UNL     1      35.617  44.757  10.527  1.00  0.00     0.180 HD
BRANCH  12  14
HETATM   14  S1  UNL     1      37.959  44.950  10.376  1.00  0.00     0.317 S
HETATM   15  O3  UNL     1      38.664  43.675  10.723  1.00  0.00    -0.183 OA
HETATM   16  O4  UNL     1      38.807  46.093  10.860  1.00  0.00    -0.183 OA
BRANCH  14  17
HETATM   17  N5  UNL     1      37.908  45.036   8.645  1.00  0.00    -0.311 N
ATOM     18  H52 UNL     1      38.125  44.240   8.043  1.00  0.00     0.170 HD
ATOM     19  H51 UNL     1      37.640  45.960   8.309  1.00  0.00     0.170 HD
ENDBRANCH  14  17
ENDBRANCH  12  14
ENDBRANCH  11  12
TORSDOF 3
ENDMDL