MODEL 4
REMARK VINA RESULT: -5.494428290      1.967      3.064
REMARK  3 active torsions:
REMARK  status: ('A' for Active; 'I' for Inactive)
REMARK    1  A    between atoms: N2_7  and  C4_8
REMARK    2  A    between atoms: C4_8  and  N3_9
REMARK    3  A    between atoms: C7_18  and  C8_19
ROOT
HETATM    1  C1  UNL     1      40.160  48.329   9.189  1.00  0.00     0.069 C
HETATM    2  C2  UNL     1      39.417  47.401  10.084  1.00  0.00     0.028 A
HETATM    3  N1  UNL     1      38.959  47.852  11.248  1.00  0.00    -0.311 N
ATOM      4  H1  UNL     1      39.123  48.824  11.511  1.00  0.00     0.170 HD
HETATM    5  C3  UNL     1      38.281  47.043  12.086  1.00  0.00     0.332 A
HETATM    6  O1  UNL     1      37.846  47.461  13.186  1.00  0.00    -0.246 OA
HETATM    7  N2  UNL     1      38.023  45.751  11.815  1.00  0.00    -0.214 N
HETATM    8  C6  UNL     1      38.482  45.279  10.635  1.00  0.00     0.270 A
HETATM    9  O2  UNL     1      38.296  44.081  10.280  1.00  0.00    -0.267 OA
HETATM   10  C7  UNL     1      39.181  46.081   9.751  1.00  0.00     0.092 A
ENDROOT
BRANCH   7  11
HETATM   11  C4  UNL     1      37.319  44.865  12.658  1.00  0.00     0.310 C
HETATM   12  C5  UNL     1      36.441  45.352  13.721  1.00  0.00     0.213 C
HETATM   13  N4  UNL     1      35.404  44.432  13.243  1.00  0.00    -0.139 NA
HETATM   14  N5  UNL     1      36.065  44.456  12.000  1.00  0.00    -0.086 NA
BRANCH  11  15
HETATM   15  N3  UNL     1      38.071  43.688  12.997  1.00  0.00    -0.034 N
ATOM     16  H33 UNL     1      38.692  43.421  12.233  1.00  0.00     0.279 HD
ATOM     17  H32 UNL     1      38.767  43.895  13.713  1.00  0.00     0.279 HD
ATOM     18  H31 UNL     1      37.484  42.903  13.278  1.00  0.00     0.279 HD
ENDBRANCH  11  15
ENDBRANCH   7  11
BRANCH  10  19
HETATM   19  C8  UNL     1      39.691  45.609   8.472  1.00  0.00     0.277 C
HETATM   20  O3  UNL     1      38.902  45.581   7.498  1.00  0.00    -0.301 OA
ENDBRANCH  10  19
TORSDOF 3
ENDMDL