MODEL 5
REMARK VINA RESULT: -5.694966465      1.509      1.919
REMARK  3 active torsions:
REMARK  status: ('A' for Active; 'I' for Inactive)
REMARK    1  A    between atoms: N1_1  and  C1_5
REMARK    2  A    between atoms: C1_5  and  C2_6
REMARK    3  A    between atoms: C1_5  and  C5_17
ROOT
HETATM    1  C1  UNL     1      37.214  44.563  11.618  1.00  0.00     0.309 C
ENDROOT
BRANCH   1   2
HETATM    2  N1  UNL     1      37.876  43.340  11.958  1.00  0.00    -0.064 N
ATOM      3  H13 UNL     1      38.716  43.511  12.511  1.00  0.00     0.275 HD
ATOM      4  H12 UNL     1      37.343  42.804  12.644  1.00  0.00     0.275 HD
ATOM      5  H11 UNL     1      38.080  42.785  11.127  1.00  0.00     0.275 HD
ENDBRANCH   1   2
BRANCH   1   6
HETATM    6  C2  UNL     1      37.199  45.508  12.765  1.00  0.00     0.134 A
HETATM    7  N2  UNL     1      38.200  46.366  13.016  1.00  0.00    -0.284 N
HETATM    8  N3  UNL     1      38.155  47.192  14.045  1.00  0.00    -0.260 N
ATOM      9  H2  UNL     1      39.012  46.382  12.398  1.00  0.00     0.188 HD
HETATM   10  C3  UNL     1      37.106  47.207  14.884  1.00  0.00     0.328 A
ATOM     11  H3  UNL     1      38.932  47.832  14.206  1.00  0.00     0.190 HD
HETATM   12  O1  UNL     1      37.114  48.010  15.844  1.00  0.00    -0.261 OA
HETATM   13  C4  UNL     1      36.074  46.341  14.649  1.00  0.00     0.316 A
HETATM   14  O2  UNL     1      35.077  46.343  15.430  1.00  0.00    -0.262 OA
HETATM   15  N4  UNL     1      36.146  45.518  13.602  1.00  0.00    -0.305 N
ATOM     16  H4  UNL     1      35.375  44.873  13.430  1.00  0.00     0.170 HD
ENDBRANCH   1   6
BRANCH   1  17
HETATM   17  C5  UNL     1      37.872  45.275  10.463  1.00  0.00     0.420 C
HETATM   18  N5  UNL     1      38.711  44.381   9.676  1.00  0.00    -0.042 N
HETATM   19  C6  UNL     1      38.781  45.143   8.424  1.00  0.00     0.262 C
ATOM     20  H52 UNL     1      39.606  44.126  10.093  1.00  0.00     0.279 HD
ATOM     21  H51 UNL     1      38.385  43.418   9.595  1.00  0.00     0.279 HD
HETATM   22  C7  UNL     1      37.313  45.453   8.211  1.00  0.00     0.262 C
HETATM   23  N6  UNL     1      36.841  45.702   9.535  1.00  0.00    -0.042 N
ATOM     24  H62 UNL     1      35.937  45.267   9.721  1.00  0.00     0.279 HD
ATOM     25  H61 UNL     1      36.557  46.671   9.678  1.00  0.00     0.279 HD
ENDBRANCH   1  17
TORSDOF 3
ENDMDL