MODEL 5
REMARK VINA RESULT: -5.281182837      2.730      5.100
REMARK  3 active torsions:
REMARK  status: ('A' for Active; 'I' for Inactive)
REMARK    1  A    between atoms: N1_1  and  S1_4
REMARK    2  A    between atoms: S1_4  and  N2_7
REMARK    3  A    between atoms: N2_7  and  C1_9
ROOT
HETATM    1  C1  UNL     1      37.802  46.194  12.621  1.00  0.00     0.701 A
HETATM    2  N3  UNL     1      37.046  45.102  12.826  1.00  0.00    -0.140 N
ATOM      3  H3  UNL     1      37.009  44.399  12.088  1.00  0.00     0.189 HD
HETATM    4  C2  UNL     1      36.336  44.882  13.945  1.00  0.00     0.342 A
HETATM    5  O3  UNL     1      35.635  43.841  14.102  1.00  0.00    -0.246 OA
HETATM    6  N4  UNL     1      36.368  45.800  14.937  1.00  0.00    -0.260 N
ATOM      7  H4  UNL     1      35.840  45.661  15.798  1.00  0.00     0.175 HD
HETATM    8  C3  UNL     1      37.109  46.889  14.757  1.00  0.00     0.342 A
HETATM    9  O4  UNL     1      37.131  47.741  15.692  1.00  0.00    -0.246 OA
HETATM   10  N5  UNL     1      37.823  47.094  13.613  1.00  0.00    -0.140 N
ATOM     11  H5  UNL     1      38.380  47.943  13.511  1.00  0.00     0.189 HD
ENDROOT
BRANCH   1  12
HETATM   12  N2  UNL     1      38.535  46.403  11.425  1.00  0.00    -0.099 N
ATOM     13  H2  UNL     1      39.131  47.230  11.391  1.00  0.00     0.199 HD
BRANCH  12  14
HETATM   14  S1  UNL     1      38.522  45.414  10.045  1.00  0.00     0.330 S
HETATM   15  O1  UNL     1      39.638  45.731   9.128  1.00  0.00    -0.182 OA
HETATM   16  O2  UNL     1      38.723  43.968  10.505  1.00  0.00    -0.182 OA
BRANCH  14  17
HETATM   17  N1  UNL     1      37.007  45.475   9.192  1.00  0.00    -0.311 N
ATOM     18  H12 UNL     1      36.375  44.680   9.092  1.00  0.00     0.170 HD
ATOM     19  H11 UNL     1      36.852  46.410   8.815  1.00  0.00     0.170 HD
ENDBRANCH  14  17
ENDBRANCH  12  14
ENDBRANCH   1  12
TORSDOF 3
ENDMDL