MODEL 3
REMARK VINA RESULT: -8.139858821      3.195      6.779
REMARK  4 active torsions:
REMARK  status: ('A' for Active; 'I' for Inactive)
REMARK    1  A    between atoms: N1_1  and  C1_4
REMARK    2  A    between atoms: C4_15  and  O1_16
REMARK    3  A    between atoms: C5_18  and  C6_19
REMARK    4  A    between atoms: C13_26  and  O2_27
ROOT
HETATM    1  C1  UNL     1      37.865  54.533  80.013  1.00  0.00     0.703 A
HETATM    2  N2  UNL     1      38.809  54.480  80.986  1.00  0.00    -0.163 N
ATOM      3  H2  UNL     1      38.913  55.262  81.633  1.00  0.00     0.186 HD
HETATM    4  C2  UNL     1      39.595  53.427  81.102  1.00  0.00     0.206 A
HETATM    5  S1  UNL     1      40.729  53.303  82.260  1.00  0.00    -0.039 SA
HETATM    6  N3  UNL     1      39.442  52.415  80.239  1.00  0.00    -0.252 N
ATOM      7  H3  UNL     1      40.043  51.594  80.313  1.00  0.00     0.191 HD
HETATM    8  N4  UNL     1      38.507  52.467  79.276  1.00  0.00    -0.153 N
HETATM    9  C3  UNL     1      38.206  51.575  78.330  1.00  0.00     0.164 A
HETATM   10  N5  UNL     1      38.526  50.403  77.798  1.00  0.00    -0.319 N
ATOM     11  H5  UNL     1      39.266  49.793  78.146  1.00  0.00     0.169 HD
HETATM   12  C4  UNL     1      37.756  50.130  76.756  1.00  0.00     0.149 A
HETATM   13  C5  UNL     1      36.837  51.168  76.542  1.00  0.00     0.015 A
HETATM   14  C12 UNL     1      37.097  52.093  77.510  1.00  0.00     0.076 A
HETATM   15  C13 UNL     1      36.851  53.331  78.101  1.00  0.00     0.197 A
HETATM   16  N6  UNL     1      37.712  53.501  79.139  1.00  0.00    -0.040 N
ENDROOT
BRANCH  13  17
HETATM   17  C6  UNL     1      35.936  51.180  75.419  1.00  0.00     0.024 C
HETATM   18  C7  UNL     1      34.745  50.241  75.580  1.00  0.00     0.009 C
HETATM   19  C8  UNL     1      33.478  50.815  76.073  1.00  0.00     0.001 C
HETATM   20  C9  UNL     1      32.903  51.652  74.905  1.00  0.00     0.000 C
HETATM   21  C10 UNL     1      34.044  52.428  74.269  1.00  0.00     0.001 C
HETATM   22  C11 UNL     1      35.222  52.533  75.253  1.00  0.00     0.009 C
ENDBRANCH  13  17
BRANCH  12  23
HETATM   23  O1  UNL     1      37.848  48.988  75.990  1.00  0.00    -0.346 OA
ATOM     24  H1  UNL     1      37.438  48.872  75.141  1.00  0.00     0.219 HD
ENDBRANCH  12  23
BRANCH  15  25
HETATM   25  O2  UNL     1      35.899  54.230  77.691  1.00  0.00    -0.344 OA
ATOM     26  H2  UNL     1      36.075  55.102  77.357  1.00  0.00     0.219 HD
ENDBRANCH  15  25
BRANCH   1  27
HETATM   27  N1  UNL     1      37.145  55.578  79.920  1.00  0.00    -0.233 N
ATOM     28  H12 UNL     1      36.767  55.875  79.021  1.00  0.00     0.174 HD
ATOM     29  H11 UNL     1      36.970  56.126  80.763  1.00  0.00     0.174 HD
ENDBRANCH   1  27
TORSDOF 4
ENDMDL