MODEL 1
REMARK VINA RESULT: -8.104739833      0.000      0.000
REMARK  7 active torsions:
REMARK  status: ('A' for Active; 'I' for Inactive)
REMARK    1  A    between atoms: C2_2  and  N1_5
REMARK    2  A    between atoms: C5_6  and  O1_7
REMARK    3  A    between atoms: C7_11  and  C8_12
REMARK    4  A    between atoms: C13_17  and  O3_18
REMARK    5  A    between atoms: C14_20  and  O4_21
REMARK    6  A    between atoms: C16_24  and  C17_25
REMARK    7  A    between atoms: C17_25  and  O5_26
ROOT
HETATM    1  N1  UNL     1      35.977  51.998  76.665  1.00  0.00    -0.317 N
HETATM    2  C5  UNL     1      37.026  51.263  77.153  1.00  0.00     0.179 A
HETATM    3  C6  UNL     1      37.702  51.998  78.066  1.00  0.00     0.141 A
HETATM    4  O2  UNL     1      38.749  52.000  78.894  1.00  0.00    -0.306 OA
HETATM    5  C7  UNL     1      38.846  53.130  79.521  1.00  0.00     0.094 A
HETATM    6  C14 UNL     1      37.806  53.929  79.096  1.00  0.00     0.111 A
HETATM    7  C15 UNL     1      37.096  53.200  78.175  1.00  0.00     0.063 A
HETATM    8  C16 UNL     1      36.027  53.146  77.275  1.00  0.00     0.054 A
ENDROOT
BRANCH   5   9
HETATM    9  C8  UNL     1      39.874  53.547  80.512  1.00  0.00     0.075 C
HETATM   10  C9  UNL     1      40.859  52.337  80.516  1.00  0.00     0.014 C
HETATM   11  C10 UNL     1      40.378  51.345  81.494  1.00  0.00     0.001 C
HETATM   12  C11 UNL     1      40.797  51.877  82.864  1.00  0.00     0.002 C
HETATM   13  C12 UNL     1      40.438  53.340  82.901  1.00  0.00     0.032 C
HETATM   14  C13 UNL     1      39.305  53.651  81.914  1.00  0.00     0.128 C
BRANCH  14  15
HETATM   15  O3  UNL     1      38.928  54.997  82.134  1.00  0.00    -0.395 OA
ATOM     16  H3  UNL     1      37.997  55.074  81.962  1.00  0.00     0.210 HD
ENDBRANCH  14  15
ENDBRANCH   5   9
BRANCH   6  17
HETATM   17  O4  UNL     1      37.485  55.230  79.494  1.00  0.00    -0.357 OA
ATOM     18  H4  UNL     1      36.633  55.650  79.520  1.00  0.00     0.217 HD
ENDBRANCH   6  17
BRANCH   2  19
HETATM   19  O1  UNL     1      37.460  49.949  76.852  1.00  0.00    -0.344 OA
ATOM     20  H1  UNL     1      38.088  49.385  77.288  1.00  0.00     0.219 HD
ENDBRANCH   2  19
BRANCH   8  21
HETATM   21  C17 UNL     1      35.165  54.327  77.174  1.00  0.00     0.222 C
BRANCH  21  22
HETATM   22  O5  UNL     1      34.986  54.960  78.475  1.00  0.00    -0.395 OA
ATOM     23  H5  UNL     1      35.031  55.907  78.405  1.00  0.00     0.209 HD
ENDBRANCH  21  22
ENDBRANCH   8  21
BRANCH   1  24
HETATM   24  C2  UNL     1      35.122  51.393  75.682  1.00  0.00     0.028 C
HETATM   25  C1  UNL     1      34.207  52.402  74.976  1.00  0.00     0.038 C
HETATM   26  C3  UNL     1      34.130  50.492  76.500  1.00  0.00     0.038 C
HETATM   27  C4  UNL     1      35.714  50.587  74.604  1.00  0.00     0.038 C
ENDBRANCH   1  24
TORSDOF 7
ENDMDL