MODEL 4
REMARK VINA RESULT: -6.244219595      1.741      2.154
REMARK  4 active torsions:
REMARK  status: ('A' for Active; 'I' for Inactive)
REMARK    1  A    between atoms: C6_6  and  C7_7
REMARK    2  A    between atoms: C10_12  and  O1_13
REMARK    3  A    between atoms: C12_21  and  N5_22
REMARK    4  A    between atoms: N5_22  and  C13_24
ROOT
HETATM    1  C1  UNL     1      34.959  54.474  77.302  1.00  0.00     0.043 C
HETATM    2  C2  UNL     1      35.160  53.282  76.737  1.00  0.00     0.042 A
HETATM    3  C3  UNL     1      36.319  52.534  77.195  1.00  0.00     0.062 A
HETATM    4  C4  UNL     1      36.578  51.346  76.688  1.00  0.00     0.087 A
HETATM    5  C5  UNL     1      37.742  50.609  77.151  1.00  0.00     0.057 A
HETATM    6  C6  UNL     1      38.520  50.908  78.129  1.00  0.00     0.005 C
HETATM    7  N1  UNL     1      37.935  49.329  76.496  1.00  0.00    -0.348 N
ATOM      8  H1  UNL     1      38.730  48.745  76.757  1.00  0.00     0.166 HD
HETATM    9  C9  UNL     1      37.042  48.881  75.510  1.00  0.00     0.132 A
HETATM   10  C10 UNL     1      37.071  47.682  74.777  1.00  0.00     0.186 A
HETATM   11  N2  UNL     1      36.022  47.733  73.983  1.00  0.00    -0.277 N
ATOM     12  H2  UNL     1      35.773  46.997  73.323  1.00  0.00     0.189 HD
HETATM   13  N3  UNL     1      35.319  48.863  74.142  1.00  0.00    -0.281 N
ATOM     14  H3  UNL     1      34.471  49.127  73.640  1.00  0.00     0.188 HD
HETATM   15  C11 UNL     1      35.944  49.580  75.084  1.00  0.00     0.175 A
HETATM   16  N4  UNL     1      35.689  50.849  75.681  1.00  0.00    -0.126 N
HETATM   17  C12 UNL     1      34.558  51.558  75.214  1.00  0.00     0.694 A
HETATM   18  N8  UNL     1      34.336  52.743  75.760  1.00  0.00    -0.192 N
ATOM     19  H8  UNL     1      33.527  53.281  75.449  1.00  0.00     0.184 HD
ENDROOT
BRANCH  17  20
HETATM   20  N5  UNL     1      33.623  51.149  74.226  1.00  0.00    -0.161 N
ATOM     21  H5  UNL     1      32.950  50.405  74.412  1.00  0.00     0.187 HD
BRANCH  20  22
HETATM   22  C13 UNL     1      33.659  51.822  72.952  1.00  0.00     0.190 C
HETATM   23  N6  UNL     1      32.724  52.412  72.329  1.00  0.00    -0.360 N
HETATM   24  C14 UNL     1      33.110  52.981  71.072  1.00  0.00     0.142 C
ATOM     25  H6  UNL     1      31.774  52.477  72.695  1.00  0.00     0.162 HD
HETATM   26  C15 UNL     1      34.609  52.813  71.023  1.00  0.00     0.142 C
HETATM   27  N7  UNL     1      34.824  51.933  72.149  1.00  0.00    -0.360 N
ATOM     28  H7  UNL     1      35.703  51.453  72.343  1.00  0.00     0.162 HD
ENDBRANCH  20  22
ENDBRANCH  17  20
BRANCH   6  29
HETATM   29  C7  UNL     1      38.696  51.910  79.159  1.00  0.00     0.025 C
HETATM   30  C8  UNL     1      39.907  51.608  80.040  1.00  0.00     0.009 C
ENDBRANCH   6  29
BRANCH  10  31
HETATM   31  O1  UNL     1      38.047  46.682  74.917  1.00  0.00    -0.343 OA
ATOM     32  H1  UNL     1      37.898  45.755  74.768  1.00  0.00     0.219 HD
ENDBRANCH  10  31
TORSDOF 4
ENDMDL