MODEL 1
REMARK VINA RESULT: -5.827285622      0.000      0.000
REMARK  7 active torsions:
REMARK  status: ('A' for Active; 'I' for Inactive)
REMARK    1  A    between atoms: C4_4  and  C5_5
REMARK    2  A    between atoms: C5_5  and  O1_6
REMARK    3  A    between atoms: C7_9  and  C8_10
REMARK    4  A    between atoms: N1_11  and  O2_13
REMARK    5  A    between atoms: C11_18  and  O4_19
REMARK    6  A    between atoms: C12_21  and  O5_22
REMARK    7  A    between atoms: C16_27  and  O6_28
ROOT
HETATM    1  C5  UNL     1      34.953  50.861  75.581  1.00  0.00     0.103 C
HETATM    2  C6  UNL     1      35.243  52.281  75.246  1.00  0.00     0.061 C
HETATM    3  C7  UNL     1      35.860  53.198  76.278  1.00  0.00     0.089 C
HETATM    4  C9  UNL     1      36.877  52.450  77.089  1.00  0.00     0.098 A
HETATM    5  O3  UNL     1      36.990  51.281  76.660  1.00  0.00    -0.313 OA
HETATM    6  C10 UNL     1      37.809  50.535  77.252  1.00  0.00     0.089 A
HETATM    7  C11 UNL     1      38.344  51.292  78.230  1.00  0.00     0.131 A
HETATM    8  C12 UNL     1      37.733  52.561  78.129  1.00  0.00     0.132 A
HETATM    9  C13 UNL     1      37.798  49.166  76.593  1.00  0.00     0.075 C
HETATM   10  C14 UNL     1      37.136  49.390  75.257  1.00  0.00     0.020 C
HETATM   11  C15 UNL     1      37.393  48.093  74.463  1.00  0.00     0.013 C
HETATM   12  C16 UNL     1      35.794  49.782  75.039  1.00  0.00     0.160 C
ENDROOT
BRANCH   1  13
HETATM   13  C4  UNL     1      33.658  50.610  74.757  1.00  0.00     0.015 C
HETATM   14  C2  UNL     1      32.872  49.613  74.849  1.00  0.00    -0.088 C
HETATM   15  C1  UNL     1      31.660  49.580  73.937  1.00  0.00     0.042 C
HETATM   16  C3  UNL     1      33.037  48.477  75.768  1.00  0.00     0.042 C
ENDBRANCH   1  13
BRANCH   1  17
HETATM   17  O1  UNL     1      34.440  50.669  76.868  1.00  0.00    -0.383 OA
ATOM     18  H1  UNL     1      35.066  50.030  77.187  1.00  0.00     0.211 HD
ENDBRANCH   1  17
BRANCH  12  19
HETATM   19  O6  UNL     1      35.711  50.028  73.599  1.00  0.00    -0.392 OA
ATOM     20  H6  UNL     1      35.693  50.977  73.562  1.00  0.00     0.210 HD
ENDBRANCH  12  19
BRANCH   3  21
HETATM   21  C8  UNL     1      34.921  53.838  77.193  1.00  0.00     0.098 C
HETATM   22  N1  UNL     1      35.314  54.806  77.983  1.00  0.00    -0.283 N
ATOM     23  H1  UNL     1      36.292  55.094  77.937  1.00  0.00     0.192 HD
BRANCH  22  24
HETATM   24  O2  UNL     1      34.504  55.447  78.857  1.00  0.00    -0.291 OA
ATOM     25  H2  UNL     1      33.985  56.212  78.639  1.00  0.00     0.244 HD
ENDBRANCH  22  24
ENDBRANCH   3  21
BRANCH   8  26
HETATM   26  O5  UNL     1      37.928  53.688  78.891  1.00  0.00    -0.356 OA
ATOM     27  H5  UNL     1      37.344  54.008  79.568  1.00  0.00     0.218 HD
ENDBRANCH   8  26
BRANCH   7  28
HETATM   28  O4  UNL     1      39.297  50.876  79.133  1.00  0.00    -0.356 OA
ATOM     29  H4  UNL     1      40.043  51.389  79.423  1.00  0.00     0.218 HD
ENDBRANCH   7  28
TORSDOF 7
ENDMDL