MODEL 3
REMARK VINA RESULT: -6.984970223      1.300      1.368
REMARK  4 active torsions:
REMARK  status: ('A' for Active; 'I' for Inactive)
REMARK    1  A    between atoms: N1_1  and  C1_4
REMARK    2  A    between atoms: C4_9  and  C5_10
REMARK    3  A    between atoms: C7_14  and  N4_15
REMARK    4  A    between atoms: C8_20  and  O1_21
ROOT
HETATM    1  C5  UNL     1      36.959  52.282  77.392  1.00  0.00     0.092 A
HETATM    2  N3  UNL     1      37.328  53.163  78.276  1.00  0.00    -0.345 N
ATOM      3  H3  UNL     1      36.856  54.066  78.312  1.00  0.00     0.167 HD
HETATM    4  C6  UNL     1      38.286  52.909  79.114  1.00  0.00     0.094 A
HETATM    5  C7  UNL     1      38.787  53.757  80.116  1.00  0.00     0.129 A
HETATM    6  N5  UNL     1      39.772  53.369  80.905  1.00  0.00    -0.322 N
ATOM      7  H5  UNL     1      40.090  54.032  81.611  1.00  0.00     0.169 HD
HETATM    8  C8  UNL     1      40.398  52.171  80.860  1.00  0.00     0.142 A
HETATM    9  C9  UNL     1      39.931  51.312  79.888  1.00  0.00     0.077 A
HETATM   10  C10 UNL     1      38.889  51.681  79.030  1.00  0.00     0.041 A
HETATM   11  S1  UNL     1      38.023  50.972  77.733  1.00  0.00    -0.069 SA
ENDROOT
BRANCH   1  12
HETATM   12  C4  UNL     1      35.934  52.283  76.339  1.00  0.00     0.042 A
HETATM   13  C3  UNL     1      34.766  51.628  76.307  1.00  0.00     0.053 A
HETATM   14  C2  UNL     1      33.963  51.797  75.181  1.00  0.00     0.059 A
HETATM   15  N2  UNL     1      32.767  51.295  74.846  1.00  0.00    -0.335 N
HETATM   16  C11 UNL     1      34.511  52.640  74.247  1.00  0.00     0.076 A
HETATM   17  C1  UNL     1      32.231  51.638  73.687  1.00  0.00     0.143 A
ATOM     18  H2  UNL     1      32.278  50.658  75.475  1.00  0.00     0.168 HD
HETATM   19  S3  UNL     1      33.360  52.687  72.981  1.00  0.00    -0.045 SA
HETATM   20  S2  UNL     1      36.017  53.152  74.881  1.00  0.00    -0.078 SA
BRANCH  17  21
HETATM   21  N1  UNL     1      31.073  51.242  73.203  1.00  0.00    -0.380 N
ATOM     22  H12 UNL     1      30.881  50.800  72.304  1.00  0.00     0.158 HD
ATOM     23  H11 UNL     1      30.162  51.315  73.657  1.00  0.00     0.158 HD
ENDBRANCH  17  21
ENDBRANCH   1  12
BRANCH   5  24
HETATM   24  N4  UNL     1      38.288  54.950  80.287  1.00  0.00    -0.384 N
ATOM     25  H42 UNL     1      38.632  55.709  79.699  1.00  0.00     0.157 HD
ATOM     26  H41 UNL     1      37.569  55.116  80.991  1.00  0.00     0.157 HD
ENDBRANCH   5  24
BRANCH   8  27
HETATM   27  O1  UNL     1      41.421  51.825  81.714  1.00  0.00    -0.346 OA
ATOM     28  H1  UNL     1      41.323  51.185  82.409  1.00  0.00     0.219 HD
ENDBRANCH   8  27
TORSDOF 4
ENDMDL