MODEL 2
REMARK VINA RESULT: -8.413377706      1.849      2.614
REMARK  3 active torsions:
REMARK  status: ('A' for Active; 'I' for Inactive)
REMARK    1  A    between atoms: N1_1  and  C1_4
REMARK    2  A    between atoms: C7_11  and  N3_12
REMARK    3  A    between atoms: N3_12  and  C8_14
ROOT
HETATM    1  C1  UNL     1      40.342  52.036  81.332  1.00  0.00     0.099 A
HETATM    2  C2  UNL     1      39.983  53.270  81.849  1.00  0.00     0.049 A
HETATM    3  C3  UNL     1      39.050  54.048  81.198  1.00  0.00     0.019 A
HETATM    4  C4  UNL     1      38.496  53.563  80.030  1.00  0.00     0.017 A
HETATM    5  C5  UNL     1      37.562  54.314  79.356  1.00  0.00     0.061 A
HETATM    6  N2  UNL     1      37.192  55.582  79.889  1.00  0.00    -0.101 NA
HETATM    7  C6  UNL     1      36.998  53.841  78.187  1.00  0.00     0.059 A
HETATM    8  C7  UNL     1      37.388  52.595  77.701  1.00  0.00     0.062 A
HETATM    9  C10 UNL     1      38.320  51.832  78.364  1.00  0.00     0.100 A
HETATM   10  N5  UNL     1      38.696  50.574  77.850  1.00  0.00    -0.098 NA
HETATM   11  C11 UNL     1      38.875  52.311  79.526  1.00  0.00     0.072 A
HETATM   12  N6  UNL     1      39.782  51.590  80.189  1.00  0.00    -0.341 N
ATOM     13  H6  UNL     1      40.058  50.678  79.822  1.00  0.00     0.167 HD
ENDROOT
BRANCH   8  14
HETATM   14  N3  UNL     1      36.829  52.081  76.505  1.00  0.00    -0.334 N
ATOM     15  H3  UNL     1      37.261  52.313  75.611  1.00  0.00     0.168 HD
BRANCH  14  16
HETATM   16  C8  UNL     1      35.755  51.304  76.525  1.00  0.00     0.157 A
HETATM   17  N4  UNL     1      35.754  49.981  76.541  1.00  0.00    -0.321 N
HETATM   18  C9  UNL     1      34.625  49.313  76.561  1.00  0.00     0.151 A
ATOM     19  H4  UNL     1      36.641  49.475  76.539  1.00  0.00     0.169 HD
HETATM   20  S1  UNL     1      34.491  47.645  76.583  1.00  0.00    -0.052 SA
HETATM   21  S2  UNL     1      33.186  50.234  76.566  1.00  0.00    -0.020 SA
HETATM   22  S3  UNL     1      34.221  52.057  76.532  1.00  0.00    -0.014 SA
ENDBRANCH  14  16
ENDBRANCH   8  14
BRANCH   1  23
HETATM   23  N1  UNL     1      41.218  51.324  81.958  1.00  0.00    -0.385 N
ATOM     24  H12 UNL     1      41.213  50.307  81.880  1.00  0.00     0.157 HD
ATOM     25  H11 UNL     1      41.918  51.792  82.533  1.00  0.00     0.157 HD
ENDBRANCH   1  23
TORSDOF 3
ENDMDL