MODEL 1
REMARK VINA RESULT: -7.061676276      0.000      0.000
REMARK  2 active torsions:
REMARK  status: ('A' for Active; 'I' for Inactive)
REMARK    1  A    between atoms: C7_16  and  C8_17
REMARK    2  A    between atoms: C9_20  and  O1_21
ROOT
HETATM    1  N1  UNL     1      32.861  50.603  77.254  1.00  0.00    -0.196 NA
HETATM    2  C1  UNL     1      33.296  50.471  76.175  1.00  0.00     0.075 C
HETATM    3  C2  UNL     1      33.868  50.285  74.823  1.00  0.00     0.182 C
HETATM    4  C3  UNL     1      34.692  49.077  74.886  1.00  0.00     0.068 C
HETATM    5  N2  UNL     1      34.400  48.134  75.656  1.00  0.00    -0.395 N
ATOM      6  H21 UNL     1      34.974  47.292  75.700  1.00  0.00     0.156 HD
ATOM      7  H22 UNL     1      33.569  48.196  76.243  1.00  0.00     0.156 HD
HETATM    8  S1  UNL     1      36.135  48.970  73.865  1.00  0.00    -0.061 SA
HETATM    9  C4  UNL     1      36.105  50.433  72.848  1.00  0.00     0.068 C
HETATM   10  N3  UNL     1      36.712  50.439  71.738  1.00  0.00    -0.395 N
ATOM     11  H31 UNL     1      36.694  51.276  71.156  1.00  0.00     0.156 HD
ATOM     12  H32 UNL     1      37.212  49.599  71.447  1.00  0.00     0.156 HD
HETATM   13  C5  UNL     1      35.379  51.651  73.270  1.00  0.00     0.182 C
HETATM   14  C6  UNL     1      36.265  52.799  73.283  1.00  0.00     0.075 C
HETATM   15  N4  UNL     1      36.966  53.757  73.280  1.00  0.00    -0.196 NA
HETATM   16  C7  UNL     1      34.622  51.536  74.514  1.00  0.00    -0.003 C
ENDROOT
BRANCH  16  17
HETATM   17  C8  UNL     1      35.033  52.336  75.694  1.00  0.00     0.074 A
HETATM   18  N5  UNL     1      34.511  53.502  76.183  1.00  0.00    -0.334 N
HETATM   19  C9  UNL     1      35.249  54.007  77.171  1.00  0.00     0.153 A
ATOM     20  H5  UNL     1      33.656  53.934  75.833  1.00  0.00     0.168 HD
HETATM   21  C10 UNL     1      36.324  53.154  77.383  1.00  0.00     0.050 A
HETATM   22  C11 UNL     1      36.179  52.143  76.467  1.00  0.00     0.110 A
HETATM   23  C14 UNL     1      37.338  53.132  78.421  1.00  0.00     0.017 C
HETATM   24  O2  UNL     1      37.145  51.168  76.490  1.00  0.00    -0.344 OA
HETATM   25  C12 UNL     1      38.007  50.962  77.564  1.00  0.00     0.203 C
HETATM   26  C13 UNL     1      38.131  52.094  78.493  1.00  0.00     0.001 C
BRANCH  19  27
HETATM   27  O1  UNL     1      35.027  55.180  77.896  1.00  0.00    -0.345 OA
ATOM     28  H1  UNL     1      35.029  55.294  78.839  1.00  0.00     0.219 HD
ENDBRANCH  19  27
ENDBRANCH  16  17
TORSDOF 2
ENDMDL