MODEL 4
REMARK VINA RESULT: -6.760117741      2.202      2.995
REMARK  4 active torsions:
REMARK  status: ('A' for Active; 'I' for Inactive)
REMARK    1  A    between atoms: C7_7  and  O1_8
REMARK    2  A    between atoms: C8_11  and  C9_12
REMARK    3  A    between atoms: C10_15  and  N2_16
REMARK    4  A    between atoms: C13_23  and  O3_24
ROOT
HETATM    1  C9  UNL     1      36.696  51.662  76.863  1.00  0.00     0.115 A
HETATM    2  N1  UNL     1      35.792  52.622  76.640  1.00  0.00    -0.187 N
ATOM      3  H1  UNL     1      35.112  52.479  75.894  1.00  0.00     0.184 HD
HETATM    4  C10 UNL     1      35.728  53.762  77.341  1.00  0.00     0.677 A
HETATM    5  N3  UNL     1      36.622  53.946  78.317  1.00  0.00    -0.190 N
ATOM      6  H3  UNL     1      36.578  54.813  78.853  1.00  0.00     0.184 HD
HETATM    7  C11 UNL     1      37.577  53.054  78.633  1.00  0.00     0.082 A
HETATM    8  C12 UNL     1      38.586  53.004  79.563  1.00  0.00     0.088 A
HETATM    9  C13 UNL     1      39.244  51.817  79.399  1.00  0.00     0.142 A
HETATM   10  N4  UNL     1      38.635  51.162  78.380  1.00  0.00    -0.333 N
ATOM     11  H4  UNL     1      38.918  50.244  78.038  1.00  0.00     0.168 HD
HETATM   12  C14 UNL     1      37.612  51.873  77.879  1.00  0.00     0.092 A
ENDROOT
BRANCH   1  13
HETATM   13  C8  UNL     1      36.726  50.436  76.072  1.00  0.00     0.142 A
HETATM   14  O2  UNL     1      37.682  49.586  75.923  1.00  0.00    -0.282 OA
HETATM   15  C7  UNL     1      37.375  48.599  75.145  1.00  0.00     0.193 A
HETATM   16  C6  UNL     1      36.078  48.813  74.732  1.00  0.00     0.036 A
HETATM   17  C5  UNL     1      35.102  48.111  73.856  1.00  0.00     0.049 C
HETATM   18  C15 UNL     1      35.652  49.986  75.318  1.00  0.00     0.117 A
HETATM   19  C4  UNL     1      33.739  48.219  74.507  1.00  0.00     0.042 C
HETATM   20  C2  UNL     1      33.295  49.633  74.716  1.00  0.00     0.061 C
HETATM   21  C1  UNL     1      32.233  49.609  75.818  1.00  0.00     0.046 C
HETATM   22  C3  UNL     1      32.613  50.151  73.471  1.00  0.00     0.046 C
HETATM   23  O4  UNL     1      34.374  50.488  75.104  1.00  0.00    -0.337 OA
BRANCH  15  24
HETATM   24  O1  UNL     1      38.143  47.495  74.749  1.00  0.00    -0.340 OA
ATOM     25  H1  UNL     1      39.093  47.484  74.760  1.00  0.00     0.220 HD
ENDBRANCH  15  24
ENDBRANCH   1  13
BRANCH   4  26
HETATM   26  N2  UNL     1      34.814  54.670  77.073  1.00  0.00    -0.234 N
ATOM     27  H22 UNL     1      34.750  55.100  76.150  1.00  0.00     0.174 HD
ATOM     28  H21 UNL     1      34.146  54.965  77.784  1.00  0.00     0.174 HD
ENDBRANCH   4  26
BRANCH   9  29
HETATM   29  O3  UNL     1      40.334  51.309  80.102  1.00  0.00    -0.346 OA
ATOM     30  H3  UNL     1      40.874  50.551  79.909  1.00  0.00     0.219 HD
ENDBRANCH   9  29
TORSDOF 4
ENDMDL