MODEL 5
REMARK VINA RESULT: -5.179768244      5.356      7.702
REMARK  2 active torsions:
REMARK  status: ('A' for Active; 'I' for Inactive)
REMARK    1  A    between atoms: C2_2  and  N1_5
REMARK    2  A    between atoms: C9_17  and  N5_18
ROOT
HETATM    1  N1  UNL     1      33.796  55.847  72.768  1.00  0.00    -0.331 N
HETATM    2  C5  UNL     1      32.914  55.380  73.756  1.00  0.00     0.184 A
HETATM    3  N2  UNL     1      33.449  54.414  74.493  1.00  0.00    -0.348 N
ATOM      4  H2  UNL     1      33.006  53.920  75.267  1.00  0.00     0.167 HD
HETATM    5  C6  UNL     1      34.675  54.219  74.024  1.00  0.00     0.100 A
HETATM    6  C7  UNL     1      35.648  53.339  74.400  1.00  0.00     0.131 A
HETATM    7  S1  UNL     1      35.306  52.330  75.661  1.00  0.00    -0.058 SA
HETATM    8  N3  UNL     1      36.822  53.273  73.802  1.00  0.00    -0.331 N
ATOM      9  H3  UNL     1      37.528  52.603  74.106  1.00  0.00     0.168 HD
HETATM   10  C8  UNL     1      37.062  54.114  72.779  1.00  0.00     0.124 A
HETATM   11  N4  UNL     1      38.268  54.045  72.192  1.00  0.00    -0.327 N
ATOM     12  H4  UNL     1      38.951  53.362  72.520  1.00  0.00     0.169 HD
HETATM   13  C9  UNL     1      38.579  54.856  71.188  1.00  0.00     0.125 A
HETATM   14  C10 UNL     1      37.699  55.779  70.723  1.00  0.00     0.139 A
HETATM   15  C11 UNL     1      38.051  56.661  69.625  1.00  0.00     0.107 C
HETATM   16  N6  UNL     1      38.359  57.366  68.729  1.00  0.00    -0.191 NA
HETATM   17  C12 UNL     1      36.420  55.891  71.305  1.00  0.00     0.212 A
HETATM   18  O1  UNL     1      35.705  56.818  70.757  1.00  0.00    -0.286 OA
HETATM   19  C13 UNL     1      36.136  55.041  72.327  1.00  0.00     0.089 A
HETATM   20  C14 UNL     1      34.889  55.109  72.958  1.00  0.00     0.084 A
ENDROOT
BRANCH  13  21
HETATM   21  N5  UNL     1      39.744  54.782  70.620  1.00  0.00    -0.384 N
ATOM     22  H52 UNL     1      40.033  53.885  70.230  1.00  0.00     0.157 HD
ATOM     23  H51 UNL     1      40.348  55.603  70.571  1.00  0.00     0.157 HD
ENDBRANCH  13  21
BRANCH   1  24
HETATM   24  C2  UNL     1      33.407  56.842  71.841  1.00  0.00     0.027 C
HETATM   25  C1  UNL     1      33.782  58.278  72.110  1.00  0.00     0.038 C
HETATM   26  C3  UNL     1      31.888  57.103  72.322  1.00  0.00     0.038 C
HETATM   27  C4  UNL     1      32.959  56.473  70.442  1.00  0.00     0.038 C
ENDBRANCH   1  24
TORSDOF 2
ENDMDL