MODEL 2
REMARK VINA RESULT: -6.576182360      4.144      6.538
REMARK  4 active torsions:
REMARK  status: ('A' for Active; 'I' for Inactive)
REMARK    1  A    between atoms: N1_1  and  C1_4
REMARK    2  A    between atoms: C1_4  and  C2_6
REMARK    3  A    between atoms: C6_11  and  C7_12
REMARK    4  A    between atoms: N3_13  and  O1_15
ROOT
HETATM    1  C2  UNL     1      34.072  55.163  73.469  1.00  0.00     0.048 A
HETATM    2  C3  UNL     1      34.342  54.661  74.668  1.00  0.00     0.053 A
HETATM    3  C4  UNL     1      34.942  53.418  74.856  1.00  0.00     0.052 A
HETATM    4  C5  UNL     1      35.175  52.859  73.635  1.00  0.00     0.044 A
HETATM    5  S1  UNL     1      34.618  53.958  72.410  1.00  0.00    -0.084 SA
HETATM    6  C6  UNL     1      35.780  51.522  73.324  1.00  0.00     0.002 C
HETATM    7  C8  UNL     1      36.168  50.770  74.410  1.00  0.00     0.039 C
HETATM    8  C9  UNL     1      36.720  49.636  74.996  1.00  0.00     0.143 C
HETATM    9  O2  UNL     1      36.733  49.988  76.385  1.00  0.00    -0.320 OA
HETATM   10  C10 UNL     1      36.937  51.193  77.042  1.00  0.00     0.103 A
HETATM   11  C11 UNL     1      38.006  51.049  77.961  1.00  0.00     0.066 A
HETATM   12  C12 UNL     1      38.468  52.036  78.785  1.00  0.00     0.049 A
HETATM   13  N4  UNL     1      39.544  51.860  79.689  1.00  0.00    -0.102 NA
HETATM   14  C13 UNL     1      37.872  53.250  78.736  1.00  0.00     0.029 A
HETATM   15  C14 UNL     1      36.851  53.401  77.864  1.00  0.00     0.034 A
HETATM   16  C15 UNL     1      36.313  52.433  76.970  1.00  0.00     0.067 A
HETATM   17  N5  UNL     1      35.246  52.942  76.196  1.00  0.00    -0.353 N
ATOM     18  H5  UNL     1      34.406  52.991  76.771  1.00  0.00     0.166 HD
ENDROOT
BRANCH   1  19
HETATM   19  C1  UNL     1      33.461  56.441  73.074  1.00  0.00     0.127 C
HETATM   20  N2  UNL     1      32.509  57.024  73.909  1.00  0.00    -0.082 NA
BRANCH  19  21
HETATM   21  N1  UNL     1      33.800  56.982  71.986  1.00  0.00    -0.387 N
ATOM     22  H12 UNL     1      33.793  56.432  71.128  1.00  0.00     0.157 HD
ATOM     23  H11 UNL     1      34.075  57.963  71.944  1.00  0.00     0.157 HD
ENDBRANCH  19  21
ENDBRANCH   1  19
BRANCH   6  24
HETATM   24  C7  UNL     1      35.910  51.124  72.089  1.00  0.00     0.126 C
HETATM   25  N3  UNL     1      36.499  50.867  70.962  1.00  0.00    -0.280 N
ATOM     26  H3  UNL     1      35.960  50.830  70.097  1.00  0.00     0.193 HD
BRANCH  25  27
HETATM   27  O1  UNL     1      37.877  50.641  70.941  1.00  0.00    -0.290 OA
ATOM     28  H1  UNL     1      38.394  50.967  70.214  1.00  0.00     0.244 HD
ENDBRANCH  25  27
ENDBRANCH   6  24
TORSDOF 4
ENDMDL