MODEL 2
REMARK VINA RESULT: -3.692331777      1.268      1.268
REMARK  2 active torsions:
REMARK  status: ('A' for Active; 'I' for Inactive)
REMARK    1  A    between atoms: C2_2  and  C3_3
REMARK       I    between atoms: C3_3  and  N1_5
REMARK    2  A    between atoms: N1_5  and  C4_7
ROOT
HETATM    1  C3  UNL     1      34.861  20.564  11.384  1.00  0.00     0.240 C
HETATM    2  O1  UNL     1      35.185  20.558  10.147  1.00  0.00    -0.269 OA
HETATM    3  N1  UNL     1      34.062  19.509  11.904  1.00  0.00    -0.353 N
ATOM      4  H1  UNL     1      33.792  19.496  12.888  1.00  0.00     0.163 HD
ENDROOT
BRANCH   3   5
HETATM    5  C4  UNL     1      33.631  18.432  10.990  1.00  0.00     0.084 A
HETATM    6  C5  UNL     1      32.296  17.843  11.365  1.00  0.00     0.027 A
HETATM    7  C6  UNL     1      33.560  17.041  11.485  1.00  0.00     0.027 A
ENDBRANCH   3   5
BRANCH   1   8
HETATM    8  C2  UNL     1      35.309  21.639  12.231  1.00  0.00     0.064 C
HETATM    9  C1  UNL     1      34.602  22.073  13.226  1.00  0.00     0.017 C
ENDBRANCH   1   8
TORSDOF 2
ENDMDL