MODEL 5
REMARK VINA RESULT: -3.694826903      2.388      2.461
REMARK  2 active torsions:
REMARK  status: ('A' for Active; 'I' for Inactive)
REMARK    1  A    between atoms: C1_2  and  C2_3
REMARK       I    between atoms: C2_3  and  N1_5
REMARK    2  A    between atoms: N1_5  and  C3_7
ROOT
HETATM    1  C2  UNL     1      34.585  20.880   9.352  1.00  0.00     0.279 C
HETATM    2  O2  UNL     1      35.798  21.179   9.357  1.00  0.00    -0.265 OA
HETATM    3  N1  UNL     1      33.959  20.509  10.554  1.00  0.00    -0.350 N
ATOM      4  H1  UNL     1      32.968  20.268  10.522  1.00  0.00     0.163 HD
ENDROOT
BRANCH   3   5
HETATM    5  C3  UNL     1      34.633  20.447  11.833  1.00  0.00     0.085 A
HETATM    6  C4  UNL     1      35.285  21.628  12.418  1.00  0.00     0.027 A
HETATM    7  C5  UNL     1      33.912  21.217  12.931  1.00  0.00     0.027 A
ENDBRANCH   3   5
BRANCH   1   8
HETATM    8  C1  UNL     1      33.818  20.911   8.122  1.00  0.00     0.332 C
HETATM    9  O1  UNL     1      34.116  21.651   7.150  1.00  0.00    -0.297 OA
ENDBRANCH   1   8
TORSDOF 2
ENDMDL