MODEL 3
REMARK VINA RESULT: -4.536688704      2.252      2.288
REMARK  2 active torsions:
REMARK  status: ('A' for Active; 'I' for Inactive)
REMARK    1  A    between atoms: C1_2  and  N1_3
REMARK    2  A    between atoms: N1_3  and  C2_5
ROOT
HETATM    1  C2  UNL     1      34.015  22.179  10.765  1.00  0.00     0.106 A
HETATM    2  C3  UNL     1      35.150  21.904  11.174  1.00  0.00    -0.006 A
HETATM    3  C4  UNL     1      35.518  21.685  11.809  1.00  0.00    -0.029 A
HETATM    4  C5  UNL     1      35.297  21.415  12.996  1.00  0.00     0.029 A
HETATM    5  C6  UNL     1      33.565  21.792  12.504  1.00  0.00     0.033 A
ENDROOT
BRANCH   1   6
HETATM    6  N1  UNL     1      33.402  23.494  10.718  1.00  0.00    -0.360 N
ATOM      7  H1  UNL     1      33.673  24.197  11.405  1.00  0.00     0.162 HD
BRANCH   6   8
HETATM    8  C1  UNL     1      32.439  23.820   9.737  1.00  0.00     0.349 C
HETATM    9  O1  UNL     1      32.590  24.797   8.970  1.00  0.00    -0.284 OA
ENDBRANCH   6   8
ENDBRANCH   1   6
TORSDOF 2
ENDMDL