MODEL 3
REMARK VINA RESULT: -4.090726543      1.926      2.824
REMARK  1 active torsions:
REMARK  status: ('A' for Active; 'I' for Inactive)
REMARK    1  A    between atoms: C2_2  and  C3_3
ROOT
HETATM    1  C3  UNL     1      33.764  20.344  12.290  1.00  0.00     0.130 A
HETATM    2  C4  UNL     1      35.057  21.000  12.549  1.00  0.00     0.007 A
HETATM    3  C5  UNL     1      35.114  22.103  11.843  1.00  0.00     0.072 A
HETATM    4  C6  UNL     1      33.899  22.291  11.063  1.00  0.00     0.241 A
HETATM    5  O1  UNL     1      33.693  23.280  10.291  1.00  0.00    -0.269 OA
HETATM    6  N1  UNL     1      33.080  21.188  11.358  1.00  0.00    -0.347 N
ATOM      7  H1  UNL     1      32.152  21.018  10.971  1.00  0.00     0.163 HD
ENDROOT
BRANCH   1   8
HETATM    8  C2  UNL     1      33.957  19.031  11.592  1.00  0.00    -0.008 C
HETATM    9  C1  UNL     1      32.966  18.150  11.544  1.00  0.00     0.009 C
ENDBRANCH   1   8
TORSDOF 1
ENDMDL