MODEL 4
REMARK VINA RESULT: -4.238818160      1.912      1.956
REMARK  2 active torsions:
REMARK  status: ('A' for Active; 'I' for Inactive)
REMARK    1  A    between atoms: C1_2  and  N1_3
REMARK       I    between atoms: N1_3  and  C2_5
REMARK    2  A    between atoms: C2_5  and  C3_7
ROOT
HETATM    1  N1  UNL     1      33.344  20.910   9.623  1.00  0.00    -0.305 N
ATOM      2  H1  UNL     1      32.503  20.648  10.138  1.00  0.00     0.171 HD
HETATM    3  C2  UNL     1      34.626  20.850  10.249  1.00  0.00     0.227 C
HETATM    4  O2  UNL     1      35.648  21.180   9.589  1.00  0.00    -0.273 OA
ENDROOT
BRANCH   3   5
HETATM    5  C3  UNL     1      34.801  20.411  11.650  1.00  0.00     0.078 A
HETATM    6  C4  UNL     1      35.234  21.541  12.613  1.00  0.00     0.015 A
HETATM    7  C5  UNL     1      33.904  20.924  12.718  1.00  0.00     0.015 A
ENDBRANCH   3   5
BRANCH   1   8
HETATM    8  C1  UNL     1      33.260  21.339   8.280  1.00  0.00     0.355 C
HETATM    9  O1  UNL     1      32.958  22.525   7.977  1.00  0.00    -0.283 OA
ENDBRANCH   1   8
TORSDOF 2
ENDMDL