MODEL 4
REMARK VINA RESULT: -4.028648893      1.950      2.265
REMARK  1 active torsions:
REMARK  status: ('A' for Active; 'I' for Inactive)
REMARK    1  A    between atoms: C2_2  and  C3_3
ROOT
HETATM    1  C3  UNL     1      34.088  20.548  12.547  1.00  0.00     0.101 C
HETATM    2  C4  UNL     1      35.328  21.335  12.915  1.00  0.00     0.037 C
HETATM    3  C5  UNL     1      35.631  22.093  11.653  1.00  0.00     0.123 C
HETATM    4  N1  UNL     1      35.172  21.200  10.586  1.00  0.00    -0.360 N
ATOM      5  H1  UNL     1      35.361  21.327   9.592  1.00  0.00     0.162 HD
HETATM    6  C6  UNL     1      34.422  20.130  11.148  1.00  0.00     0.225 C
HETATM    7  O1  UNL     1      34.122  19.066  10.549  1.00  0.00    -0.273 OA
ENDROOT
BRANCH   1   8
HETATM    8  C2  UNL     1      32.883  21.387  12.479  1.00  0.00    -0.023 C
HETATM    9  C1  UNL     1      31.695  20.814  12.431  1.00  0.00     0.008 C
ENDBRANCH   1   8
TORSDOF 1
ENDMDL