MODEL 2
REMARK VINA RESULT: -4.238190908      2.683      3.661
REMARK  1 active torsions:
REMARK  status: ('A' for Active; 'I' for Inactive)
REMARK    1  A    between atoms: C2_2  and  C3_3
ROOT
HETATM    1  C3  UNL     1      35.147  20.955  11.682  1.00  0.00     0.034 C
HETATM    2  C4  UNL     1      34.265  19.722  11.467  1.00  0.00     0.131 C
HETATM    3  N1  UNL     1      34.213  19.672  10.013  1.00  0.00    -0.360 N
ATOM      4  H1  UNL     1      34.076  18.827   9.457  1.00  0.00     0.162 HD
HETATM    5  C5  UNL     1      34.383  20.980   9.488  1.00  0.00     0.218 C
HETATM    6  O1  UNL     1      34.354  21.288   8.275  1.00  0.00    -0.274 OA
HETATM    7  C6  UNL     1      34.597  21.892  10.640  1.00  0.00     0.113 C
ENDROOT
BRANCH   1   8
HETATM    8  C2  UNL     1      35.074  21.465  13.046  1.00  0.00    -0.030 C
HETATM    9  C1  UNL     1      34.122  22.332  13.371  1.00  0.00     0.007 C
ENDBRANCH   1   8
TORSDOF 1
ENDMDL