MODEL 2
REMARK VINA RESULT: -4.007366038      2.722      3.725
REMARK  2 active torsions:
REMARK  status: ('A' for Active; 'I' for Inactive)
REMARK    1  A    between atoms: C2_2  and  C3_3
REMARK    2  A    between atoms: C5_5  and  C6_6
ROOT
HETATM    1  C3  UNL     1      34.154  22.052  12.482  1.00  0.00     0.021 A
HETATM    2  C4  UNL     1      35.117  20.937  12.572  1.00  0.00     0.023 A
HETATM    3  C5  UNL     1      34.161  20.929  11.429  1.00  0.00     0.083 A
ENDROOT
BRANCH   3   4
HETATM    4  C6  UNL     1      34.591  21.309  10.069  1.00  0.00     0.235 C
HETATM    5  N1  UNL     1      33.607  21.774   9.154  1.00  0.00    -0.062 NA
HETATM    6  O1  UNL     1      35.764  21.251   9.663  1.00  0.00    -0.276 OA
ENDBRANCH   3   4
BRANCH   1   7
HETATM    7  C2  UNL     1      32.979  22.145  13.360  1.00  0.00    -0.031 C
HETATM    8  C1  UNL     1      32.537  23.317  13.796  1.00  0.00     0.007 C
ENDBRANCH   1   7
TORSDOF 2
ENDMDL