MODEL 1
REMARK VINA RESULT: -4.082058290      0.000      0.000
REMARK  1 active torsions:
REMARK  status: ('A' for Active; 'I' for Inactive)
REMARK    1  A    between atoms: N2_4  and  N3_6
ROOT
HETATM    1  N3  UNL     1      34.676  20.813   8.771  1.00  0.00    -0.275 N
ATOM      2  H3  UNL     1      35.031  19.867   8.637  1.00  0.00     0.189 HD
HETATM    3  C1  UNL     1      34.633  21.214   9.957  1.00  0.00     0.094 C
HETATM    4  C2  UNL     1      34.970  20.675  11.288  1.00  0.00     0.097 C
HETATM    5  C3  UNL     1      35.233  22.151  11.607  1.00  0.00     0.128 C
HETATM    6  N4  UNL     1      34.226  22.413  10.588  1.00  0.00    -0.378 N
ATOM      7  H4  UNL     1      33.533  23.139  10.409  1.00  0.00     0.160 HD
ENDROOT
BRANCH   1   8
HETATM    8  N2  UNL     1      34.309  21.478   7.632  1.00  0.00    -0.248 N
HETATM    9  N1  UNL     1      35.063  21.694   6.638  1.00  0.00    -0.331 N
ATOM     10  H12 UNL     1      36.017  21.338   6.707  1.00  0.00     0.178 HD
ATOM     11  H11 UNL     1      34.789  22.190   5.788  1.00  0.00     0.178 HD
ATOM     12  H2  UNL     1      33.352  21.828   7.580  1.00  0.00     0.207 HD
ENDBRANCH   1   8
TORSDOF 1
ENDMDL