MODEL 2
REMARK VINA RESULT: -7.085120137      1.653      2.547
REMARK  12 active torsions:
REMARK  status: ('A' for Active; 'I' for Inactive)
REMARK    1  A    between atoms: C2_2  and  C4_4
REMARK    2  A    between atoms: C5_6  and  C6_7
REMARK    3  A    between atoms: C7_10  and  O4_11
REMARK    4  A    between atoms: C8_13  and  O5_14
REMARK    5  A    between atoms: O5_14  and  C9_15
REMARK    6  A    between atoms: C10_17  and  C11_18
REMARK    7  A    between atoms: C11_18  and  O7_19
REMARK    8  A    between atoms: C12_21  and  O8_22
REMARK    9  A    between atoms: C13_24  and  O9_25
REMARK   10  A    between atoms: C14_27  and  O10_28
REMARK   11  A    between atoms: C15_30  and  N1_31
REMARK   12  A    between atoms: N1_31  and  C16_33
ROOT
HETATM    1  C4  UNL     1       4.719   4.699   5.509  1.00  0.00     0.175 C
HETATM    2  O1  UNL     1       5.859   4.392   4.718  1.00  0.00    -0.361 OA
HETATM    3  C5  UNL     1       6.540   3.290   5.195  1.00  0.00     0.254 C
HETATM    4  C7  UNL     1       6.836   3.531   6.645  1.00  0.00     0.189 C
HETATM    5  C8  UNL     1       6.589   5.008   7.036  1.00  0.00     0.181 C
HETATM    6  C15 UNL     1       5.062   5.130   6.876  1.00  0.00     0.142 C
ENDROOT
BRANCH   5   7
HETATM    7  O5  UNL     1       7.021   5.084   8.323  1.00  0.00    -0.348 OA
BRANCH   7   8
HETATM    8  C9  UNL     1       7.653   6.252   8.722  1.00  0.00     0.292 C
HETATM    9  O6  UNL     1       6.839   7.085   9.440  1.00  0.00    -0.348 OA
HETATM   10  C10 UNL     1       7.471   8.107  10.056  1.00  0.00     0.179 C
HETATM   11  C12 UNL     1       7.942   9.099   9.020  1.00  0.00     0.180 C
HETATM   12  C13 UNL     1       8.267   8.484   7.699  1.00  0.00     0.183 C
HETATM   13  C14 UNL     1       8.311   7.020   7.635  1.00  0.00     0.204 C
BRANCH  10  14
HETATM   14  C11 UNL     1       8.585   7.730  11.011  1.00  0.00     0.198 C
BRANCH  14  15
HETATM   15  O7  UNL     1       9.328   8.851  11.384  1.00  0.00    -0.398 OA
ATOM     16  H7  UNL     1      10.204   8.605  11.658  1.00  0.00     0.209 HD
ENDBRANCH  14  15
ENDBRANCH  10  14
BRANCH  11  17
HETATM   17  O8  UNL     1       6.933  10.066   8.898  1.00  0.00    -0.390 OA
ATOM     18  H8  UNL     1       7.342  10.843   8.536  1.00  0.00     0.210 HD
ENDBRANCH  11  17
BRANCH  12  19
HETATM   19  O9  UNL     1       9.436   9.081   7.224  1.00  0.00    -0.390 OA
ATOM     20  H9  UNL     1       9.387   9.105   6.275  1.00  0.00     0.210 HD
ENDBRANCH  12  19
BRANCH  13  21
HETATM   21  O10 UNL     1       9.667   6.621   7.583  1.00  0.00    -0.388 OA
ATOM     22  H10 UNL     1      10.203   7.395   7.707  1.00  0.00     0.210 HD
ENDBRANCH  13  21
ENDBRANCH   7   8
ENDBRANCH   5   7
BRANCH   4  23
HETATM   23  O4  UNL     1       8.160   3.186   6.862  1.00  0.00    -0.390 OA
ATOM     24  H4  UNL     1       8.696   3.904   6.546  1.00  0.00     0.210 HD
ENDBRANCH   4  23
BRANCH   6  25
HETATM   25  N1  UNL     1       4.675   6.485   7.181  1.00  0.00    -0.408 N
ATOM     26  H1  UNL     1       5.295   7.265   6.962  1.00  0.00     0.154 HD
BRANCH  25  27
HETATM   27  C16 UNL     1       3.436   6.707   7.781  1.00  0.00     0.077 C
HETATM   28  C17 UNL     1       3.048   5.660   8.799  1.00  0.00     0.024 C
HETATM   29  C18 UNL     1       2.392   6.280  10.017  1.00  0.00     0.002 C
HETATM   30  C19 UNL     1       1.388   7.320   9.559  1.00  0.00     0.000 C
HETATM   31  C20 UNL     1       2.136   8.476   8.978  1.00  0.00     0.002 C
HETATM   32  C21 UNL     1       3.514   8.043   8.536  1.00  0.00     0.024 C
ENDBRANCH  25  27
ENDBRANCH   6  25
BRANCH   3  33
HETATM   33  C6  UNL     1       7.792   3.172   4.416  1.00  0.00     0.205 C
HETATM   34  O2  UNL     1       8.373   4.208   4.006  1.00  0.00    -0.646 OA
HETATM   35  O3  UNL     1       8.355   1.963   4.118  1.00  0.00    -0.646 OA
ENDBRANCH   3  33
BRANCH   1  36
HETATM   36  C2  UNL     1       3.839   3.522   5.370  1.00  0.00    -0.062 C
HETATM   37  C1  UNL     1       3.312   2.779   6.315  1.00  0.00     0.016 C
HETATM   38  C3  UNL     1       3.473   3.099   3.961  1.00  0.00     0.045 C
ENDBRANCH   1  36
TORSDOF 12
ENDMDL