MODEL 1
REMARK VINA RESULT: -6.280815886      0.000      0.000
REMARK  13 active torsions:
REMARK  status: ('A' for Active; 'I' for Inactive)
REMARK    1  A    between atoms: C2_2  and  O1_3
REMARK    2  A    between atoms: N1_6  and  C4_7
REMARK    3  A    between atoms: C7_10  and  O2_11
REMARK    4  A    between atoms: O2_11  and  C8_12
REMARK    5  A    between atoms: C8_12  and  C9_13
REMARK    6  A    between atoms: C10_15  and  O4_16
REMARK    7  A    between atoms: O4_16  and  C11_17
REMARK    8  A    between atoms: C11_17  and  C12_18
REMARK    9  A    between atoms: C18_24  and  O5_25
REMARK   10  A    between atoms: C19_27  and  O6_28
REMARK   11  A    between atoms: C20_30  and  O7_31
REMARK   12  A    between atoms: C21_33  and  O8_34
REMARK   13  A    between atoms: C22_36  and  O9_37
ROOT
HETATM    1  C9  UNL     1       6.655   5.731   8.332  1.00  0.00     0.180 C
HETATM    2  O3  UNL     1       5.563   6.437   8.748  1.00  0.00    -0.348 OA
HETATM    3  C10 UNL     1       5.633   7.812   8.643  1.00  0.00     0.291 C
HETATM    4  C18 UNL     1       7.051   8.346   8.736  1.00  0.00     0.204 C
HETATM    5  C19 UNL     1       7.767   7.430   9.703  1.00  0.00     0.183 C
HETATM    6  C20 UNL     1       7.969   6.118   8.973  1.00  0.00     0.180 C
ENDROOT
BRANCH   1   7
HETATM    7  C8  UNL     1       6.779   5.559   6.835  1.00  0.00     0.205 C
BRANCH   7   8
HETATM    8  O2  UNL     1       6.005   4.577   6.294  1.00  0.00    -0.352 OA
BRANCH   8   9
HETATM    9  C7  UNL     1       4.649   4.759   6.300  1.00  0.00     0.391 C
HETATM   10  N1  UNL     1       3.935   3.481   6.443  1.00  0.00     0.127 N
HETATM   11  C3  UNL     1       4.725   2.486   5.803  1.00  0.00     0.316 C
HETATM   12  C2  UNL     1       4.752   2.758   4.316  1.00  0.00     0.109 C
HETATM   13  C1  UNL     1       3.558   2.126   3.630  1.00  0.00     0.050 C
HETATM   14  C22 UNL     1       4.977   4.185   3.964  1.00  0.00     0.187 C
HETATM   15  C21 UNL     1       4.273   5.177   4.862  1.00  0.00     0.209 C
BRANCH  10  16
HETATM   16  C4  UNL     1       3.485   3.211   7.758  1.00  0.00     0.226 A
HETATM   17  C5  UNL     1       2.780   4.281   8.499  1.00  0.00     0.038 A
HETATM   18  C6  UNL     1       1.955   3.149   7.956  1.00  0.00     0.038 A
ENDBRANCH  10  16
BRANCH  12  19
HETATM   19  O1  UNL     1       5.880   2.044   3.837  1.00  0.00    -0.386 OA
ATOM     20  H1  UNL     1       6.615   2.635   3.947  1.00  0.00     0.210 HD
ENDBRANCH  12  19
BRANCH  14  21
HETATM   21  O9  UNL     1       4.581   4.408   2.653  1.00  0.00    -0.390 OA
ATOM     22  H9  UNL     1       4.478   5.341   2.507  1.00  0.00     0.210 HD
ENDBRANCH  14  21
BRANCH  15  23
HETATM   23  O8  UNL     1       2.906   5.137   4.713  1.00  0.00    -0.388 OA
ATOM     24  H8  UNL     1       2.653   4.312   4.315  1.00  0.00     0.210 HD
ENDBRANCH  15  23
ENDBRANCH   8   9
ENDBRANCH   7   8
ENDBRANCH   1   7
BRANCH   6  25
HETATM   25  O7  UNL     1       8.961   6.337   8.011  1.00  0.00    -0.390 OA
ATOM     26  H7  UNL     1       9.700   5.754   8.136  1.00  0.00     0.210 HD
ENDBRANCH   6  25
BRANCH   3  27
HETATM   27  O4  UNL     1       4.802   8.405   9.571  1.00  0.00    -0.358 OA
BRANCH  27  28
HETATM   28  C11 UNL     1       3.832   9.232   9.114  1.00  0.00     0.175 C
BRANCH  28  29
HETATM   29  C12 UNL     1       2.573   8.474   8.777  1.00  0.00     0.009 C
HETATM   30  C13 UNL     1       1.388   9.426   8.631  1.00  0.00     0.007 C
HETATM   31  C14 UNL     1       0.770   9.796   9.947  1.00  0.00     0.000 C
HETATM   32  C15 UNL     1      -0.002   8.604  10.467  1.00  0.00     0.000 C
HETATM   33  C16 UNL     1       0.696   7.377   9.939  1.00  0.00     0.000 C
HETATM   34  C17 UNL     1       2.195   7.514   9.907  1.00  0.00     0.007 C
ENDBRANCH  28  29
ENDBRANCH  27  28
ENDBRANCH   3  27
BRANCH   5  35
HETATM   35  O6  UNL     1       8.987   8.030  10.028  1.00  0.00    -0.390 OA
ATOM     36  H6  UNL     1       9.197   7.787  10.922  1.00  0.00     0.210 HD
ENDBRANCH   5  35
BRANCH   4  37
HETATM   37  O5  UNL     1       7.074   9.671   9.160  1.00  0.00    -0.388 OA
ATOM     38  H5  UNL     1       7.741   9.817   9.821  1.00  0.00     0.210 HD
ENDBRANCH   4  37
TORSDOF 13
ENDMDL