MODEL 3
REMARK VINA RESULT: -6.386262346      3.562      6.969
REMARK  12 active torsions:
REMARK  status: ('A' for Active; 'I' for Inactive)
REMARK    1  A    between atoms: C2_2  and  C3_3
REMARK    2  A    between atoms: C3_3  and  C4_4
REMARK    3  A    between atoms: C5_6  and  O2_7
REMARK    4  A    between atoms: O2_7  and  C6_8
REMARK    5  A    between atoms: C7_10  and  C8_11
REMARK    6  A    between atoms: C8_11  and  N1_12
REMARK    7  A    between atoms: N1_12  and  C9_14
REMARK    8  A    between atoms: C19_24  and  O4_25
REMARK    9  A    between atoms: C20_27  and  O5_28
REMARK   10  A    between atoms: C21_30  and  O6_31
REMARK   11  A    between atoms: C22_33  and  O7_34
REMARK   12  A    between atoms: C23_36  and  O8_37
ROOT
HETATM    1  C6  UNL     1       4.307   4.858   7.405  1.00  0.00     0.294 C
HETATM    2  O3  UNL     1       5.334   4.032   7.830  1.00  0.00    -0.349 OA
HETATM    3  C7  UNL     1       5.346   2.788   7.210  1.00  0.00     0.173 C
HETATM    4  C19 UNL     1       5.798   3.021   5.797  1.00  0.00     0.180 C
HETATM    5  C20 UNL     1       5.187   4.206   5.140  1.00  0.00     0.183 C
HETATM    6  C21 UNL     1       4.154   4.940   5.932  1.00  0.00     0.204 C
ENDROOT
BRANCH   1   7
HETATM    7  O2  UNL     1       4.505   6.128   7.933  1.00  0.00    -0.326 OA
BRANCH   7   8
HETATM    8  C5  UNL     1       3.886   6.367   9.125  1.00  0.00     0.294 C
HETATM    9  O1  UNL     1       4.761   7.108   9.913  1.00  0.00    -0.351 OA
HETATM   10  C4  UNL     1       4.706   8.423   9.478  1.00  0.00     0.156 C
HETATM   11  C23 UNL     1       3.497   8.609   8.628  1.00  0.00     0.180 C
HETATM   12  C22 UNL     1       2.723   7.310   8.897  1.00  0.00     0.204 C
BRANCH  10  13
HETATM   13  C3  UNL     1       5.970   8.751   8.712  1.00  0.00     0.034 C
BRANCH  13  14
HETATM   14  C2  UNL     1       7.039   9.295   9.622  1.00  0.00    -0.002 C
HETATM   15  C1  UNL     1       8.088   8.310  10.010  1.00  0.00     0.005 C
ENDBRANCH  13  14
ENDBRANCH  10  13
BRANCH  11  16
HETATM   16  O8  UNL     1       2.736   9.718   8.982  1.00  0.00    -0.390 OA
ATOM     17  H8  UNL     1       1.804   9.599   8.839  1.00  0.00     0.210 HD
ENDBRANCH  11  16
BRANCH  12  18
HETATM   18  O7  UNL     1       1.965   7.444  10.067  1.00  0.00    -0.388 OA
ATOM     19  H7  UNL     1       1.304   8.118   9.959  1.00  0.00     0.210 HD
ENDBRANCH  12  18
ENDBRANCH   7   8
ENDBRANCH   1   7
BRANCH   6  20
HETATM   20  O6  UNL     1       4.220   6.293   5.517  1.00  0.00    -0.388 OA
ATOM     21  H6  UNL     1       3.644   6.431   4.775  1.00  0.00     0.210 HD
ENDBRANCH   6  20
BRANCH   3  22
HETATM   22  C8  UNL     1       4.042   2.062   7.339  1.00  0.00     0.149 C
BRANCH  22  23
HETATM   23  N1  UNL     1       3.785   1.464   8.599  1.00  0.00    -0.410 N
ATOM     24  H1  UNL     1       4.540   1.077   9.166  1.00  0.00     0.154 HD
BRANCH  23  25
HETATM   25  C9  UNL     1       2.432   1.425   9.042  1.00  0.00     0.026 C
HETATM   26  C10 UNL     1       2.258   0.990  10.477  1.00  0.00     0.035 C
HETATM   27  C11 UNL     1       0.787   0.960  10.808  1.00  0.00    -0.012 C
HETATM   28  C12 UNL     1       0.250   2.365  10.752  1.00  0.00     0.009 C
HETATM   29  C16 UNL     1       0.030   0.050   9.875  1.00  0.00     0.009 C
HETATM   30  C13 UNL     1       0.466   2.886   9.359  1.00  0.00    -0.012 C
HETATM   31  C14 UNL     1      -0.371   2.044   8.415  1.00  0.00     0.009 C
HETATM   32  C18 UNL     1       1.924   2.875   8.979  1.00  0.00     0.035 C
HETATM   33  C15 UNL     1       0.117   0.630   8.495  1.00  0.00    -0.012 C
HETATM   34  C17 UNL     1       1.596   0.644   8.084  1.00  0.00     0.035 C
ENDBRANCH  23  25
ENDBRANCH  22  23
ENDBRANCH   3  22
BRANCH   5  35
HETATM   35  O5  UNL     1       6.190   5.109   4.710  1.00  0.00    -0.390 OA
ATOM     36  H5  UNL     1       6.210   5.158   3.762  1.00  0.00     0.210 HD
ENDBRANCH   5  35
BRANCH   4  37
HETATM   37  O4  UNL     1       7.199   3.234   5.875  1.00  0.00    -0.390 OA
ATOM     38  H4  UNL     1       7.317   3.925   6.517  1.00  0.00     0.210 HD
ENDBRANCH   4  37
TORSDOF 12
ENDMDL