MODEL 5
REMARK VINA RESULT: -6.342745568      2.736      5.681
REMARK  11 active torsions:
REMARK  status: ('A' for Active; 'I' for Inactive)
REMARK    1  A    between atoms: C2_2  and  S1_4
REMARK    2  A    between atoms: S1_4  and  C4_5
REMARK    3  A    between atoms: C5_7  and  O2_8
REMARK    4  A    between atoms: O2_8  and  C6_9
REMARK    5  A    between atoms: C7_11  and  C8_12
REMARK    6  A    between atoms: C8_12  and  O4_13
REMARK    7  A    between atoms: C10_16  and  N1_17
REMARK       I    between atoms: N1_17  and  C11_19
REMARK       I    between atoms: C11_19  and  N2_21
REMARK    8  A    between atoms: N2_21  and  C12_23
REMARK    9  A    between atoms: C16_28  and  O7_29
REMARK   10  A    between atoms: C17_31  and  O8_32
REMARK   11  A    between atoms: C18_34  and  O9_35
ROOT
HETATM    1  C6  UNL     1       8.142   7.427   8.404  1.00  0.00     0.286 C
HETATM    2  O3  UNL     1       8.796   7.054   9.553  1.00  0.00    -0.352 OA
HETATM    3  C7  UNL     1       8.789   8.175  10.386  1.00  0.00     0.150 C
HETATM    4  C9  UNL     1       7.428   8.791  10.174  1.00  0.00     0.064 C
HETATM    5  C10 UNL     1       7.263   8.614   8.687  1.00  0.00     0.144 C
ENDROOT
BRANCH   1   6
HETATM    6  O2  UNL     1       7.295   6.373   8.020  1.00  0.00    -0.327 OA
BRANCH   6   7
HETATM    7  C5  UNL     1       7.782   5.697   6.924  1.00  0.00     0.295 C
HETATM    8  O1  UNL     1       6.763   4.794   6.512  1.00  0.00    -0.340 OA
HETATM    9  C4  UNL     1       7.009   4.386   5.201  1.00  0.00     0.217 C
HETATM   10  C18 UNL     1       8.353   3.827   4.979  1.00  0.00     0.188 C
HETATM   11  C17 UNL     1       9.319   3.933   6.110  1.00  0.00     0.183 C
HETATM   12  C16 UNL     1       8.942   4.792   7.251  1.00  0.00     0.204 C
BRANCH   9  13
HETATM   13  S1  UNL     1       5.647   3.308   4.728  1.00  0.00    -0.131 SA
BRANCH  13  14
HETATM   14  C2  UNL     1       4.163   4.152   4.209  1.00  0.00     0.041 C
HETATM   15  C1  UNL     1       3.376   4.730   5.359  1.00  0.00     0.021 C
HETATM   16  C3  UNL     1       4.345   5.119   3.065  1.00  0.00     0.021 C
ENDBRANCH  13  14
ENDBRANCH   9  13
BRANCH  10  17
HETATM   17  O9  UNL     1       8.909   4.422   3.817  1.00  0.00    -0.389 OA
ATOM     18  H9  UNL     1       9.346   3.750   3.308  1.00  0.00     0.210 HD
ENDBRANCH  10  17
BRANCH  11  19
HETATM   19  O8  UNL     1       9.685   2.665   6.619  1.00  0.00    -0.390 OA
ATOM     20  H8  UNL     1       8.924   2.099   6.571  1.00  0.00     0.210 HD
ENDBRANCH  11  19
BRANCH  12  21
HETATM   21  O7  UNL     1       8.485   3.967   8.308  1.00  0.00    -0.388 OA
ATOM     22  H7  UNL     1       7.707   4.397   8.642  1.00  0.00     0.210 HD
ENDBRANCH  12  21
ENDBRANCH   6   7
ENDBRANCH   1   6
BRANCH   5  23
HETATM   23  N1  UNL     1       5.896   8.398   8.304  1.00  0.00    -0.334 N
HETATM   24  C11 UNL     1       5.020   7.745   9.208  1.00  0.00     0.317 C
HETATM   25  O5  UNL     1       5.448   7.359  10.346  1.00  0.00    -0.247 OA
HETATM   26  N2  UNL     1       3.656   7.497   8.894  1.00  0.00    -0.336 N
ATOM     27  H2  UNL     1       3.285   7.797   7.992  1.00  0.00     0.164 HD
ATOM     28  H1  UNL     1       5.559   8.709   7.393  1.00  0.00     0.164 HD
BRANCH  26  29
HETATM   29  C12 UNL     1       2.803   6.838   9.817  1.00  0.00     0.112 C
HETATM   30  C13 UNL     1       2.523   5.385   9.402  1.00  0.00     0.053 C
HETATM   31  C14 UNL     1       1.219   5.141  10.100  1.00  0.00     0.169 C
HETATM   32  O6  UNL     1       0.547   6.334  10.178  1.00  0.00    -0.389 OA
HETATM   33  C15 UNL     1       1.372   7.363   9.806  1.00  0.00     0.192 C
ENDBRANCH  26  29
ENDBRANCH   5  23
BRANCH   3  34
HETATM   34  C8  UNL     1       9.042   7.827  11.826  1.00  0.00     0.196 C
BRANCH  34  35
HETATM   35  O4  UNL     1      10.363   7.465  11.986  1.00  0.00    -0.398 OA
ATOM     36  H4  UNL     1      10.437   6.849  12.705  1.00  0.00     0.209 HD
ENDBRANCH  34  35
ENDBRANCH   3  34
TORSDOF 11
ENDMDL