MODEL 4
REMARK VINA RESULT: -7.316505922      2.651      6.517
REMARK  12 active torsions:
REMARK  status: ('A' for Active; 'I' for Inactive)
REMARK    1  A    between atoms: N1_1  and  C1_5
REMARK    2  A    between atoms: C2_6  and  C3_7
REMARK    3  A    between atoms: C3_7  and  O1_8
REMARK    4  A    between atoms: O1_8  and  S1_9
REMARK    5  A    between atoms: C5_15  and  O6_16
REMARK    6  A    between atoms: O6_16  and  C6_17
REMARK    7  A    between atoms: C7_19  and  C8_20
REMARK    8  A    between atoms: C8_20  and  O8_21
REMARK    9  A    between atoms: C9_23  and  O9_24
REMARK   10  A    between atoms: C10_26  and  O10_27
REMARK   11  A    between atoms: C11_29  and  N2_30
REMARK   12  A    between atoms: N2_30  and  C12_32
ROOT
HETATM    1  C6  UNL     1       7.472   6.326   9.087  1.00  0.00     0.285 C
HETATM    2  O7  UNL     1       8.105   6.699  10.274  1.00  0.00    -0.349 OA
HETATM    3  C7  UNL     1       8.956   7.759  10.131  1.00  0.00     0.179 C
HETATM    4  C9  UNL     1       8.360   8.971   9.489  1.00  0.00     0.180 C
HETATM    5  C10 UNL     1       7.588   8.563   8.232  1.00  0.00     0.176 C
HETATM    6  C11 UNL     1       6.593   7.532   8.707  1.00  0.00     0.164 C
ENDROOT
BRANCH   1   7
HETATM    7  O6  UNL     1       8.398   6.113   8.096  1.00  0.00    -0.349 OA
BRANCH   7   8
HETATM    8  C5  UNL     1       8.673   4.778   7.843  1.00  0.00     0.181 C
HETATM    9  C1  UNL     1       7.521   4.051   7.181  1.00  0.00     0.245 C
HETATM   10  C2  UNL     1       7.706   4.458   5.758  1.00  0.00     0.179 C
HETATM   11  O5  UNL     1       9.034   4.689   5.540  1.00  0.00    -0.379 OA
HETATM   12  C4  UNL     1       9.713   4.640   6.725  1.00  0.00     0.202 C
BRANCH   9  13
HETATM   13  N1  UNL     1       7.764   2.620   7.367  1.00  0.00    -0.070 N
ATOM     14  H13 UNL     1       7.931   2.151   6.476  1.00  0.00     0.274 HD
ATOM     15  H12 UNL     1       8.668   2.450   7.808  1.00  0.00     0.274 HD
ATOM     16  H11 UNL     1       7.006   2.175   7.885  1.00  0.00     0.274 HD
ENDBRANCH   9  13
BRANCH  10  17
HETATM   17  C3  UNL     1       7.079   3.540   4.745  1.00  0.00     0.227 C
BRANCH  17  18
HETATM   18  O1  UNL     1       5.754   3.265   4.960  1.00  0.00    -0.254 OA
BRANCH  18  19
HETATM   19  S1  UNL     1       4.852   4.482   4.217  1.00  0.00     0.251 S
HETATM   20  O2  UNL     1       5.640   5.108   3.090  1.00  0.00    -0.572 OA
HETATM   21  O3  UNL     1       4.444   5.545   5.180  1.00  0.00    -0.572 OA
HETATM   22  O4  UNL     1       3.476   3.791   3.502  1.00  0.00    -0.572 OA
ENDBRANCH  18  19
ENDBRANCH  17  18
ENDBRANCH  10  17
ENDBRANCH   7   8
ENDBRANCH   1   7
BRANCH   6  23
HETATM   23  N2  UNL     1       5.610   7.137   7.780  1.00  0.00    -0.406 N
ATOM     24  H2  UNL     1       5.887   6.756   6.875  1.00  0.00     0.154 HD
BRANCH  23  25
HETATM   25  C12 UNL     1       4.252   7.266   8.099  1.00  0.00     0.077 C
HETATM   26  C13 UNL     1       3.863   6.087   9.008  1.00  0.00     0.024 C
HETATM   27  C14 UNL     1       2.725   6.432   9.907  1.00  0.00     0.002 C
HETATM   28  C15 UNL     1       1.696   7.327   9.298  1.00  0.00     0.000 C
HETATM   29  C16 UNL     1       2.312   8.592   8.747  1.00  0.00     0.002 C
HETATM   30  C17 UNL     1       3.842   8.513   8.811  1.00  0.00     0.024 C
ENDBRANCH  23  25
ENDBRANCH   6  23
BRANCH   3  31
HETATM   31  C8  UNL     1       9.377   8.177  11.548  1.00  0.00     0.198 C
BRANCH  31  32
HETATM   32  O8  UNL     1      10.511   7.414  11.838  1.00  0.00    -0.398 OA
ATOM     33  H8  UNL     1      10.183   6.619  12.241  1.00  0.00     0.209 HD
ENDBRANCH  31  32
ENDBRANCH   3  31
BRANCH   5  34
HETATM   34  O10 UNL     1       7.070   9.632   7.568  1.00  0.00    -0.391 OA
ATOM     35  H10 UNL     1       6.328   9.398   7.024  1.00  0.00     0.210 HD
ENDBRANCH   5  34
BRANCH   4  36
HETATM   36  O9  UNL     1       7.414   9.534  10.349  1.00  0.00    -0.390 OA
ATOM     37  H9  UNL     1       6.708   9.911   9.838  1.00  0.00     0.210 HD
ENDBRANCH   4  36
TORSDOF 12
ENDMDL