MODEL 2
REMARK VINA RESULT: -7.301575762      0.119      1.305
REMARK  13 active torsions:
REMARK  status: ('A' for Active; 'I' for Inactive)
REMARK    1  A    between atoms: O1_1  and  C1_3
REMARK    2  A    between atoms: C1_3  and  C2_4
REMARK    3  A    between atoms: C3_6  and  O3_7
REMARK    4  A    between atoms: C4_9  and  O4_10
REMARK    5  A    between atoms: O4_10  and  C5_11
REMARK    6  A    between atoms: C5_11  and  C6_12
REMARK    7  A    between atoms: C7_13  and  O5_14
REMARK    8  A    between atoms: C8_16  and  O6_17
REMARK    9  A    between atoms: C9_19  and  O7_20
REMARK   10  A    between atoms: C10_22  and  O8_23
REMARK   11  A    between atoms: O8_23  and  C11_24
REMARK   12  A    between atoms: C11_24  and  C12_25
REMARK   13  A    between atoms: C22_35  and  O9_36
ROOT
HETATM    1  C6  UNL     1       5.646   7.346   8.791  1.00  0.00     0.072 C
HETATM    2  C7  UNL     1       6.583   7.746   9.881  1.00  0.00     0.158 C
HETATM    3  C8  UNL     1       7.764   8.449   9.291  1.00  0.00     0.178 C
HETATM    4  C9  UNL     1       8.589   7.627   8.345  1.00  0.00     0.180 C
HETATM    5  C10 UNL     1       7.809   6.306   8.080  1.00  0.00     0.181 C
HETATM    6  C22 UNL     1       6.454   6.778   7.642  1.00  0.00     0.158 C
ENDROOT
BRANCH   1   7
HETATM    7  C5  UNL     1       4.845   8.553   8.358  1.00  0.00     0.181 C
BRANCH   7   8
HETATM    8  O4  UNL     1       3.779   8.809   9.195  1.00  0.00    -0.356 OA
BRANCH   8   9
HETATM    9  C4  UNL     1       2.600   8.474   8.535  1.00  0.00     0.317 C
HETATM   10  C3  UNL     1       1.731   7.537   9.329  1.00  0.00     0.315 C
HETATM   11  O2  UNL     1       0.662   8.314   9.826  1.00  0.00    -0.324 OA
HETATM   12  C2  UNL     1       1.177   9.582   9.726  1.00  0.00     0.289 C
HETATM   13  O10 UNL     1       1.773   9.617   8.443  1.00  0.00    -0.324 OA
BRANCH  10  14
HETATM   14  O3  UNL     1       2.404   6.869  10.329  1.00  0.00    -0.367 OA
ATOM     15  H3  UNL     1       3.142   6.371   9.997  1.00  0.00     0.212 HD
ENDBRANCH  10  14
BRANCH  12  16
HETATM   16  C1  UNL     1       0.131  10.671   9.750  1.00  0.00     0.225 C
BRANCH  16  17
HETATM   17  O1  UNL     1       0.653  11.901   9.368  1.00  0.00    -0.396 OA
ATOM     18  H1  UNL     1       0.395  12.596   9.962  1.00  0.00     0.209 HD
ENDBRANCH  16  17
ENDBRANCH  12  16
ENDBRANCH   8   9
ENDBRANCH   7   8
ENDBRANCH   1   7
BRANCH   2  19
HETATM   19  O5  UNL     1       5.974   8.670  10.759  1.00  0.00    -0.392 OA
ATOM     20  H5  UNL     1       6.430   8.699  11.593  1.00  0.00     0.210 HD
ENDBRANCH   2  19
BRANCH   6  21
HETATM   21  O9  UNL     1       5.704   5.798   7.033  1.00  0.00    -0.392 OA
ATOM     22  H9  UNL     1       5.225   6.194   6.314  1.00  0.00     0.210 HD
ENDBRANCH   6  21
BRANCH   3  23
HETATM   23  O6  UNL     1       8.531   8.919  10.376  1.00  0.00    -0.390 OA
ATOM     24  H6  UNL     1       8.314   9.838  10.481  1.00  0.00     0.210 HD
ENDBRANCH   3  23
BRANCH   5  25
HETATM   25  O8  UNL     1       8.395   5.549   7.164  1.00  0.00    -0.380 OA
BRANCH  25  26
HETATM   26  C11 UNL     1       8.978   4.381   7.314  1.00  0.00     0.177 C
BRANCH  26  27
HETATM   27  C12 UNL     1       8.298   3.068   7.156  1.00  0.00    -0.018 C
HETATM   28  C13 UNL     1       7.403   2.703   8.308  1.00  0.00     0.016 C
HETATM   29  C14 UNL     1       6.910   1.274   8.232  1.00  0.00    -0.013 C
HETATM   30  C15 UNL     1       6.144   1.079   6.941  1.00  0.00     0.009 C
HETATM   31  C19 UNL     1       8.058   0.325   8.288  1.00  0.00     0.009 C
HETATM   32  C16 UNL     1       7.046   1.444   5.800  1.00  0.00    -0.013 C
HETATM   33  C17 UNL     1       8.186   0.461   5.778  1.00  0.00     0.009 C
HETATM   34  C21 UNL     1       7.558   2.866   5.875  1.00  0.00     0.016 C
HETATM   35  C18 UNL     1       8.925   0.620   7.080  1.00  0.00    -0.013 C
HETATM   36  C20 UNL     1       9.438   1.995   7.209  1.00  0.00     0.016 C
ENDBRANCH  26  27
ENDBRANCH  25  26
ENDBRANCH   5  25
BRANCH   4  37
HETATM   37  O7  UNL     1       8.767   8.342   7.179  1.00  0.00    -0.390 OA
ATOM     38  H7  UNL     1       8.165   8.009   6.524  1.00  0.00     0.210 HD
ENDBRANCH   4  37
TORSDOF 13
ENDMDL