MODEL 5
REMARK VINA RESULT: -6.504598028      2.493      7.547
REMARK  12 active torsions:
REMARK  status: ('A' for Active; 'I' for Inactive)
REMARK    1  A    between atoms: C2_2  and  C3_3
REMARK    2  A    between atoms: C5_5  and  C6_6
REMARK    3  A    between atoms: C7_7  and  C8_8
REMARK    4  A    between atoms: C11_12  and  O2_13
REMARK    5  A    between atoms: C12_15  and  O3_16
REMARK    6  A    between atoms: C13_18  and  O4_19
REMARK    7  A    between atoms: O4_19  and  C14_20
REMARK    8  A    between atoms: C15_22  and  C16_23
REMARK    9  A    between atoms: C16_23  and  O6_24
REMARK   10  A    between atoms: C17_26  and  O7_27
REMARK   11  A    between atoms: C19_30  and  O8_31
REMARK   12  A    between atoms: C20_34  and  C21_35
ROOT
HETATM    1  C8  UNL     1       7.817   7.090   7.933  1.00  0.00     0.176 C
HETATM    2  O1  UNL     1       8.656   7.773   8.804  1.00  0.00    -0.372 OA
HETATM    3  C9  UNL     1       8.422   9.138   8.821  1.00  0.00     0.149 C
HETATM    4  C10 UNL     1       9.281   9.752   7.736  1.00  0.00     0.042 C
HETATM    5  C11 UNL     1       6.973   9.486   8.662  1.00  0.00     0.178 C
HETATM    6  C12 UNL     1       6.023   8.390   8.899  1.00  0.00     0.181 C
HETATM    7  C13 UNL     1       6.466   6.997   8.620  1.00  0.00     0.188 C
ENDROOT
BRANCH   7   8
HETATM    8  O4  UNL     1       5.629   6.323   7.750  1.00  0.00    -0.348 OA
BRANCH   8   9
HETATM    9  C14 UNL     1       5.142   5.119   8.148  1.00  0.00     0.289 C
HETATM   10  O5  UNL     1       5.374   4.066   7.315  1.00  0.00    -0.349 OA
HETATM   11  C15 UNL     1       4.560   3.935   6.236  1.00  0.00     0.177 C
HETATM   12  C17 UNL     1       3.546   5.010   6.009  1.00  0.00     0.151 C
HETATM   13  C18 UNL     1       2.938   5.563   7.258  1.00  0.00     0.071 C
HETATM   14  C19 UNL     1       3.674   5.122   8.510  1.00  0.00     0.175 C
BRANCH  11  15
HETATM   15  C16 UNL     1       5.442   3.730   4.999  1.00  0.00     0.198 C
BRANCH  15  16
HETATM   16  O6  UNL     1       6.496   4.670   5.029  1.00  0.00    -0.398 OA
ATOM     17  H6  UNL     1       6.172   5.504   4.708  1.00  0.00     0.209 HD
ENDBRANCH  15  16
ENDBRANCH  11  15
BRANCH  12  18
HETATM   18  O7  UNL     1       4.167   6.023   5.278  1.00  0.00    -0.393 OA
ATOM     19  H7  UNL     1       4.794   6.446   5.854  1.00  0.00     0.210 HD
ENDBRANCH  12  18
BRANCH  14  20
HETATM   20  O8  UNL     1       3.372   6.042   9.501  1.00  0.00    -0.391 OA
ATOM     21  H8  UNL     1       2.495   5.930   9.849  1.00  0.00     0.210 HD
ENDBRANCH  14  20
ENDBRANCH   8   9
ENDBRANCH   7   8
BRANCH   1  22
HETATM   22  C7  UNL     1       8.433   5.713   7.815  1.00  0.00     0.006 C
HETATM   23  C6  UNL     1       9.364   5.488   6.906  1.00  0.00     0.003 C
BRANCH  23  24
HETATM   24  C5  UNL     1      10.042   4.206   6.683  1.00  0.00     0.146 C
HETATM   25  C4  UNL     1       9.277   3.031   7.248  1.00  0.00     0.047 C
HETATM   26  C3  UNL     1      10.371   1.953   7.254  1.00  0.00     0.050 C
HETATM   27  C20 UNL     1      11.609   2.749   7.063  1.00  0.00     0.230 C
HETATM   28  O9  UNL     1      11.271   4.085   7.332  1.00  0.00    -0.365 OA
BRANCH  26  29
HETATM   29  C2  UNL     1      10.037   1.030   6.157  1.00  0.00    -0.029 C
HETATM   30  C1  UNL     1      10.649   0.866   5.011  1.00  0.00     0.007 C
ENDBRANCH  26  29
BRANCH  27  31
HETATM   31  C21 UNL     1      12.665   2.320   8.004  1.00  0.00     0.203 C
HETATM   32  O10 UNL     1      13.672   3.022   8.165  1.00  0.00    -0.646 OA
HETATM   33  O11 UNL     1      12.545   1.136   8.716  1.00  0.00    -0.646 OA
ENDBRANCH  27  31
ENDBRANCH  23  24
ENDBRANCH   1  22
BRANCH   6  34
HETATM   34  O3  UNL     1       4.836   8.597   8.151  1.00  0.00    -0.390 OA
ATOM     35  H3  UNL     1       4.626   7.821   7.645  1.00  0.00     0.210 HD
ENDBRANCH   6  34
BRANCH   5  36
HETATM   36  O2  UNL     1       6.790  10.013   7.386  1.00  0.00    -0.390 OA
ATOM     37  H2  UNL     1       6.079   9.541   6.969  1.00  0.00     0.210 HD
ENDBRANCH   5  36
TORSDOF 12
ENDMDL