MODEL 4
REMARK VINA RESULT: -6.457587617      4.042      7.689
REMARK  10 active torsions:
REMARK  status: ('A' for Active; 'I' for Inactive)
REMARK    1  A    between atoms: C2_2  and  O1_3
REMARK    2  A    between atoms: C2_2  and  C3_10
REMARK    3  A    between atoms: O1_3  and  S1_4
REMARK    4  A    between atoms: S1_4  and  N1_5
REMARK    5  A    between atoms: C4_12  and  N2_13
REMARK    6  A    between atoms: N2_13  and  S2_15
REMARK    7  A    between atoms: S2_15  and  O7_18
REMARK    8  A    between atoms: O7_18  and  C5_19
REMARK    9  A    between atoms: C8_22  and  N3_24
REMARK   10  A    between atoms: C12_33  and  O8_34
ROOT
HETATM    1  S2  UNL     1       7.976   7.439   9.217  1.00  0.00     0.360 S
HETATM    2  O5  UNL     1       8.191   8.516   8.198  1.00  0.00    -0.176 OA
HETATM    3  O6  UNL     1       9.075   7.664  10.249  1.00  0.00    -0.176 OA
ENDROOT
BRANCH   1   4
HETATM    4  N2  UNL     1       6.505   7.834  10.025  1.00  0.00    -0.269 N
ATOM      5  H2  UNL     1       6.428   8.149  10.992  1.00  0.00     0.177 HD
BRANCH   4   6
HETATM    6  C4  UNL     1       5.405   7.648   9.115  1.00  0.00     0.244 C
HETATM    7  O4  UNL     1       4.424   8.578   9.223  1.00  0.00    -0.347 OA
HETATM    8  C3  UNL     1       3.399   8.394   8.390  1.00  0.00     0.215 C
HETATM    9  S3  UNL     1       3.179   6.569   8.419  1.00  0.00    -0.130 SA
HETATM   10  C13 UNL     1       4.815   6.260   9.199  1.00  0.00     0.131 C
BRANCH   8  11
HETATM   11  C2  UNL     1       2.091   9.019   8.765  1.00  0.00     0.179 C
HETATM   12  C1  UNL     1       1.185   8.106   9.537  1.00  0.00     0.044 C
BRANCH  11  13
HETATM   13  O1  UNL     1       2.353  10.207   9.408  1.00  0.00    -0.251 OA
BRANCH  13  14
HETATM   14  S1  UNL     1       1.126  11.302   9.418  1.00  0.00     0.356 S
HETATM   15  O2  UNL     1       0.855  11.729   7.980  1.00  0.00    -0.176 OA
HETATM   16  O3  UNL     1       1.437  12.561  10.164  1.00  0.00    -0.176 OA
BRANCH  14  17
HETATM   17  N1  UNL     1      -0.356  10.669  10.049  1.00  0.00    -0.306 N
ATOM     18  H12 UNL     1      -0.613  10.754  11.033  1.00  0.00     0.171 HD
ATOM     19  H11 UNL     1      -0.934  10.210   9.345  1.00  0.00     0.171 HD
ENDBRANCH  14  17
ENDBRANCH  13  14
ENDBRANCH  11  13
ENDBRANCH   8  11
ENDBRANCH   4   6
ENDBRANCH   1   4
BRANCH   1  20
HETATM   20  O7  UNL     1       8.027   5.917   8.703  1.00  0.00    -0.251 OA
BRANCH  20  21
HETATM   21  C5  UNL     1       8.157   5.671   7.337  1.00  0.00     0.178 C
HETATM   22  C6  UNL     1       9.571   5.831   6.970  1.00  0.00     0.039 C
HETATM   23  C7  UNL     1      10.366   4.616   6.688  1.00  0.00     0.041 C
HETATM   24  C8  UNL     1      10.172   3.994   5.352  1.00  0.00     0.125 C
HETATM   25  C9  UNL     1      11.408   3.113   5.097  1.00  0.00     0.046 C
HETATM   26  C10 UNL     1       8.983   3.065   5.308  1.00  0.00     0.093 C
HETATM   27  C11 UNL     1       8.198   3.282   6.551  1.00  0.00     0.014 C
HETATM   28  N4  UNL     1       8.214   2.311   7.412  1.00  0.00    -0.403 N
HETATM   29  C12 UNL     1       7.421   4.485   6.868  1.00  0.00     0.193 C
ATOM     30  H42 UNL     1       8.755   1.474   7.192  1.00  0.00     0.155 HD
ATOM     31  H41 UNL     1       7.676   2.460   8.265  1.00  0.00     0.155 HD
BRANCH  24  32
HETATM   32  N3  UNL     1      10.140   4.938   4.262  1.00  0.00    -0.070 N
ATOM     33  H33 UNL     1      10.583   4.542   3.433  1.00  0.00     0.275 HD
ATOM     34  H32 UNL     1       9.188   5.050   3.913  1.00  0.00     0.275 HD
ATOM     35  H31 UNL     1      10.548   5.846   4.485  1.00  0.00     0.275 HD
ENDBRANCH  24  32
BRANCH  29  36
HETATM   36  O8  UNL     1       6.423   4.054   7.779  1.00  0.00    -0.387 OA
ATOM     37  H8  UNL     1       6.551   3.162   8.077  1.00  0.00     0.210 HD
ENDBRANCH  29  36
ENDBRANCH  20  21
ENDBRANCH   1  20
TORSDOF 10
ENDMDL