MODEL 3
REMARK VINA RESULT: -6.587889931      5.989      8.756
REMARK  10 active torsions:
REMARK  status: ('A' for Active; 'I' for Inactive)
REMARK    1  A    between atoms: O1_2  and  C2_3
REMARK    2  A    between atoms: C5_6  and  O2_7
REMARK    3  A    between atoms: O2_7  and  C6_8
REMARK    4  A    between atoms: C8_11  and  O4_12
REMARK    5  A    between atoms: C9_14  and  N1_15
REMARK       I    between atoms: N1_15  and  C10_17
REMARK    6  A    between atoms: C11_22  and  O5_23
REMARK    7  A    between atoms: C12_26  and  C13_27
REMARK    8  A    between atoms: C13_27  and  O7_29
REMARK    9  A    between atoms: C15_31  and  O8_32
REMARK   10  A    between atoms: O8_32  and  C16_33
ROOT
HETATM    1  C2  UNL     1       6.593   6.905   9.042  1.00  0.00     0.161 C
HETATM    2  C3  UNL     1       7.850   6.333   8.410  1.00  0.00     0.069 C
HETATM    3  C4  UNL     1       8.563   7.359   7.536  1.00  0.00     0.017 C
HETATM    4  C5  UNL     1       7.661   5.011   7.761  1.00  0.00     0.270 C
HETATM    5  O6  UNL     1       6.404   4.480   7.857  1.00  0.00    -0.350 OA
HETATM    6  C12 UNL     1       5.350   5.288   7.585  1.00  0.00     0.184 C
HETATM    7  C15 UNL     1       5.336   6.620   8.312  1.00  0.00     0.183 C
ENDROOT
BRANCH   4   8
HETATM    8  O2  UNL     1       8.503   4.028   8.344  1.00  0.00    -0.328 OA
BRANCH   8   9
HETATM    9  C6  UNL     1       9.144   3.245   7.414  1.00  0.00     0.293 C
HETATM   10  O3  UNL     1       8.292   2.940   6.348  1.00  0.00    -0.356 OA
HETATM   11  C7  UNL     1       8.883   1.907   5.630  1.00  0.00     0.205 C
HETATM   12  C8  UNL     1      10.168   2.412   5.041  1.00  0.00     0.167 C
HETATM   13  C9  UNL     1      10.334   3.875   5.366  1.00  0.00     0.148 C
HETATM   14  C11 UNL     1      10.294   4.046   6.846  1.00  0.00     0.198 C
BRANCH  12  15
HETATM   15  O4  UNL     1      10.174   2.184   3.664  1.00  0.00    -0.391 OA
ATOM     16  H4  UNL     1      11.068   2.190   3.344  1.00  0.00     0.210 HD
ENDBRANCH  12  15
BRANCH  13  17
HETATM   17  N1  UNL     1      11.495   4.462   4.751  1.00  0.00    -0.355 N
HETATM   18  C10 UNL     1      11.370   5.419   3.728  1.00  0.00     0.182 C
HETATM   19  N2  UNL     1      10.642   6.460   3.932  1.00  0.00    -0.374 N
HETATM   20  N3  UNL     1      12.015   5.284   2.479  1.00  0.00    -0.064 NA
ATOM     21  H22 UNL     1      10.177   6.558   4.835  1.00  0.00     0.158 HD
ATOM     22  H21 UNL     1      10.552   7.154   3.190  1.00  0.00     0.158 HD
ATOM     23  H1  UNL     1      12.425   4.179   5.062  1.00  0.00     0.162 HD
ENDBRANCH  13  17
BRANCH  14  24
HETATM   24  O5  UNL     1      11.500   3.735   7.466  1.00  0.00    -0.388 OA
ATOM     25  H5  UNL     1      12.132   3.379   6.852  1.00  0.00     0.210 HD
ENDBRANCH  14  24
ENDBRANCH   8   9
ENDBRANCH   4   8
BRANCH   1  26
HETATM   26  O1  UNL     1       6.778   8.258   9.243  1.00  0.00    -0.387 OA
HETATM   27  C1  UNL     1       6.815   8.635  10.564  1.00  0.00     0.202 C
ENDBRANCH   1  26
BRANCH   6  28
HETATM   28  C13 UNL     1       5.076   5.359   6.120  1.00  0.00     0.145 C
HETATM   29  C14 UNL     1       4.720   4.066   5.454  1.00  0.00     0.042 C
BRANCH  28  30
HETATM   30  O7  UNL     1       4.092   6.276   5.755  1.00  0.00    -0.393 OA
ATOM     31  H7  UNL     1       3.822   6.228   4.846  1.00  0.00     0.210 HD
ENDBRANCH  28  30
ENDBRANCH   6  28
BRANCH   7  32
HETATM   32  O8  UNL     1       4.280   6.640   9.217  1.00  0.00    -0.375 OA
BRANCH  32  33
HETATM   33  C16 UNL     1       3.139   7.264   8.854  1.00  0.00     0.122 C
HETATM   34  C17 UNL     1       2.015   7.123   9.870  1.00  0.00     0.032 C
HETATM   35  C18 UNL     1       1.075   8.233   9.429  1.00  0.00     0.002 C
HETATM   36  C19 UNL     1       1.937   9.290   8.809  1.00  0.00     0.002 C
HETATM   37  C20 UNL     1       3.349   8.758   8.929  1.00  0.00     0.032 C
ENDBRANCH  32  33
ENDBRANCH   7  32
TORSDOF 10
ENDMDL