MODEL 1
REMARK VINA RESULT: -6.630015526      0.000      0.000
REMARK  12 active torsions:
REMARK  status: ('A' for Active; 'I' for Inactive)
REMARK       I    between atoms: C2_2  and  N1_4
REMARK    1  A    between atoms: N1_4  and  C3_6
REMARK    2  A    between atoms: C4_7  and  O2_8
REMARK    3  A    between atoms: O2_8  and  C5_9
REMARK    4  A    between atoms: C11_16  and  C12_17
REMARK    5  A    between atoms: C12_17  and  O4_18
REMARK    6  A    between atoms: O4_18  and  C13_19
REMARK    7  A    between atoms: C15_21  and  N2_22
REMARK    8  A    between atoms: C16_26  and  O5_28
REMARK    9  A    between atoms: C18_30  and  C19_31
REMARK   10  A    between atoms: C19_31  and  O6_32
REMARK   11  A    between atoms: C20_35  and  O8_36
REMARK   12  A    between atoms: C21_38  and  O9_39
ROOT
HETATM    1  C3  UNL     1       5.715   4.288   4.700  1.00  0.00     0.170 C
HETATM    2  C4  UNL     1       5.611   4.454   6.180  1.00  0.00     0.286 C
HETATM    3  O3  UNL     1       6.706   3.794   6.789  1.00  0.00    -0.349 OA
HETATM    4  C11 UNL     1       7.875   4.342   6.285  1.00  0.00     0.179 C
HETATM    5  C20 UNL     1       8.144   3.784   4.923  1.00  0.00     0.180 C
HETATM    6  C21 UNL     1       6.839   3.314   4.340  1.00  0.00     0.177 C
ENDROOT
BRANCH   4   7
HETATM    7  C12 UNL     1       9.034   4.200   7.242  1.00  0.00     0.205 C
BRANCH   7   8
HETATM    8  O4  UNL     1       9.577   5.436   7.582  1.00  0.00    -0.359 OA
BRANCH   8   9
HETATM    9  C13 UNL     1       8.577   6.370   7.877  1.00  0.00     0.262 C
HETATM   10  C14 UNL     1       9.086   7.704   7.441  1.00  0.00     0.096 C
HETATM   11  C15 UNL     1       8.136   8.800   7.787  1.00  0.00     0.224 C
HETATM   12  C16 UNL     1       7.232   8.379   8.912  1.00  0.00     0.110 C
HETATM   13  C17 UNL     1       6.633   9.512   9.682  1.00  0.00     0.051 C
HETATM   14  C18 UNL     1       7.852   7.394   9.840  1.00  0.00     0.184 C
HETATM   15  O7  UNL     1       8.286   6.236   9.206  1.00  0.00    -0.351 OA
BRANCH  11  16
HETATM   16  N2  UNL     1       8.916   9.983   8.110  1.00  0.00    -0.072 N
ATOM     17  H23 UNL     1       9.875   9.763   8.377  1.00  0.00     0.274 HD
ATOM     18  H22 UNL     1       9.131  10.551   7.290  1.00  0.00     0.274 HD
ATOM     19  H21 UNL     1       8.414  10.503   8.830  1.00  0.00     0.274 HD
ENDBRANCH  11  16
BRANCH  12  20
HETATM   20  O5  UNL     1       6.145   7.710   8.298  1.00  0.00    -0.385 OA
ATOM     21  H5  UNL     1       5.425   8.329   8.308  1.00  0.00     0.210 HD
ENDBRANCH  12  20
BRANCH  14  22
HETATM   22  C19 UNL     1       8.957   7.931  10.705  1.00  0.00     0.199 C
BRANCH  22  23
HETATM   23  O6  UNL     1       9.375   7.054  11.700  1.00  0.00    -0.398 OA
ATOM     24  H6  UNL     1       9.520   7.467  12.543  1.00  0.00     0.209 HD
ENDBRANCH  22  23
ENDBRANCH  14  22
ENDBRANCH   8   9
ENDBRANCH   7   8
ENDBRANCH   4   7
BRANCH   5  25
HETATM   25  O8  UNL     1       8.637   4.795   4.111  1.00  0.00    -0.390 OA
ATOM     26  H8  UNL     1       9.454   4.506   3.720  1.00  0.00     0.210 HD
ENDBRANCH   5  25
BRANCH   2  27
HETATM   27  O2  UNL     1       4.482   3.902   6.755  1.00  0.00    -0.354 OA
BRANCH  27  28
HETATM   28  C5  UNL     1       3.982   4.777   7.699  1.00  0.00     0.124 C
HETATM   29  C6  UNL     1       2.933   4.127   8.580  1.00  0.00     0.032 C
HETATM   30  C7  UNL     1       2.234   5.217   9.351  1.00  0.00     0.002 C
HETATM   31  C8  UNL     1       3.017   6.507   9.354  1.00  0.00     0.000 C
HETATM   32  C9  UNL     1       3.056   7.071   7.943  1.00  0.00     0.002 C
HETATM   33  C10 UNL     1       3.380   5.963   6.974  1.00  0.00     0.032 C
ENDBRANCH  27  28
ENDBRANCH   2  27
BRANCH   6  34
HETATM   34  O9  UNL     1       6.514   2.018   4.687  1.00  0.00    -0.391 OA
ATOM     35  H9  UNL     1       6.266   1.507   3.926  1.00  0.00     0.210 HD
ENDBRANCH   6  34
BRANCH   1  36
HETATM   36  N1  UNL     1       4.510   3.849   4.073  1.00  0.00    -0.349 N
HETATM   37  C2  UNL     1       3.953   4.603   3.012  1.00  0.00     0.214 C
HETATM   38  C1  UNL     1       2.702   4.178   2.336  1.00  0.00     0.117 C
HETATM   39  O1  UNL     1       4.502   5.663   2.609  1.00  0.00    -0.274 OA
ATOM     40  H1  UNL     1       4.053   2.993   4.388  1.00  0.00     0.163 HD
ENDBRANCH   1  36
TORSDOF 12
ENDMDL