MODEL 5
REMARK VINA RESULT: -8.421657036      2.137      8.003
REMARK  4 active torsions:
REMARK  status: ('A' for Active; 'I' for Inactive)
REMARK    1  A    between atoms: N3_6  and  C3_8
REMARK    2  A    between atoms: C3_8  and  C4_9
REMARK       I    between atoms: C4_9  and  N4_11
REMARK    3  A    between atoms: N4_11  and  N5_13
REMARK       I    between atoms: N5_13  and  C5_15
REMARK    4  A    between atoms: C6_22  and  C7_23
REMARK       I    between atoms: C7_23  and  N9_25
REMARK       I    between atoms: N9_25  and  C8_27
ROOT
HETATM    1  C1  UNL     1      60.159  41.135  41.610  1.00  0.00     0.182 C
HETATM    2  N1  UNL     1      60.931  41.021  40.378  1.00  0.00    -0.246 N
HETATM    3  N2  UNL     1      61.890  40.122  40.262  1.00  0.00    -0.128 N
ATOM      4  H2  UNL     1      62.076  39.509  41.056  1.00  0.00     0.206 HD
HETATM    5  C2  UNL     1      62.643  39.966  39.140  1.00  0.00     0.694 A
HETATM    6  N3  UNL     1      63.588  39.064  39.075  1.00  0.00    -0.216 N
ATOM      7  H3  UNL     1      64.153  38.947  38.234  1.00  0.00     0.178 HD
HETATM    8  N8  UNL     1      62.368  40.792  38.111  1.00  0.00    -0.179 N
ATOM      9  H8  UNL     1      62.917  40.697  37.257  1.00  0.00     0.184 HD
HETATM   10  C6  UNL     1      61.408  41.733  38.150  1.00  0.00     0.186 A
HETATM   11  C9  UNL     1      60.690  41.822  39.331  1.00  0.00     0.295 A
HETATM   12  O3  UNL     1      59.795  42.673  39.416  1.00  0.00    -0.264 OA
ENDROOT
BRANCH   6  13
HETATM   13  C3  UNL     1      63.799  38.241  40.237  1.00  0.00     0.242 C
BRANCH  13  14
HETATM   14  C4  UNL     1      65.049  37.480  40.074  1.00  0.00     0.254 C
HETATM   15  O1  UNL     1      65.260  36.920  38.962  1.00  0.00    -0.270 OA
HETATM   16  N4  UNL     1      65.963  37.400  41.154  1.00  0.00    -0.266 N
ATOM     17  H4  UNL     1      65.739  37.872  42.030  1.00  0.00     0.190 HD
BRANCH  16  18
HETATM   18  N5  UNL     1      67.166  36.687  41.050  1.00  0.00    -0.271 N
HETATM   19  C5  UNL     1      68.118  37.129  40.106  1.00  0.00     0.200 C
HETATM   20  N6  UNL     1      68.403  36.481  39.037  1.00  0.00    -0.372 N
HETATM   21  N7  UNL     1      68.783  38.343  40.350  1.00  0.00    -0.062 NA
ATOM     22  H62 UNL     1      67.921  35.600  38.860  1.00  0.00     0.158 HD
ATOM     23  H61 UNL     1      69.090  36.801  38.356  1.00  0.00     0.158 HD
ATOM     24  H5  UNL     1      67.348  35.873  41.637  1.00  0.00     0.189 HD
ENDBRANCH  16  18
ENDBRANCH  13  14
ENDBRANCH   6  13
BRANCH  10  25
HETATM   25  C7  UNL     1      61.130  42.624  37.020  1.00  0.00     0.280 C
HETATM   26  O2  UNL     1      60.829  42.078  35.923  1.00  0.00    -0.265 OA
HETATM   27  N9  UNL     1      61.184  44.023  37.116  1.00  0.00    -0.296 N
HETATM   28  C8  UNL     1      60.899  44.826  35.991  1.00  0.00     0.188 C
ATOM     29  H9  UNL     1      61.430  44.462  38.003  1.00  0.00     0.171 HD
HETATM   30  N10 UNL     1      60.927  46.112  35.981  1.00  0.00    -0.373 N
HETATM   31  N11 UNL     1      60.539  44.222  34.733  1.00  0.00    -0.064 NA
ATOM     32 2H10 UNL     1      61.182  46.539  36.871  1.00  0.00     0.158 HD
ATOM     33 1H10 UNL     1      60.721  46.692  35.167  1.00  0.00     0.158 HD
ENDBRANCH  10  25
TORSDOF 4
ENDMDL