MODEL 1
REMARK VINA RESULT: -7.370790357      0.000      0.000
REMARK  5 active torsions:
REMARK  status: ('A' for Active; 'I' for Inactive)
REMARK    1  A    between atoms: N1_1  and  C1_4
REMARK    2  A    between atoms: N4_11  and  C3_12
REMARK    3  A    between atoms: C3_12  and  C4_13
REMARK       I    between atoms: C4_13  and  N5_15
REMARK    4  A    between atoms: N5_15  and  C5_17
REMARK    5  A    between atoms: C5_17  and  C6_18
ROOT
HETATM    1  C4  UNL     1      60.814  44.682  38.314  1.00  0.00     0.239 C
HETATM    2  O2  UNL     1      61.441  45.002  39.353  1.00  0.00    -0.272 OA
HETATM    3  N5  UNL     1      60.472  45.637  37.335  1.00  0.00    -0.309 N
ATOM      4  H5  UNL     1      59.961  45.293  36.522  1.00  0.00     0.167 HD
ENDROOT
BRANCH   1   5
HETATM    5  C3  UNL     1      60.440  43.256  38.154  1.00  0.00     0.240 C
BRANCH   5   6
HETATM    6  N4  UNL     1      61.455  42.479  37.520  1.00  0.00    -0.253 N
HETATM    7  C2  UNL     1      61.725  42.472  36.195  1.00  0.00     0.344 A
HETATM    8  N3  UNL     1      62.686  41.699  35.665  1.00  0.00    -0.249 N
HETATM    9  O1  UNL     1      61.057  43.204  35.452  1.00  0.00    -0.245 OA
HETATM   10  N2  UNL     1      63.403  40.916  36.450  1.00  0.00    -0.277 N
ATOM     11  H3  UNL     1      62.863  41.717  34.660  1.00  0.00     0.192 HD
HETATM   12  C1  UNL     1      63.204  40.861  37.771  1.00  0.00     0.183 A
ATOM     13  H2  UNL     1      64.131  40.333  36.036  1.00  0.00     0.189 HD
HETATM   14  C8  UNL     1      62.216  41.656  38.303  1.00  0.00     0.297 A
HETATM   15  O6  UNL     1      62.016  41.616  39.544  1.00  0.00    -0.264 OA
BRANCH  12  16
HETATM   16  N1  UNL     1      63.917  40.082  38.506  1.00  0.00    -0.380 N
ATOM     17  H12 UNL     1      64.917  40.235  38.640  1.00  0.00     0.158 HD
ATOM     18  H11 UNL     1      63.491  39.286  38.980  1.00  0.00     0.158 HD
ENDBRANCH  12  16
ENDBRANCH   5   6
ENDBRANCH   1   5
BRANCH   3  19
HETATM   19  C5  UNL     1      60.762  47.032  37.357  1.00  0.00     0.295 C
HETATM   20  N6  UNL     1      59.718  47.869  36.782  1.00  0.00    -0.071 NA
HETATM   21  N7  UNL     1      60.079  49.128  37.320  1.00  0.00    -0.251 N
HETATM   22  C7  UNL     1      60.679  48.916  38.609  1.00  0.00     0.335 C
ATOM     23  H7  UNL     1      59.938  50.032  36.870  1.00  0.00     0.187 HD
HETATM   24  O5  UNL     1      60.960  49.799  39.441  1.00  0.00    -0.246 OA
HETATM   25  N8  UNL     1      60.879  47.493  38.733  1.00  0.00    -0.291 N
ATOM     26  H8  UNL     1      61.058  46.946  39.575  1.00  0.00     0.168 HD
BRANCH  19  27
HETATM   27  C6  UNL     1      62.007  47.302  36.610  1.00  0.00     0.245 C
HETATM   28  O3  UNL     1      61.959  48.007  35.579  1.00  0.00    -0.644 OA
HETATM   29  O4  UNL     1      63.195  46.766  37.068  1.00  0.00    -0.644 OA
ENDBRANCH  19  27
ENDBRANCH   3  19
TORSDOF 5
ENDMDL