MODEL 3
REMARK VINA RESULT: -7.113798317      3.423      7.640
REMARK  8 active torsions:
REMARK  status: ('A' for Active; 'I' for Inactive)
REMARK    1  A    between atoms: N1_1  and  C1_5
REMARK    2  A    between atoms: C1_5  and  N2_6
REMARK    3  A    between atoms: C1_5  and  C2_10
REMARK    4  A    between atoms: C2_10  and  N3_11
REMARK    5  A    between atoms: C2_10  and  C11_29
REMARK       I    between atoms: N3_11  and  C3_13
REMARK    6  A    between atoms: C3_13  and  C4_15
REMARK    7  A    between atoms: C11_29  and  N6_30
REMARK    8  A    between atoms: C11_29  and  N7_34
ROOT
HETATM    1  C2  UNL     1      62.214  40.463  38.769  1.00  0.00     0.199 C
ENDROOT
BRANCH   1   2
HETATM    2  C1  UNL     1      62.201  39.828  40.163  1.00  0.00     0.404 C
BRANCH   2   3
HETATM    3  N1  UNL     1      61.131  40.410  40.957  1.00  0.00    -0.048 N
ATOM      4  H13 UNL     1      60.719  41.231  40.513  1.00  0.00     0.276 HD
ATOM      5  H12 UNL     1      60.296  39.825  40.973  1.00  0.00     0.276 HD
ATOM      6  H11 UNL     1      61.486  40.610  41.892  1.00  0.00     0.276 HD
ENDBRANCH   2   3
BRANCH   2   7
HETATM    7  N2  UNL     1      63.461  40.095  40.814  1.00  0.00    -0.048 N
ATOM      8  H23 UNL     1      63.410  40.891  41.449  1.00  0.00     0.276 HD
ATOM      9  H22 UNL     1      63.703  39.381  41.501  1.00  0.00     0.276 HD
ATOM     10  H21 UNL     1      64.181  40.210  40.101  1.00  0.00     0.276 HD
ENDBRANCH   2   7
ENDBRANCH   1   2
BRANCH   1  11
HETATM   11  N3  UNL     1      62.230  41.911  39.007  1.00  0.00    -0.348 N
HETATM   12  C3  UNL     1      61.474  42.804  38.208  1.00  0.00     0.230 C
HETATM   13  O1  UNL     1      60.785  42.334  37.286  1.00  0.00    -0.273 OA
ATOM     14  H3  UNL     1      62.800  42.283  39.766  1.00  0.00     0.163 HD
BRANCH  12  15
HETATM   15  C4  UNL     1      61.553  44.247  38.524  1.00  0.00     0.158 C
HETATM   16  C5  UNL     1      60.312  44.997  38.194  1.00  0.00     0.080 C
HETATM   17  C6  UNL     1      60.827  46.313  37.747  1.00  0.00     0.034 A
HETATM   18  N4  UNL     1      60.217  47.505  37.591  1.00  0.00    -0.311 N
HETATM   19  C9  UNL     1      62.174  46.243  37.452  1.00  0.00     0.101 A
HETATM   20  C7  UNL     1      60.836  48.607  37.173  1.00  0.00     0.327 A
ATOM     21  H4  UNL     1      59.222  47.567  37.806  1.00  0.00     0.170 HD
HETATM   22  O2  UNL     1      60.281  49.725  37.023  1.00  0.00    -0.247 OA
HETATM   23  N5  UNL     1      62.150  48.514  36.892  1.00  0.00    -0.275 N
HETATM   24  C8  UNL     1      62.850  47.386  37.011  1.00  0.00     0.265 A
ATOM     25  H5  UNL     1      62.635  49.352  36.571  1.00  0.00     0.173 HD
HETATM   26  O3  UNL     1      64.082  47.306  36.746  1.00  0.00    -0.267 OA
HETATM   27  C10 UNL     1      62.595  44.875  37.695  1.00  0.00     0.180 C
HETATM   28  O4  UNL     1      63.653  44.368  37.262  1.00  0.00    -0.291 OA
ENDBRANCH  12  15
ENDBRANCH   1  11
BRANCH   1  29
HETATM   29  C11 UNL     1      63.518  40.145  38.069  1.00  0.00     0.404 C
BRANCH  29  30
HETATM   30  N6  UNL     1      63.675  38.734  37.801  1.00  0.00    -0.048 N
ATOM     31  H63 UNL     1      63.166  38.462  36.959  1.00  0.00     0.276 HD
ATOM     32  H62 UNL     1      64.625  38.524  37.494  1.00  0.00     0.276 HD
ATOM     33  H61 UNL     1      63.409  38.151  38.595  1.00  0.00     0.276 HD
ENDBRANCH  29  30
BRANCH  29  34
HETATM   34  N7  UNL     1      63.547  40.921  36.840  1.00  0.00    -0.048 N
ATOM     35  H73 UNL     1      64.365  40.725  36.263  1.00  0.00     0.276 HD
ATOM     36  H72 UNL     1      62.838  40.630  36.167  1.00  0.00     0.276 HD
ATOM     37  H71 UNL     1      63.470  41.904  37.102  1.00  0.00     0.276 HD
ENDBRANCH  29  34
ENDBRANCH   1  29
TORSDOF 8
ENDMDL