MODEL 2
REMARK VINA RESULT: -7.545196362      1.399      1.484
REMARK  7 active torsions:
REMARK  status: ('A' for Active; 'I' for Inactive)
REMARK       I    between atoms: N1_1  and  C1_4
REMARK       I    between atoms: C1_4  and  N3_6
REMARK    1  A    between atoms: N3_6  and  C2_8
REMARK    2  A    between atoms: C3_13  and  N6_14
REMARK    3  A    between atoms: N6_14  and  C4_16
REMARK    4  A    between atoms: C4_16  and  C5_17
REMARK    5  A    between atoms: C5_17  and  S1_18
REMARK    6  A    between atoms: S1_18  and  N7_19
REMARK       I    between atoms: N8_24  and  C6_25
REMARK       I    between atoms: C6_25  and  N9_27
REMARK    7  A    between atoms: N9_27  and  N10_29
ROOT
HETATM    1  C2  UNL     1      64.215  38.529  38.491  1.00  0.00     0.725 A
HETATM    2  N4  UNL     1      64.406  39.143  37.313  1.00  0.00    -0.116 N
ATOM      3  H4  UNL     1      65.016  38.782  36.580  1.00  0.00     0.206 HD
HETATM    4  N5  UNL     1      63.727  40.251  37.211  1.00  0.00    -0.117 N
ATOM      5  H5  UNL     1      63.706  40.892  36.418  1.00  0.00     0.206 HD
HETATM    6  C3  UNL     1      63.053  40.370  38.390  1.00  0.00     0.718 A
HETATM    7  N8  UNL     1      63.340  39.325  39.182  1.00  0.00     0.080 N
HETATM    8  C6  UNL     1      62.888  39.005  40.490  1.00  0.00     0.376 C
HETATM    9  O3  UNL     1      63.305  37.936  41.060  1.00  0.00    -0.243 OA
HETATM   10  N9  UNL     1      62.001  39.785  41.227  1.00  0.00    -0.257 N
ATOM     11  H9  UNL     1      61.632  40.649  40.831  1.00  0.00     0.191 HD
ENDROOT
BRANCH   6  12
HETATM   12  N6  UNL     1      62.267  41.356  38.656  1.00  0.00    -0.223 N
ATOM     13  H6  UNL     1      61.940  41.488  39.613  1.00  0.00     0.177 HD
BRANCH  12  14
HETATM   14  C4  UNL     1      61.841  42.274  37.634  1.00  0.00     0.154 C
BRANCH  14  15
HETATM   15  C5  UNL     1      62.111  43.714  38.005  1.00  0.00     0.183 C
BRANCH  15  16
HETATM   16  S1  UNL     1      63.326  44.371  36.893  1.00  0.00     0.226 S
HETATM   17  O1  UNL     1      64.703  44.137  37.475  1.00  0.00    -0.206 OA
HETATM   18  O2  UNL     1      63.115  45.847  36.783  1.00  0.00    -0.206 OA
BRANCH  16  19
HETATM   19  N7  UNL     1      63.205  43.598  35.359  1.00  0.00    -0.328 N
ATOM     20  H72 UNL     1      62.877  42.642  35.224  1.00  0.00     0.168 HD
ATOM     21  H71 UNL     1      63.506  44.234  34.620  1.00  0.00     0.168 HD
ENDBRANCH  16  19
ENDBRANCH  15  16
ENDBRANCH  14  15
ENDBRANCH  12  14
ENDBRANCH   6  12
BRANCH   1  22
HETATM   22  N3  UNL     1      64.739  37.415  38.907  1.00  0.00    -0.161 N
HETATM   23  C1  UNL     1      66.111  37.439  39.273  1.00  0.00     0.200 C
HETATM   24  N1  UNL     1      66.388  37.204  40.521  1.00  0.00    -0.373 N
HETATM   25  N2  UNL     1      67.171  37.698  38.385  1.00  0.00    -0.063 NA
ATOM     26  H12 UNL     1      67.373  37.222  40.784  1.00  0.00     0.158 HD
ATOM     27  H11 UNL     1      65.619  37.017  41.164  1.00  0.00     0.158 HD
ATOM     28  H3  UNL     1      64.188  36.559  38.967  1.00  0.00     0.187 HD
ENDBRANCH   1  22
BRANCH  10  29
HETATM   29  N10 UNL     1      61.606  39.376  42.541  1.00  0.00    -0.341 N
ATOM     30 2H10 UNL     1      62.283  38.898  43.133  1.00  0.00     0.177 HD
ATOM     31 1H10 UNL     1      60.660  39.564  42.873  1.00  0.00     0.177 HD
ENDBRANCH  10  29
TORSDOF 7
ENDMDL