MODEL 2
REMARK VINA RESULT: -8.655233017      2.571      9.348
REMARK  6 active torsions:
REMARK  status: ('A' for Active; 'I' for Inactive)
REMARK    1  A    between atoms: C2_2  and  C6_11
REMARK    2  A    between atoms: C3_3  and  C4_4
REMARK       I    between atoms: C4_4  and  N1_6
REMARK       I    between atoms: C6_11  and  N4_13
REMARK    3  A    between atoms: N4_13  and  N5_15
REMARK    4  A    between atoms: C7_17  and  C8_18
REMARK    5  A    between atoms: C9_21  and  N7_22
REMARK    6  A    between atoms: N9_29  and  N10_30
ROOT
HETATM    1  N5  UNL     1      63.139  41.682  37.941  1.00  0.00    -0.305 N
ATOM      2  H5  UNL     1      62.232  41.773  38.399  1.00  0.00     0.186 HD
HETATM    3  C7  UNL     1      63.468  42.511  37.020  1.00  0.00     0.158 C
ENDROOT
BRANCH   1   4
HETATM    4  N4  UNL     1      64.021  40.639  38.333  1.00  0.00    -0.266 N
HETATM    5  C6  UNL     1      63.549  39.673  39.218  1.00  0.00     0.265 C
HETATM    6  O2  UNL     1      62.355  39.759  39.641  1.00  0.00    -0.266 OA
ATOM      7  H4  UNL     1      64.976  40.597  37.975  1.00  0.00     0.190 HD
BRANCH   5   8
HETATM    8  C2  UNL     1      64.354  38.565  39.688  1.00  0.00     0.013 C
HETATM    9  C1  UNL     1      63.781  37.583  40.608  1.00  0.00     0.054 C
HETATM   10  C3  UNL     1      65.587  38.495  39.257  1.00  0.00     0.086 C
BRANCH  10  11
HETATM   11  C4  UNL     1      66.522  37.472  39.617  1.00  0.00     0.247 C
HETATM   12  O1  UNL     1      67.225  36.941  38.680  1.00  0.00    -0.268 OA
HETATM   13  N1  UNL     1      66.717  37.016  40.921  1.00  0.00    -0.300 N
HETATM   14  C5  UNL     1      67.897  36.780  41.366  1.00  0.00     0.203 C
ATOM     15  H1  UNL     1      65.911  36.870  41.529  1.00  0.00     0.171 HD
HETATM   16  N2  UNL     1      68.028  36.321  42.692  1.00  0.00    -0.066 NA
HETATM   17  N3  UNL     1      69.002  36.992  40.501  1.00  0.00    -0.066 NA
ENDBRANCH  10  11
ENDBRANCH   5   8
ENDBRANCH   1   4
BRANCH   3  18
HETATM   18  C8  UNL     1      62.574  43.578  36.616  1.00  0.00     0.163 A
HETATM   19  N6  UNL     1      62.608  44.805  37.182  1.00  0.00    -0.173 N
HETATM   20  C9  UNL     1      61.785  45.800  36.816  1.00  0.00     0.681 A
ATOM     21  H6  UNL     1      63.290  44.983  37.920  1.00  0.00     0.186 HD
HETATM   22  N8  UNL     1      60.888  45.554  35.838  1.00  0.00    -0.140 N
HETATM   23  C10 UNL     1      60.853  44.332  35.275  1.00  0.00     0.361 A
ATOM     24  H8  UNL     1      60.245  46.284  35.530  1.00  0.00     0.189 HD
HETATM   25  O3  UNL     1      60.002  44.121  34.357  1.00  0.00    -0.244 OA
HETATM   26  N9  UNL     1      61.682  43.354  35.654  1.00  0.00    -0.193 N
BRANCH  20  27
HETATM   27  N7  UNL     1      61.789  46.973  37.329  1.00  0.00    -0.234 N
ATOM     28  H72 UNL     1      60.885  47.404  37.523  1.00  0.00     0.174 HD
ATOM     29  H71 UNL     1      62.631  47.502  37.556  1.00  0.00     0.174 HD
ENDBRANCH  20  27
BRANCH  26  30
HETATM   30  N10 UNL     1      61.632  42.076  35.050  1.00  0.00    -0.333 N
ATOM     31 2H10 UNL     1      60.961  41.372  35.357  1.00  0.00     0.177 HD
ATOM     32 1H10 UNL     1      62.283  41.862  34.293  1.00  0.00     0.177 HD
ENDBRANCH  26  30
ENDBRANCH   3  18
TORSDOF 6
ENDMDL