MODEL 2
REMARK VINA RESULT: -8.435718885      1.252      1.456
REMARK  4 active torsions:
REMARK  status: ('A' for Active; 'I' for Inactive)
REMARK       I    between atoms: C1_2  and  N3_4
REMARK       I    between atoms: N3_4  and  C2_6
REMARK    1  A    between atoms: C2_6  and  C3_8
REMARK    2  A    between atoms: N6_14  and  C5_16
REMARK    3  A    between atoms: C5_16  and  C6_17
REMARK    4  A    between atoms: C5_16  and  C7_20
REMARK       I    between atoms: C7_20  and  N7_22
REMARK       I    between atoms: N7_22  and  C8_24
REMARK       I    between atoms: C8_24  and  N8_25
REMARK       I    between atoms: C8_24  and  N9_29
ROOT
HETATM    1  C5  UNL     1      61.770  42.889  36.049  1.00  0.00     0.279 C
ENDROOT
BRANCH   1   2
HETATM    2  N6  UNL     1      61.109  42.528  37.237  1.00  0.00    -0.333 N
HETATM    3  C4  UNL     1      61.475  41.676  38.133  1.00  0.00     0.242 A
HETATM    4  N5  UNL     1      60.776  41.390  39.246  1.00  0.00    -0.263 N
HETATM    5  O5  UNL     1      62.553  40.929  38.170  1.00  0.00    -0.254 OA
HETATM    6  N4  UNL     1      61.471  40.468  39.921  1.00  0.00    -0.272 N
ATOM      7  H5  UNL     1      59.885  41.800  39.523  1.00  0.00     0.190 HD
HETATM    8  C3  UNL     1      62.591  40.185  39.232  1.00  0.00     0.235 A
ATOM      9  H4  UNL     1      61.197  40.049  40.810  1.00  0.00     0.189 HD
ATOM     10  H6  UNL     1      60.223  43.003  37.412  1.00  0.00     0.164 HD
BRANCH   8  11
HETATM   11  C2  UNL     1      63.627  39.214  39.638  1.00  0.00     0.300 C
HETATM   12  N3  UNL     1      64.850  39.099  38.955  1.00  0.00    -0.296 N
HETATM   13  C1  UNL     1      65.387  37.951  38.797  1.00  0.00     0.203 C
ATOM     14  H3  UNL     1      65.309  39.932  38.587  1.00  0.00     0.171 HD
HETATM   15  N1  UNL     1      66.609  37.846  38.111  1.00  0.00    -0.066 NA
HETATM   16  N2  UNL     1      64.761  36.802  39.297  1.00  0.00    -0.066 NA
HETATM   17  O1  UNL     1      63.400  38.468  40.631  1.00  0.00    -0.263 OA
ENDBRANCH   8  11
ENDBRANCH   1   2
BRANCH   1  18
HETATM   18  C6  UNL     1      60.879  42.815  34.878  1.00  0.00     0.206 C
HETATM   19  O2  UNL     1      60.624  41.730  34.299  1.00  0.00    -0.646 OA
HETATM   20  O3  UNL     1      60.295  43.967  34.388  1.00  0.00    -0.646 OA
ENDBRANCH   1  18
BRANCH   1  21
HETATM   21  C7  UNL     1      62.314  44.280  36.215  1.00  0.00     0.254 C
HETATM   22  O4  UNL     1      63.500  44.511  35.879  1.00  0.00    -0.271 OA
HETATM   23  N7  UNL     1      61.533  45.341  36.738  1.00  0.00    -0.309 N
HETATM   24  C8  UNL     1      62.127  46.648  36.872  1.00  0.00     0.482 C
ATOM     25  H7  UNL     1      60.565  45.182  37.016  1.00  0.00     0.166 HD
HETATM   26  N8  UNL     1      61.969  47.095  38.229  1.00  0.00    -0.033 N
HETATM   27  N9  UNL     1      61.553  47.621  35.960  1.00  0.00    -0.033 N
ATOM     28  H83 UNL     1      60.996  47.076  38.535  1.00  0.00     0.278 HD
ATOM     29  H82 UNL     1      62.343  46.427  38.904  1.00  0.00     0.278 HD
ATOM     30  H81 UNL     1      62.389  48.020  38.324  1.00  0.00     0.278 HD
ATOM     31  H93 UNL     1      61.605  47.293  34.995  1.00  0.00     0.278 HD
ATOM     32  H92 UNL     1      60.539  47.667  36.064  1.00  0.00     0.278 HD
ATOM     33  H91 UNL     1      61.973  48.546  36.055  1.00  0.00     0.278 HD
ENDBRANCH   1  21
TORSDOF 4
ENDMDL