MODEL 4
REMARK VINA RESULT: -7.011249323      4.152      6.677
REMARK  6 active torsions:
REMARK  status: ('A' for Active; 'I' for Inactive)
REMARK    1  A    between atoms: C3_7  and  N3_8
REMARK    2  A    between atoms: N5_16  and  C6_17
REMARK    3  A    between atoms: C6_17  and  C7_18
REMARK       I    between atoms: C7_18  and  N6_20
REMARK    4  A    between atoms: N6_20  and  C8_22
REMARK    5  A    between atoms: C8_22  and  C9_23
REMARK       I    between atoms: C9_23  and  N7_25
REMARK    6  A    between atoms: N7_25  and  N8_27
ROOT
HETATM    1  C1  UNL     1      60.239  42.351  39.719  1.00  0.00     0.163 C
HETATM    2  N1  UNL     1      61.290  41.582  39.108  1.00  0.00    -0.287 N
HETATM    3  C2  UNL     1      61.777  40.465  39.725  1.00  0.00     0.329 A
HETATM    4  O1  UNL     1      61.252  40.123  40.838  1.00  0.00    -0.246 OA
HETATM    5  N2  UNL     1      62.766  39.720  39.222  1.00  0.00    -0.293 N
ATOM      6  H2  UNL     1      63.082  38.896  39.733  1.00  0.00     0.172 HD
HETATM    7  C3  UNL     1      63.347  40.037  38.059  1.00  0.00     0.134 A
HETATM    8  C4  UNL     1      62.889  41.159  37.399  1.00  0.00     0.125 A
HETATM    9  N4  UNL     1      63.262  41.736  36.236  1.00  0.00    -0.302 N
ATOM     10  H4  UNL     1      64.000  41.399  35.617  1.00  0.00     0.171 HD
HETATM   11  C5  UNL     1      62.514  42.811  36.029  1.00  0.00     0.329 A
HETATM   12  O2  UNL     1      62.526  43.635  35.075  1.00  0.00    -0.246 OA
HETATM   13  N5  UNL     1      61.629  42.939  37.086  1.00  0.00    -0.274 N
HETATM   14  C10 UNL     1      61.844  41.937  37.937  1.00  0.00     0.149 A
ENDROOT
BRANCH  13  15
HETATM   15  C6  UNL     1      60.669  44.017  37.170  1.00  0.00     0.238 C
BRANCH  15  16
HETATM   16  C7  UNL     1      61.447  45.304  37.120  1.00  0.00     0.236 C
HETATM   17  O3  UNL     1      62.432  45.417  37.886  1.00  0.00    -0.272 OA
HETATM   18  N6  UNL     1      61.075  46.354  36.232  1.00  0.00    -0.351 N
ATOM     19  H6  UNL     1      60.272  46.223  35.616  1.00  0.00     0.163 HD
BRANCH  18  20
HETATM   20  C8  UNL     1      61.794  47.577  36.184  1.00  0.00     0.227 C
BRANCH  20  21
HETATM   21  C9  UNL     1      61.468  48.464  37.307  1.00  0.00     0.253 C
HETATM   22  O4  UNL     1      60.502  49.282  37.172  1.00  0.00    -0.270 OA
HETATM   23  N7  UNL     1      62.152  48.463  38.527  1.00  0.00    -0.275 N
ATOM     24  H7  UNL     1      62.927  47.818  38.683  1.00  0.00     0.189 HD
BRANCH  23  25
HETATM   25  N8  UNL     1      61.753  49.375  39.552  1.00  0.00    -0.343 N
ATOM     26  H82 UNL     1      60.763  49.479  39.774  1.00  0.00     0.176 HD
ATOM     27  H81 UNL     1      62.466  49.910  40.048  1.00  0.00     0.176 HD
ENDBRANCH  23  25
ENDBRANCH  20  21
ENDBRANCH  18  20
ENDBRANCH  15  16
ENDBRANCH  13  15
BRANCH   7  28
HETATM   28  N3  UNL     1      64.305  39.344  37.541  1.00  0.00    -0.383 N
ATOM     29  H32 UNL     1      64.792  38.655  38.114  1.00  0.00     0.157 HD
ATOM     30  H31 UNL     1      64.606  39.451  36.572  1.00  0.00     0.157 HD
ENDBRANCH   7  28
TORSDOF 6
ENDMDL