MODEL 1
REMARK VINA RESULT: -7.908780740      0.000      0.000
REMARK  7 active torsions:
REMARK  status: ('A' for Active; 'I' for Inactive)
REMARK    1  A    between atoms: C1_4  and  N2_5
REMARK    2  A    between atoms: N2_5  and  N3_7
REMARK       I    between atoms: N3_7  and  C2_9
REMARK    3  A    between atoms: C2_9  and  C3_11
REMARK    4  A    between atoms: C3_11  and  N4_12
REMARK    5  A    between atoms: N4_12  and  C4_14
REMARK    6  A    between atoms: C8_24  and  N7_25
REMARK    7  A    between atoms: N9_31  and  C10_32
ROOT
HETATM    1  C4  UNL     1      62.463  40.830  38.137  1.00  0.00     0.691 A
HETATM    2  N5  UNL     1      63.446  40.146  37.535  1.00  0.00    -0.155 N
ATOM      3  H5  UNL     1      63.737  40.369  36.582  1.00  0.00     0.187 HD
HETATM    4  C5  UNL     1      64.035  39.159  38.229  1.00  0.00     0.279 A
HETATM    5  O2  UNL     1      64.970  38.502  37.668  1.00  0.00    -0.266 OA
HETATM    6  C6  UNL     1      63.673  38.827  39.516  1.00  0.00     0.146 A
HETATM    7  C7  UNL     1      64.314  37.804  40.180  1.00  0.00     0.279 A
HETATM    8  O3  UNL     1      65.226  37.190  39.586  1.00  0.00    -0.266 OA
HETATM    9  N6  UNL     1      63.924  37.521  41.435  1.00  0.00    -0.155 N
ATOM     10  H6  UNL     1      64.372  36.772  41.962  1.00  0.00     0.187 HD
HETATM   11  C8  UNL     1      62.942  38.239  41.976  1.00  0.00     0.680 A
HETATM   12  N8  UNL     1      62.289  39.255  41.349  1.00  0.00    -0.174 N
ATOM     13  H8  UNL     1      61.543  39.765  41.820  1.00  0.00     0.186 HD
HETATM   14  C9  UNL     1      62.647  39.566  40.102  1.00  0.00     0.168 A
HETATM   15  N9  UNL     1      62.054  40.552  39.416  1.00  0.00    -0.106 N
ENDROOT
BRANCH   1  16
HETATM   16  N4  UNL     1      61.872  41.776  37.522  1.00  0.00    -0.216 N
ATOM     17  H4  UNL     1      61.026  42.179  37.925  1.00  0.00     0.178 HD
BRANCH  16  18
HETATM   18  C3  UNL     1      62.362  42.285  36.285  1.00  0.00     0.242 C
BRANCH  18  19
HETATM   19  C2  UNL     1      62.871  43.683  36.449  1.00  0.00     0.254 C
HETATM   20  N3  UNL     1      62.459  44.531  37.496  1.00  0.00    -0.268 N
ATOM     21  H3  UNL     1      61.784  44.197  38.184  1.00  0.00     0.190 HD
HETATM   22  O1  UNL     1      63.701  44.117  35.614  1.00  0.00    -0.270 OA
BRANCH  20  23
HETATM   23  N2  UNL     1      62.966  45.821  37.597  1.00  0.00    -0.294 N
ATOM     24  H2  UNL     1      63.895  45.937  38.002  1.00  0.00     0.187 HD
BRANCH  23  25
HETATM   25  C1  UNL     1      62.276  46.988  37.175  1.00  0.00     0.190 C
HETATM   26  N1  UNL     1      62.654  48.178  37.467  1.00  0.00    -0.394 N
ATOM     27  H12 UNL     1      63.497  48.274  38.034  1.00  0.00     0.156 HD
ATOM     28  H11 UNL     1      62.159  49.016  37.165  1.00  0.00     0.156 HD
ENDBRANCH  23  25
ENDBRANCH  20  23
ENDBRANCH  18  19
ENDBRANCH  16  18
ENDBRANCH   1  16
BRANCH  15  29
HETATM   29  C10 UNL     1      61.020  41.343  39.912  1.00  0.00     0.378 C
HETATM   30  O4  UNL     1      59.842  41.010  40.069  1.00  0.00    -0.282 OA
ENDBRANCH  15  29
BRANCH  11  31
HETATM   31  N7  UNL     1      62.566  37.962  43.191  1.00  0.00    -0.234 N
ATOM     32  H72 UNL     1      63.160  37.324  43.721  1.00  0.00     0.174 HD
ATOM     33  H71 UNL     1      61.712  38.391  43.547  1.00  0.00     0.174 HD
ENDBRANCH  11  31
TORSDOF 7
ENDMDL