MODEL 2
REMARK VINA RESULT: -7.710877083      2.256      3.795
REMARK  6 active torsions:
REMARK  status: ('A' for Active; 'I' for Inactive)
REMARK    1  A    between atoms: C2_2  and  C4_10
REMARK    2  A    between atoms: N1_3  and  N2_5
REMARK    3  A    between atoms: C6_15  and  N7_16
REMARK    4  A    between atoms: C7_18  and  C8_19
REMARK    5  A    between atoms: C7_18  and  C9_22
REMARK       I    between atoms: C9_22  and  N8_24
REMARK    6  A    between atoms: N8_24  and  N9_26
ROOT
HETATM    1  C4  UNL     1      61.199  42.062  38.088  1.00  0.00     0.160 A
HETATM    2  N5  UNL     1      61.452  41.957  36.764  1.00  0.00    -0.267 N
ATOM      3  H5  UNL     1      61.752  41.094  36.310  1.00  0.00     0.189 HD
HETATM    4  N6  UNL     1      61.266  43.096  36.125  1.00  0.00    -0.126 N
HETATM    5  C5  UNL     1      61.469  43.272  34.667  1.00  0.00     0.197 C
HETATM    6  C6  UNL     1      60.879  44.002  37.030  1.00  0.00     0.701 A
HETATM    7  N10 UNL     1      60.845  43.327  38.249  1.00  0.00    -0.172 N
ATOM      8  H10 UNL     1      60.584  43.749  39.140  1.00  0.00     0.186 HD
ENDROOT
BRANCH   6   9
HETATM    9  N7  UNL     1      60.590  45.202  36.915  1.00  0.00    -0.178 N
HETATM   10  C7  UNL     1      60.899  46.493  37.184  1.00  0.00     0.194 C
ATOM     11  H7  UNL     1      59.727  45.229  36.371  1.00  0.00     0.185 HD
BRANCH  10  12
HETATM   12  C8  UNL     1      62.155  47.058  36.566  1.00  0.00     0.233 C
HETATM   13  O1  UNL     1      62.177  48.054  35.821  1.00  0.00    -0.643 OA
HETATM   14  O2  UNL     1      63.388  46.454  36.824  1.00  0.00    -0.643 OA
ENDBRANCH  10  12
BRANCH  10  15
HETATM   15  C9  UNL     1      60.774  46.983  38.587  1.00  0.00     0.293 C
HETATM   16  O3  UNL     1      59.996  46.361  39.364  1.00  0.00    -0.264 OA
HETATM   17  N8  UNL     1      61.459  48.089  39.118  1.00  0.00    -0.271 N
ATOM     18  H8  UNL     1      62.091  48.601  38.502  1.00  0.00     0.189 HD
BRANCH  17  19
HETATM   19  N9  UNL     1      61.329  48.529  40.433  1.00  0.00    -0.342 N
ATOM     20  H92 UNL     1      61.884  48.046  41.139  1.00  0.00     0.176 HD
ATOM     21  H91 UNL     1      60.719  49.294  40.721  1.00  0.00     0.176 HD
ENDBRANCH  17  19
ENDBRANCH  10  15
ENDBRANCH   6   9
BRANCH   1  22
HETATM   22  C2  UNL     1      61.303  41.003  39.078  1.00  0.00     0.068 C
HETATM   23  C1  UNL     1      60.413  41.065  40.270  1.00  0.00     0.074 C
HETATM   24  N1  UNL     1      62.099  40.049  38.973  1.00  0.00    -0.299 N
ATOM     25  H1  UNL     1      62.032  39.402  39.759  1.00  0.00     0.186 HD
BRANCH  24  26
HETATM   26  N2  UNL     1      63.028  39.665  38.072  1.00  0.00    -0.276 N
HETATM   27  C3  UNL     1      63.990  38.854  38.259  1.00  0.00     0.215 C
HETATM   28  N3  UNL     1      64.157  38.258  39.536  1.00  0.00    -0.065 NA
HETATM   29  N4  UNL     1      64.900  38.535  37.217  1.00  0.00    -0.065 NA
ATOM     30  H2  UNL     1      62.949  40.068  37.138  1.00  0.00     0.189 HD
ENDBRANCH  24  26
ENDBRANCH   1  22
TORSDOF 6
ENDMDL