MODEL 1
REMARK VINA RESULT: -7.224865669      0.000      0.000
REMARK  3 active torsions:
REMARK  status: ('A' for Active; 'I' for Inactive)
REMARK    1  A    between atoms: C3_5  and  C4_6
REMARK       I    between atoms: C4_6  and  N2_8
REMARK    2  A    between atoms: N2_8  and  N3_10
REMARK    3  A    between atoms: C5_13  and  C6_14
ROOT
HETATM    1  C1  UNL     1       7.939  16.388  15.018  1.00  0.00     0.049 C
HETATM    2  C2  UNL     1       7.917  17.404  14.175  1.00  0.00     0.092 C
HETATM    3  N1  UNL     1       6.765  18.237  14.155  1.00  0.00    -0.347 N
ATOM      4  H1  UNL     1       5.912  17.788  14.490  1.00  0.00     0.166 HD
HETATM    5  C3  UNL     1       6.595  19.627  13.737  1.00  0.00     0.122 C
HETATM    6  C5  UNL     1       7.266  20.196  12.754  1.00  0.00     0.111 C
HETATM    7  C7  UNL     1       8.322  19.554  11.899  1.00  0.00     0.264 C
HETATM    8  O2  UNL     1       8.366  20.091  10.752  1.00  0.00    -0.267 OA
HETATM    9  N8  UNL     1       9.208  18.504  12.185  1.00  0.00    -0.288 N
ATOM     10  H8  UNL     1       9.997  18.364  11.554  1.00  0.00     0.172 HD
HETATM   11  C8  UNL     1       9.082  17.607  13.314  1.00  0.00     0.274 C
HETATM   12  O3  UNL     1      10.081  16.920  13.592  1.00  0.00    -0.266 OA
ENDROOT
BRANCH   6  13
HETATM   13  C6  UNL     1       7.027  21.584  12.395  1.00  0.00     0.152 A
HETATM   14  N4  UNL     1       6.257  21.891  11.301  1.00  0.00    -0.271 N
HETATM   15  N5  UNL     1       6.092  23.198  11.222  1.00  0.00    -0.225 N
ATOM     16  H4  UNL     1       5.870  21.211  10.647  1.00  0.00     0.190 HD
HETATM   17  N6  UNL     1       6.728  23.764  12.231  1.00  0.00    -0.005 NA
ATOM     18  H5  UNL     1       5.562  23.689  10.502  1.00  0.00     0.205 HD
HETATM   19  N7  UNL     1       7.286  22.768  12.924  1.00  0.00    -0.266 N
ATOM     20  H7  UNL     1       7.846  22.905  13.766  1.00  0.00     0.186 HD
ENDBRANCH   6  13
BRANCH   5  21
HETATM   21  C4  UNL     1       5.679  20.404  14.511  1.00  0.00     0.287 C
HETATM   22  O1  UNL     1       5.977  21.291  15.320  1.00  0.00    -0.264 OA
HETATM   23  N2  UNL     1       4.264  20.173  14.372  1.00  0.00    -0.271 N
ATOM     24  H2  UNL     1       3.930  19.458  13.726  1.00  0.00     0.189 HD
BRANCH  23  25
HETATM   25  N3  UNL     1       3.329  20.933  15.126  1.00  0.00    -0.342 N
ATOM     26  H32 UNL     1       3.674  21.524  15.882  1.00  0.00     0.176 HD
ATOM     27  H31 UNL     1       2.332  20.886  14.915  1.00  0.00     0.176 HD
ENDBRANCH  23  25
ENDBRANCH   5  21
TORSDOF 3
ENDMDL