MODEL 1
REMARK VINA RESULT: -7.315274900      0.000      0.000
REMARK  4 active torsions:
REMARK  status: ('A' for Active; 'I' for Inactive)
REMARK    1  A    between atoms: N1_1  and  C1_4
REMARK    2  A    between atoms: N5_19  and  C7_20
REMARK    3  A    between atoms: C7_20  and  C8_21
REMARK       I    between atoms: C8_21  and  N6_23
REMARK    4  A    between atoms: N6_23  and  N7_25
ROOT
HETATM    1  C1  UNL     1       5.871  20.629  14.186  1.00  0.00     0.679 A
HETATM    2  N2  UNL     1       6.927  20.101  13.574  1.00  0.00    -0.154 N
ATOM      3  H2  UNL     1       7.481  20.674  12.938  1.00  0.00     0.187 HD
HETATM    4  C2  UNL     1       7.272  18.818  13.785  1.00  0.00     0.289 A
HETATM    5  O1  UNL     1       8.274  18.377  13.180  1.00  0.00    -0.265 OA
HETATM    6  C3  UNL     1       6.573  18.009  14.620  1.00  0.00     0.141 A
HETATM    7  C4  UNL     1       5.471  18.568  15.256  1.00  0.00     0.149 A
HETATM    8  N3  UNL     1       5.151  19.856  15.024  1.00  0.00    -0.184 N
ATOM      9  H3  UNL     1       4.340  20.258  15.494  1.00  0.00     0.184 HD
HETATM   10  C5  UNL     1       4.710  17.814  16.112  1.00  0.00     0.279 A
HETATM   11  O2  UNL     1       3.722  18.342  16.671  1.00  0.00    -0.265 OA
HETATM   12  N4  UNL     1       5.088  16.542  16.288  1.00  0.00    -0.273 N
ATOM     13  H4  UNL     1       4.544  15.952  16.917  1.00  0.00     0.173 HD
HETATM   14  C6  UNL     1       6.144  16.017  15.676  1.00  0.00     0.330 A
HETATM   15  O3  UNL     1       6.454  14.811  15.881  1.00  0.00    -0.246 OA
HETATM   16  N5  UNL     1       6.944  16.733  14.805  1.00  0.00    -0.284 N
ENDROOT
BRANCH  16  17
HETATM   17  C7  UNL     1       8.060  16.058  14.223  1.00  0.00     0.238 C
BRANCH  17  18
HETATM   18  C8  UNL     1       9.240  16.213  15.112  1.00  0.00     0.254 C
HETATM   19  O4  UNL     1       9.552  15.313  15.934  1.00  0.00    -0.270 OA
HETATM   20  N6  UNL     1      10.075  17.372  15.085  1.00  0.00    -0.275 N
ATOM     21  H6  UNL     1       9.843  18.115  14.426  1.00  0.00     0.189 HD
BRANCH  20  22
HETATM   22  N7  UNL     1      11.172  17.543  15.895  1.00  0.00    -0.343 N
ATOM     23  H72 UNL     1      11.553  16.709  16.342  1.00  0.00     0.176 HD
ATOM     24  H71 UNL     1      11.616  18.445  16.067  1.00  0.00     0.176 HD
ENDBRANCH  20  22
ENDBRANCH  17  18
ENDBRANCH  16  17
BRANCH   1  25
HETATM   25  N1  UNL     1       5.554  21.870  13.971  1.00  0.00    -0.234 N
ATOM     26  H12 UNL     1       6.255  22.556  13.688  1.00  0.00     0.174 HD
ATOM     27  H11 UNL     1       4.586  22.172  14.082  1.00  0.00     0.174 HD
ENDBRANCH   1  25
TORSDOF 4
ENDMDL