MODEL 2
REMARK VINA RESULT: -6.339453529      1.244      4.139
REMARK  4 active torsions:
REMARK  status: ('A' for Active; 'I' for Inactive)
REMARK       I    between atoms: C2_2  and  N1_4
REMARK    1  A    between atoms: N1_4  and  C3_6
REMARK    2  A    between atoms: C5_13  and  C6_14
REMARK    3  A    between atoms: C6_14  and  N4_16
REMARK    4  A    between atoms: N5_20  and  N6_21
REMARK       I    between atoms: N6_21  and  C8_23
ROOT
HETATM    1  C3  UNL     1       5.849  17.369  14.948  1.00  0.00     0.712 A
HETATM    2  N2  UNL     1       5.718  18.618  14.364  1.00  0.00    -0.139 N
ATOM      3  H2  UNL     1       4.797  19.051  14.296  1.00  0.00     0.189 HD
HETATM    4  C4  UNL     1       6.786  19.259  13.889  1.00  0.00     0.340 A
HETATM    5  O2  UNL     1       6.635  20.390  13.366  1.00  0.00    -0.246 OA
HETATM    6  N3  UNL     1       7.963  18.644  14.004  1.00  0.00    -0.294 N
ATOM      7  H3  UNL     1       8.790  19.120  13.647  1.00  0.00     0.172 HD
HETATM    8  C5  UNL     1       8.125  17.421  14.569  1.00  0.00     0.156 A
HETATM    9  N5  UNL     1       7.021  16.753  15.064  1.00  0.00    -0.067 N
ENDROOT
BRANCH   8  10
HETATM   10  C6  UNL     1       9.468  16.838  14.634  1.00  0.00     0.249 C
HETATM   11  C7  UNL     1      10.245  17.291  15.832  1.00  0.00     0.048 C
BRANCH  10  12
HETATM   12  N4  UNL     1      10.136  17.250  13.381  1.00  0.00    -0.069 N
ATOM     13  H43 UNL     1      10.049  16.569  12.627  1.00  0.00     0.275 HD
ATOM     14  H42 UNL     1       9.670  18.020  12.902  1.00  0.00     0.275 HD
ATOM     15  H41 UNL     1      11.101  17.452  13.642  1.00  0.00     0.275 HD
ENDBRANCH  10  12
ENDBRANCH   8  10
BRANCH   9  16
HETATM   16  N6  UNL     1       7.217  15.519  15.614  1.00  0.00    -0.231 N
HETATM   17  C8  UNL     1       7.595  14.284  15.151  1.00  0.00     0.348 C
HETATM   18  N7  UNL     1       7.662  13.208  16.158  1.00  0.00    -0.038 NA
HETATM   19  O3  UNL     1       7.892  13.907  14.033  1.00  0.00    -0.249 OA
ATOM     20  H6  UNL     1       7.038  15.514  16.618  1.00  0.00     0.192 HD
ENDBRANCH   9  16
BRANCH   1  21
HETATM   21  N1  UNL     1       4.780  16.825  15.405  1.00  0.00    -0.158 N
HETATM   22  C2  UNL     1       4.020  15.963  14.581  1.00  0.00     0.232 C
HETATM   23  C1  UNL     1       2.928  16.446  13.684  1.00  0.00     0.118 C
HETATM   24  O1  UNL     1       4.234  14.718  14.566  1.00  0.00    -0.273 OA
ATOM     25  H1  UNL     1       4.480  17.014  16.361  1.00  0.00     0.187 HD
ENDBRANCH   1  21
TORSDOF 4
ENDMDL