MODEL 4
REMARK VINA RESULT: -6.552614358      1.606      2.061
REMARK  4 active torsions:
REMARK  status: ('A' for Active; 'I' for Inactive)
REMARK       I    between atoms: N4_13  and  C7_15
REMARK    1  A    between atoms: C7_15  and  C8_17
REMARK    2  A    between atoms: C8_17  and  N5_18
REMARK    3  A    between atoms: C8_17  and  C9_22
REMARK    4  A    between atoms: C9_22  and  N6_23
ROOT
HETATM    1  C1  UNL     1       6.832  21.290  10.729  1.00  0.00     0.157 C
HETATM    2  N1  UNL     1       7.878  20.288  10.882  1.00  0.00    -0.340 N
HETATM    3  C2  UNL     1       8.847  19.949  10.024  1.00  0.00     0.184 A
HETATM    4  N2  UNL     1       9.601  18.973  10.566  1.00  0.00    -0.335 N
ATOM      5  H2  UNL     1      10.407  18.533  10.122  1.00  0.00     0.168 HD
HETATM    6  C3  UNL     1       9.118  18.670  11.791  1.00  0.00     0.154 A
HETATM    7  C4  UNL     1       8.035  19.511  11.968  1.00  0.00     0.150 A
HETATM    8  C5  UNL     1       7.182  19.557  13.150  1.00  0.00     0.290 C
HETATM    9  O1  UNL     1       6.507  20.604  13.288  1.00  0.00    -0.265 OA
HETATM   10  N3  UNL     1       7.044  18.539  14.152  1.00  0.00    -0.153 N
ATOM     11  H3  UNL     1       6.253  18.665  14.784  1.00  0.00     0.187 HD
HETATM   12  C6  UNL     1       7.832  17.386  14.404  1.00  0.00     0.702 C
HETATM   13  N4  UNL     1       7.326  16.582  15.241  1.00  0.00    -0.156 N
ATOM     14  H4  UNL     1       6.424  16.849  15.634  1.00  0.00     0.187 HD
HETATM   15  C7  UNL     1       7.857  15.375  15.689  1.00  0.00     0.268 C
HETATM   16  O2  UNL     1       8.737  15.366  16.572  1.00  0.00    -0.270 OA
HETATM   17  N7  UNL     1       9.088  17.093  13.808  1.00  0.00    -0.130 N
ATOM     18  H7  UNL     1       9.645  16.367  14.258  1.00  0.00     0.205 HD
HETATM   19  N8  UNL     1       9.647  17.689  12.673  1.00  0.00    -0.269 N
ATOM     20  H8  UNL     1      10.586  17.367  12.440  1.00  0.00     0.189 HD
ENDROOT
BRANCH  15  21
HETATM   21  C8  UNL     1       7.381  14.101  15.125  1.00  0.00     0.300 C
BRANCH  21  22
HETATM   22  N5  UNL     1       5.984  14.240  14.771  1.00  0.00    -0.065 N
ATOM     23  H53 UNL     1       5.632  15.182  14.939  1.00  0.00     0.275 HD
ATOM     24  H52 UNL     1       5.832  14.210  13.763  1.00  0.00     0.275 HD
ATOM     25  H51 UNL     1       5.448  13.530  15.268  1.00  0.00     0.275 HD
ENDBRANCH  21  22
BRANCH  21  26
HETATM   26  C9  UNL     1       7.499  12.960  16.114  1.00  0.00     0.272 C
BRANCH  26  27
HETATM   27  N6  UNL     1       6.396  12.041  15.830  1.00  0.00    -0.077 N
ATOM     28  H63 UNL     1       6.538  11.110  16.221  1.00  0.00     0.274 HD
ATOM     29  H62 UNL     1       5.543  12.266  16.342  1.00  0.00     0.274 HD
ATOM     30  H61 UNL     1       6.269  12.038  14.818  1.00  0.00     0.274 HD
ENDBRANCH  26  27
ENDBRANCH  21  26
ENDBRANCH  15  21
TORSDOF 4
ENDMDL