MODEL 4
REMARK VINA RESULT: -6.267080222      2.829      5.787
REMARK  5 active torsions:
REMARK  status: ('A' for Active; 'I' for Inactive)
REMARK    1  A    between atoms: C2_2  and  C3_3
REMARK    2  A    between atoms: C3_3  and  N1_4
REMARK    3  A    between atoms: C3_3  and  C4_8
REMARK       I    between atoms: C4_8  and  N2_10
REMARK    4  A    between atoms: N2_10  and  C5_12
REMARK    5  A    between atoms: N6_22  and  N7_23
ROOT
HETATM    1  C5  UNL     1       7.411  17.810  13.973  1.00  0.00     0.719 A
HETATM    2  N3  UNL     1       6.166  18.139  14.312  1.00  0.00    -0.097 N
ATOM      3  H3  UNL     1       5.729  18.936  13.849  1.00  0.00     0.199 HD
HETATM    4  S1  UNL     1       5.276  17.295  15.474  1.00  0.00     0.339 S
HETATM    5  O2  UNL     1       4.087  16.634  14.779  1.00  0.00    -0.182 OA
HETATM    6  O3  UNL     1       4.783  18.183  16.589  1.00  0.00    -0.182 OA
HETATM    7  N4  UNL     1       6.257  16.024  16.073  1.00  0.00    -0.238 N
ATOM      8  H4  UNL     1       5.906  15.390  16.790  1.00  0.00     0.183 HD
HETATM    9  C6  UNL     1       7.433  15.886  15.605  1.00  0.00     0.241 A
HETATM   10  N5  UNL     1       8.208  14.787  16.160  1.00  0.00    -0.060 NA
HETATM   11  N6  UNL     1       8.031  16.719  14.597  1.00  0.00    -0.061 N
ENDROOT
BRANCH   1  12
HETATM   12  N2  UNL     1       7.970  18.641  12.985  1.00  0.00    -0.155 N
HETATM   13  C4  UNL     1       7.440  19.402  11.960  1.00  0.00     0.266 C
HETATM   14  O1  UNL     1       6.262  19.540  11.651  1.00  0.00    -0.270 OA
ATOM     15  H2  UNL     1       8.987  18.692  13.035  1.00  0.00     0.187 HD
BRANCH  13  16
HETATM   16  C3  UNL     1       8.393  20.203  11.051  1.00  0.00     0.275 C
BRANCH  16  17
HETATM   17  C2  UNL     1       9.475  19.253  10.589  1.00  0.00     0.038 C
HETATM   18  C1  UNL     1       9.488  19.074   9.107  1.00  0.00     0.007 C
ENDBRANCH  16  17
BRANCH  16  19
HETATM   19  N1  UNL     1       7.603  20.716   9.977  1.00  0.00    -0.067 N
ATOM     20  H13 UNL     1       8.111  20.662   9.095  1.00  0.00     0.275 HD
ATOM     21  H12 UNL     1       6.829  20.087   9.763  1.00  0.00     0.275 HD
ATOM     22  H11 UNL     1       7.266  21.663  10.147  1.00  0.00     0.275 HD
ENDBRANCH  16  19
ENDBRANCH  13  16
ENDBRANCH   1  12
BRANCH  11  23
HETATM   23  N7  UNL     1       9.361  16.325  14.272  1.00  0.00    -0.322 N
ATOM     24  H72 UNL     1       9.959  17.114  14.027  1.00  0.00     0.178 HD
ATOM     25  H71 UNL     1       9.652  15.347  14.291  1.00  0.00     0.178 HD
ENDBRANCH  11  23
TORSDOF 5
ENDMDL