MODEL 3
REMARK VINA RESULT: -7.515854683      1.053      1.358
REMARK  3 active torsions:
REMARK  status: ('A' for Active; 'I' for Inactive)
REMARK    1  A    between atoms: C2_5  and  N2_6
REMARK    2  A    between atoms: N2_6  and  C3_8
REMARK    3  A    between atoms: C3_8  and  C4_9
ROOT
HETATM    1  O1  UNL     1       9.788  18.923   9.841  1.00  0.00    -0.265 OA
HETATM    2  C1  UNL     1       8.916  19.537  10.492  1.00  0.00     0.288 C
HETATM    3  N1  UNL     1       8.880  19.345  11.843  1.00  0.00    -0.154 N
ATOM      4  H1  UNL     1       9.705  18.899  12.245  1.00  0.00     0.187 HD
HETATM    5  C2  UNL     1       7.898  19.665  12.732  1.00  0.00     0.684 C
HETATM    6  N7  UNL     1       6.966  20.619  12.570  1.00  0.00    -0.154 N
ATOM      7  H7  UNL     1       6.534  20.966  13.426  1.00  0.00     0.187 HD
HETATM    8  C5  UNL     1       6.529  21.178  11.423  1.00  0.00     0.288 C
HETATM    9  O2  UNL     1       5.525  21.897  11.543  1.00  0.00    -0.265 OA
HETATM   10  C6  UNL     1       7.032  21.072  10.128  1.00  0.00     0.135 A
HETATM   11  N8  UNL     1       6.553  21.680   9.029  1.00  0.00    -0.346 N
ATOM     12  H8  UNL     1       5.746  22.304   9.019  1.00  0.00     0.167 HD
HETATM   13  C7  UNL     1       7.278  21.357   7.943  1.00  0.00     0.181 A
HETATM   14  N9  UNL     1       8.235  20.521   8.387  1.00  0.00    -0.346 N
ATOM     15  H9  UNL     1       8.953  20.094   7.802  1.00  0.00     0.167 HD
HETATM   16  C8  UNL     1       8.109  20.329   9.712  1.00  0.00     0.135 A
ENDROOT
BRANCH   5  17
HETATM   17  N2  UNL     1       7.921  18.958  13.790  1.00  0.00    -0.219 N
ATOM     18  H2  UNL     1       7.993  19.479  14.665  1.00  0.00     0.178 HD
BRANCH  17  19
HETATM   19  C3  UNL     1       7.861  17.548  13.921  1.00  0.00     0.217 C
BRANCH  19  20
HETATM   20  C4  UNL     1       9.007  17.089  14.785  1.00  0.00     0.131 A
HETATM   21  N3  UNL     1       9.075  15.991  15.558  1.00  0.00    -0.271 N
HETATM   22  N4  UNL     1      10.258  15.974  16.143  1.00  0.00    -0.227 N
ATOM     23  H3  UNL     1       8.340  15.294  15.672  1.00  0.00     0.190 HD
HETATM   24  N5  UNL     1      10.954  17.024  15.774  1.00  0.00    -0.227 N
ATOM     25  H4  UNL     1      10.583  15.253  16.788  1.00  0.00     0.210 HD
HETATM   26  N6  UNL     1      10.195  17.710  14.943  1.00  0.00    -0.271 N
ATOM     27  H5  UNL     1      11.900  17.263  16.073  1.00  0.00     0.210 HD
ATOM     28  H6  UNL     1      10.467  18.580  14.486  1.00  0.00     0.190 HD
ENDBRANCH  19  20
ENDBRANCH  17  19
ENDBRANCH   5  17
TORSDOF 3
ENDMDL