MODEL 4
REMARK VINA RESULT: -7.096730283      2.651      6.931
REMARK  4 active torsions:
REMARK  status: ('A' for Active; 'I' for Inactive)
REMARK    1  A    between atoms: C3_5  and  N2_6
REMARK    2  A    between atoms: N2_6  and  N3_8
REMARK    3  A    between atoms: N3_8  and  C4_10
REMARK       I    between atoms: N4_11  and  C5_13
REMARK    4  A    between atoms: C7_21  and  N8_22
ROOT
HETATM    1  C1  UNL     1       5.574  18.145  15.328  1.00  0.00     0.047 C
HETATM    2  C2  UNL     1       6.538  17.352  14.895  1.00  0.00     0.071 A
HETATM    3  N1  UNL     1       7.560  17.813  14.158  1.00  0.00    -0.334 N
ATOM      4  H1  UNL     1       7.593  18.806  13.926  1.00  0.00     0.168 HD
HETATM    5  C3  UNL     1       8.559  16.992  13.709  1.00  0.00     0.192 A
HETATM    6  C6  UNL     1       8.531  15.648  14.013  1.00  0.00     0.314 A
HETATM    7  O2  UNL     1       9.433  14.866  13.616  1.00  0.00    -0.262 OA
HETATM    8  N6  UNL     1       7.486  15.201  14.761  1.00  0.00    -0.183 N
HETATM    9  N7  UNL     1       7.213  13.981  15.192  1.00  0.00    -0.121 N
ATOM     10  H7  UNL     1       7.787  13.158  15.010  1.00  0.00     0.206 HD
HETATM   11  C7  UNL     1       6.075  13.978  15.903  1.00  0.00     0.692 A
HETATM   12  N9  UNL     1       5.628  15.244  15.912  1.00  0.00    -0.172 N
ATOM     13  H9  UNL     1       4.780  15.576  16.371  1.00  0.00     0.186 HD
HETATM   14  C8  UNL     1       6.506  16.008  15.201  1.00  0.00     0.172 A
ENDROOT
BRANCH   5  15
HETATM   15  N2  UNL     1       9.517  17.499  13.002  1.00  0.00    -0.280 N
ATOM     16  H2  UNL     1      10.360  16.954  12.825  1.00  0.00     0.188 HD
BRANCH  15  17
HETATM   17  N3  UNL     1       9.402  18.779  12.485  1.00  0.00    -0.294 N
ATOM     18  H3  UNL     1       9.169  19.579  13.073  1.00  0.00     0.187 HD
BRANCH  17  19
HETATM   19  C4  UNL     1       9.632  18.915  11.067  1.00  0.00     0.201 C
HETATM   20  N4  UNL     1       8.815  19.606  10.344  1.00  0.00    -0.306 N
HETATM   21  C5  UNL     1       7.702  20.224  10.932  1.00  0.00     0.333 C
ATOM     22  H4  UNL     1       8.979  19.701   9.342  1.00  0.00     0.171 HD
HETATM   23  N5  UNL     1       7.234  21.464  10.440  1.00  0.00    -0.040 NA
HETATM   24  O1  UNL     1       7.141  19.644  11.899  1.00  0.00    -0.251 OA
ENDBRANCH  17  19
ENDBRANCH  15  17
ENDBRANCH   5  15
BRANCH  11  25
HETATM   25  N8  UNL     1       5.540  12.922  16.463  1.00  0.00    -0.233 N
ATOM     26  H82 UNL     1       5.703  12.548  17.397  1.00  0.00     0.174 HD
ATOM     27  H81 UNL     1       4.860  12.304  16.019  1.00  0.00     0.174 HD
ENDBRANCH  11  25
TORSDOF 4
ENDMDL