MODEL 4
REMARK VINA RESULT: -7.273654146      1.648      1.858
REMARK  2 active torsions:
REMARK  status: ('A' for Active; 'I' for Inactive)
REMARK       I    between atoms: N4_11  and  C5_13
REMARK    1  A    between atoms: C5_13  and  C6_15
REMARK    2  A    between atoms: C6_15  and  N5_16
REMARK       I    between atoms: N5_16  and  C7_18
ROOT
HETATM    1  C1  UNL     1       4.412  22.026  13.910  1.00  0.00     0.161 C
HETATM    2  N1  UNL     1       5.582  21.677  13.131  1.00  0.00    -0.298 N
HETATM    3  C2  UNL     1       6.052  22.353  12.057  1.00  0.00     0.328 A
HETATM    4  O1  UNL     1       5.508  23.404  11.592  1.00  0.00    -0.246 OA
HETATM    5  N2  UNL     1       7.146  21.728  11.605  1.00  0.00    -0.292 N
ATOM      6  H2  UNL     1       7.700  22.025  10.803  1.00  0.00     0.172 HD
HETATM    7  C3  UNL     1       7.403  20.657  12.359  1.00  0.00     0.155 A
HETATM    8  N3  UNL     1       8.362  19.710  12.336  1.00  0.00    -0.174 N
ATOM      9  H3  UNL     1       9.092  19.733  11.624  1.00  0.00     0.186 HD
HETATM   10  C4  UNL     1       8.345  18.730  13.262  1.00  0.00     0.688 A
HETATM   11  N4  UNL     1       9.290  17.849  13.191  1.00  0.00    -0.158 N
ATOM     12  H4  UNL     1      10.008  17.898  12.469  1.00  0.00     0.187 HD
HETATM   13  C5  UNL     1       9.284  16.817  14.156  1.00  0.00     0.253 C
HETATM   14  O2  UNL     1       9.814  17.028  15.265  1.00  0.00    -0.271 OA
HETATM   15  N7  UNL     1       7.381  18.699  14.201  1.00  0.00    -0.176 N
ATOM     16  H7  UNL     1       7.397  17.945  14.888  1.00  0.00     0.185 HD
HETATM   17  C8  UNL     1       6.397  19.614  14.279  1.00  0.00     0.162 A
HETATM   18  N8  UNL     1       5.383  19.552  15.295  1.00  0.00    -0.080 NA
HETATM   19  C9  UNL     1       6.408  20.620  13.334  1.00  0.00     0.125 A
ENDROOT
BRANCH  13  20
HETATM   20  C6  UNL     1       8.661  15.521  13.845  1.00  0.00     0.227 C
BRANCH  20  21
HETATM   21  N5  UNL     1       8.044  14.913  15.003  1.00  0.00    -0.337 N
HETATM   22  C7  UNL     1       6.700  15.220  15.312  1.00  0.00     0.329 C
HETATM   23  N6  UNL     1       6.070  14.627  16.456  1.00  0.00    -0.040 NA
HETATM   24  O3  UNL     1       6.055  16.025  14.571  1.00  0.00    -0.251 OA
ATOM     25  H5  UNL     1       8.574  14.269  15.591  1.00  0.00     0.164 HD
ENDBRANCH  20  21
ENDBRANCH  13  20
TORSDOF 2
ENDMDL