MODEL 1
REMARK VINA RESULT: -6.781333378      0.000      0.000
REMARK  3 active torsions:
REMARK  status: ('A' for Active; 'I' for Inactive)
REMARK    1  A    between atoms: N3_11  and  C6_12
REMARK    2  A    between atoms: C9_15  and  N4_16
REMARK       I    between atoms: N4_16  and  C10_18
REMARK       I    between atoms: C10_18  and  N5_19
REMARK       I    between atoms: C10_18  and  N6_23
REMARK    3  A    between atoms: N6_23  and  N7_24
ROOT
HETATM    1  C1  UNL     1       8.777  15.076  14.440  1.00  0.00     0.021 C
HETATM    2  C2  UNL     1       8.245  16.150  14.321  1.00  0.00    -0.041 C
HETATM    3  C3  UNL     1       7.596  17.424  14.192  1.00  0.00     0.163 A
HETATM    4  N1  UNL     1       6.489  17.743  14.885  1.00  0.00    -0.319 N
ATOM      5  H1  UNL     1       6.096  17.055  15.527  1.00  0.00     0.169 HD
HETATM    6  C4  UNL     1       5.882  18.936  14.764  1.00  0.00     0.142 A
HETATM    7  N2  UNL     1       4.802  19.512  15.312  1.00  0.00    -0.292 N
ATOM      8  H2  UNL     1       4.185  19.082  15.999  1.00  0.00     0.172 HD
HETATM    9  C5  UNL     1       4.665  20.761  14.802  1.00  0.00     0.328 A
HETATM   10  O1  UNL     1       3.723  21.517  15.154  1.00  0.00    -0.246 OA
HETATM   11  N3  UNL     1       5.659  20.992  13.923  1.00  0.00    -0.293 N
HETATM   12  C8  UNL     1       6.408  19.884  13.892  1.00  0.00     0.127 A
HETATM   13  C9  UNL     1       7.541  19.563  13.180  1.00  0.00     0.137 A
HETATM   14  N8  UNL     1       8.099  18.344  13.351  1.00  0.00    -0.320 N
ATOM     15  H8  UNL     1       8.938  18.112  12.820  1.00  0.00     0.169 HD
ENDROOT
BRANCH  13  16
HETATM   16  N4  UNL     1       8.045  20.402  12.381  1.00  0.00    -0.333 N
HETATM   17  C10 UNL     1       8.324  20.276  10.991  1.00  0.00     0.397 C
HETATM   18  N5  UNL     1       7.159  20.056  10.158  1.00  0.00    -0.042 N
HETATM   19  N6  UNL     1       9.331  19.263  10.743  1.00  0.00    -0.093 NA
ATOM     20  H53 UNL     1       6.635  19.245  10.489  1.00  0.00     0.278 HD
ATOM     21  H52 UNL     1       6.467  20.789  10.315  1.00  0.00     0.278 HD
ATOM     22  H51 UNL     1       7.359  19.966   9.162  1.00  0.00     0.278 HD
ATOM     23  H4  UNL     1       8.287  21.302  12.793  1.00  0.00     0.164 HD
BRANCH  19  24
HETATM   24  N7  UNL     1       9.617  19.124   9.400  1.00  0.00    -0.345 N
ATOM     25  H72 UNL     1       9.945  19.896   8.819  1.00  0.00     0.172 HD
ATOM     26  H71 UNL     1       9.462  18.172   9.067  1.00  0.00     0.172 HD
ENDBRANCH  19  24
ENDBRANCH  13  16
BRANCH  11  27
HETATM   27  C6  UNL     1       5.830  22.191  13.202  1.00  0.00     0.130 C
HETATM   28  C7  UNL     1       4.900  22.205  11.976  1.00  0.00     0.027 C
ENDBRANCH  11  27
TORSDOF 3
ENDMDL