MODEL 5
REMARK VINA RESULT: -6.766594529      2.475      5.512
REMARK  4 active torsions:
REMARK  status: ('A' for Active; 'I' for Inactive)
REMARK    1  A    between atoms: C5_11  and  N4_12
REMARK    2  A    between atoms: N6_18  and  C7_20
REMARK    3  A    between atoms: C7_20  and  C8_21
REMARK       I    between atoms: C8_21  and  N7_23
REMARK    4  A    between atoms: N7_23  and  N8_25
ROOT
HETATM    1  C1  UNL     1       4.300  16.845  15.637  1.00  0.00     0.160 C
HETATM    2  N1  UNL     1       5.103  17.910  15.144  1.00  0.00    -0.311 N
HETATM    3  C2  UNL     1       4.631  19.197  15.077  1.00  0.00     0.263 A
HETATM    4  O1  UNL     1       3.457  19.405  15.468  1.00  0.00    -0.267 OA
HETATM    5  C3  UNL     1       5.369  20.251  14.609  1.00  0.00     0.164 A
HETATM    6  N2  UNL     1       6.623  20.047  14.188  1.00  0.00    -0.345 N
ATOM      7  H2  UNL     1       7.185  20.823  13.838  1.00  0.00     0.167 HD
HETATM    8  C4  UNL     1       7.134  18.794  14.234  1.00  0.00     0.152 A
HETATM    9  N3  UNL     1       8.401  18.600  13.807  1.00  0.00    -0.174 N
ATOM     10  H3  UNL     1       8.946  19.388  13.460  1.00  0.00     0.186 HD
HETATM   11  C5  UNL     1       8.944  17.379  13.837  1.00  0.00     0.679 A
HETATM   12  N5  UNL     1       8.231  16.340  14.291  1.00  0.00    -0.175 N
ATOM     13  H5  UNL     1       8.658  15.414  14.307  1.00  0.00     0.186 HD
HETATM   14  C6  UNL     1       6.948  16.486  14.734  1.00  0.00     0.148 A
HETATM   15  N6  UNL     1       6.285  15.503  15.161  1.00  0.00    -0.365 N
ATOM     16  H6  UNL     1       5.329  15.654  15.482  1.00  0.00     0.161 HD
HETATM   17  C9  UNL     1       6.369  17.733  14.713  1.00  0.00     0.127 A
ENDROOT
BRANCH  15  18
HETATM   18  C7  UNL     1       6.827  14.184  15.208  1.00  0.00     0.225 C
BRANCH  18  19
HETATM   19  C8  UNL     1       5.740  13.168  15.050  1.00  0.00     0.253 C
HETATM   20  O2  UNL     1       4.637  13.491  14.543  1.00  0.00    -0.270 OA
HETATM   21  N7  UNL     1       5.910  11.821  15.461  1.00  0.00    -0.275 N
ATOM     22  H7  UNL     1       6.799  11.544  15.875  1.00  0.00     0.189 HD
BRANCH  21  23
HETATM   23  N8  UNL     1       4.920  10.874  15.324  1.00  0.00    -0.343 N
ATOM     24  H82 UNL     1       3.953  11.197  15.310  1.00  0.00     0.176 HD
ATOM     25  H81 UNL     1       5.123   9.877  15.236  1.00  0.00     0.176 HD
ENDBRANCH  21  23
ENDBRANCH  18  19
ENDBRANCH  15  18
BRANCH  11  26
HETATM   26  N4  UNL     1      10.153  17.230  13.422  1.00  0.00    -0.234 N
ATOM     27  H42 UNL     1      10.462  17.626  12.534  1.00  0.00     0.174 HD
ATOM     28  H41 UNL     1      10.808  16.704  14.000  1.00  0.00     0.174 HD
ENDBRANCH  11  26
TORSDOF 4
ENDMDL