MODEL 2
REMARK VINA RESULT: -6.754648321      3.713      5.768
REMARK  2 active torsions:
REMARK  status: ('A' for Active; 'I' for Inactive)
REMARK    1  A    between atoms: N5_13  and  N6_15
REMARK    2  A    between atoms: C5_17  and  C6_18
ROOT
HETATM    1  O1  UNL     1      -0.435 -81.631-140.380  1.00  0.00    -0.278 OA
HETATM    2  C1  UNL     1       0.523 -81.384-141.132  1.00  0.00     0.237 A
HETATM    3  C2  UNL     1       1.787 -82.013-141.450  1.00  0.00     0.152 A
HETATM    4  N1  UNL     1       2.512 -81.426-142.301  1.00  0.00    -0.352 N
ATOM      5  H1  UNL     1       3.412 -81.829-142.558  1.00  0.00     0.166 HD
HETATM    6  C3  UNL     1       2.106 -80.255-142.885  1.00  0.00     0.131 A
HETATM    7  S1  UNL     1       0.638 -79.943-142.221  1.00  0.00     0.020 SA
HETATM    8  N2  UNL     1      -0.237 -78.510-142.727  1.00  0.00    -0.049 NA
HETATM    9  N3  UNL     1       0.278 -78.249-144.026  1.00  0.00    -0.018 NA
HETATM   10  N4  UNL     1       1.657 -78.177-144.084  1.00  0.00    -0.269 N
ATOM     11  H4  UNL     1       2.065 -77.269-144.305  1.00  0.00     0.185 HD
HETATM   12  C4  UNL     1       2.558 -79.256-143.863  1.00  0.00     0.168 C
HETATM   13  N5  UNL     1       3.694 -79.406-144.438  1.00  0.00    -0.283 N
ATOM     14  H5  UNL     1       4.286 -80.207-144.223  1.00  0.00     0.188 HD
ENDROOT
BRANCH  13  15
HETATM   15  N6  UNL     1       4.099 -78.454-145.355  1.00  0.00    -0.307 N
HETATM   16  C5  UNL     1       3.711 -78.514-146.571  1.00  0.00     0.154 C
ATOM     17  H6  UNL     1       4.713 -77.696-145.058  1.00  0.00     0.186 HD
BRANCH  16  18
HETATM   18  C6  UNL     1       2.840 -79.585-147.001  1.00  0.00     0.114 C
HETATM   19  N7  UNL     1       1.550 -79.586-147.020  1.00  0.00    -0.374 N
HETATM   20  C7  UNL     1       1.034 -80.839-147.516  1.00  0.00     0.141 C
ATOM     21  H7  UNL     1       0.970 -78.802-146.722  1.00  0.00     0.161 HD
HETATM   22  C8  UNL     1       2.211 -81.769-147.388  1.00  0.00     0.141 C
HETATM   23  N8  UNL     1       3.317 -80.850-147.484  1.00  0.00    -0.374 N
ATOM     24  H8  UNL     1       4.254 -81.057-147.829  1.00  0.00     0.161 HD
ENDBRANCH  16  18
ENDBRANCH  13  15
TORSDOF 2
ENDMDL