MODEL 1
REMARK VINA RESULT: -8.026984991      0.000      0.000
REMARK  2 active torsions:
REMARK  status: ('A' for Active; 'I' for Inactive)
REMARK    1  A    between atoms: N1_1  and  C1_4
REMARK    2  A    between atoms: C6_26  and  N10_27
ROOT
HETATM    1  C1  UNL     1       3.023 -80.128-145.993  1.00  0.00     0.134 A
HETATM    2  N2  UNL     1       3.218 -79.441-147.118  1.00  0.00    -0.292 N
ATOM      3  H2  UNL     1       3.625 -79.892-147.938  1.00  0.00     0.172 HD
HETATM    4  C2  UNL     1       2.868 -78.134-147.156  1.00  0.00     0.340 A
HETATM    5  O1  UNL     1       3.070 -77.521-148.234  1.00  0.00    -0.245 OA
HETATM    6  N3  UNL     1       2.334 -77.562-146.068  1.00  0.00    -0.251 N
ATOM      7  H3  UNL     1       2.062 -76.578-146.077  1.00  0.00     0.191 HD
HETATM    8  N4  UNL     1       2.164 -78.306-144.973  1.00  0.00    -0.291 N
ATOM      9  H4  UNL     1       1.754 -77.832-144.168  1.00  0.00     0.187 HD
HETATM   10  C3  UNL     1       2.457 -79.558-144.807  1.00  0.00     0.121 A
HETATM   11  C4  UNL     1       2.265 -80.468-143.714  1.00  0.00     0.099 A
HETATM   12  N5  UNL     1       3.208 -81.513-143.676  1.00  0.00    -0.283 N
ATOM     13  H5  UNL     1       3.901 -81.573-144.421  1.00  0.00     0.188 HD
HETATM   14  N6  UNL     1       3.231 -82.392-142.742  1.00  0.00    -0.241 N
ATOM     15  H6  UNL     1       3.935 -83.130-142.757  1.00  0.00     0.208 HD
HETATM   16  N7  UNL     1       2.355 -82.344-141.772  1.00  0.00    -0.269 N
ATOM     17  H7  UNL     1       2.388 -83.047-141.034  1.00  0.00     0.190 HD
HETATM   18  C5  UNL     1       1.414 -81.392-141.726  1.00  0.00     0.152 A
HETATM   19  N8  UNL     1       0.405 -81.213-140.861  1.00  0.00    -0.282 N
ATOM     20  H8  UNL     1       0.212 -81.772-140.031  1.00  0.00     0.188 HD
HETATM   21  N9  UNL     1      -0.275 -80.203-141.278  1.00  0.00    -0.278 N
ATOM     22  H9  UNL     1      -1.105 -79.840-140.808  1.00  0.00     0.189 HD
HETATM   23  C6  UNL     1       0.259 -79.661-142.451  1.00  0.00     0.204 A
HETATM   24  C7  UNL     1       1.353 -80.422-142.723  1.00  0.00     0.093 A
ENDROOT
BRANCH   1  25
HETATM   25  N1  UNL     1       3.325 -81.375-145.920  1.00  0.00    -0.383 N
ATOM     26  H12 UNL     1       3.543 -81.829-146.808  1.00  0.00     0.157 HD
ATOM     27  H11 UNL     1       3.353 -81.856-145.021  1.00  0.00     0.157 HD
ENDBRANCH   1  25
BRANCH  23  28
HETATM   28  N10 UNL     1      -0.384 -78.667-143.152  1.00  0.00    -0.095 N
HETATM   29  O2  UNL     1       0.213 -77.492-143.030  1.00  0.00    -0.530 OA
HETATM   30  O3  UNL     1      -1.423 -78.516-143.907  1.00  0.00    -0.530 OA
ENDBRANCH  23  28
TORSDOF 2
ENDMDL