MODEL 4
REMARK VINA RESULT: -6.574297572      2.583      4.146
REMARK  4 active torsions:
REMARK  status: ('A' for Active; 'I' for Inactive)
REMARK    1  A    between atoms: N1_2  and  C3_4
REMARK    2  A    between atoms: C4_7  and  O1_8
REMARK    3  A    between atoms: O1_8  and  C5_9
REMARK       I    between atoms: C5_9  and  N3_11
REMARK    4  A    between atoms: N3_11  and  N4_13
ROOT
HETATM    1  C3  UNL     1       1.441 -79.427-144.898  1.00  0.00     0.137 A
HETATM    2  N2  UNL     1       0.572 -78.487-145.320  1.00  0.00    -0.306 N
ATOM      3  H2  UNL     1       0.712 -78.089-146.249  1.00  0.00     0.171 HD
HETATM    4  C4  UNL     1      -0.455 -78.046-144.604  1.00  0.00     0.235 A
HETATM    5  N5  UNL     1      -0.634 -78.572-143.386  1.00  0.00    -0.305 N
ATOM      6  H5  UNL     1      -1.419 -78.245-142.823  1.00  0.00     0.171 HD
HETATM    7  C6  UNL     1       0.173 -79.509-142.877  1.00  0.00     0.155 A
HETATM    8  N6  UNL     1       0.211 -80.170-141.710  1.00  0.00    -0.174 N
ATOM      9  H6  UNL     1      -0.447 -80.057-140.939  1.00  0.00     0.186 HD
HETATM   10  C7  UNL     1       1.255 -80.998-141.728  1.00  0.00     0.680 A
HETATM   11  N7  UNL     1       1.615 -81.793-140.790  1.00  0.00    -0.234 N
ATOM     12  H71 UNL     1       2.414 -82.427-140.804  1.00  0.00     0.174 HD
ATOM     13  H72 UNL     1       1.119 -81.875-139.902  1.00  0.00     0.174 HD
HETATM   14  N8  UNL     1       1.919 -80.888-142.918  1.00  0.00    -0.180 N
HETATM   15  C8  UNL     1       3.106 -81.614-143.294  1.00  0.00     0.176 C
HETATM   16  C9  UNL     1       1.261 -79.968-143.649  1.00  0.00     0.139 A
ENDROOT
BRANCH   4  17
HETATM   17  O1  UNL     1      -1.328 -77.060-145.108  1.00  0.00    -0.227 OA
BRANCH  17  18
HETATM   18  C5  UNL     1      -1.979 -77.343-146.301  1.00  0.00     0.386 C
HETATM   19  O2  UNL     1      -2.079 -76.420-147.165  1.00  0.00    -0.236 OA
HETATM   20  N3  UNL     1      -2.532 -78.612-146.589  1.00  0.00    -0.252 N
ATOM     21  H3  UNL     1      -2.462 -79.367-145.908  1.00  0.00     0.191 HD
BRANCH  20  22
HETATM   22  N4  UNL     1      -3.170 -78.825-147.805  1.00  0.00    -0.341 N
ATOM     23  H42 UNL     1      -3.278 -79.779-148.149  1.00  0.00     0.177 HD
ATOM     24  H41 UNL     1      -3.522 -78.029-148.337  1.00  0.00     0.177 HD
ENDBRANCH  20  22
ENDBRANCH  17  18
ENDBRANCH   4  17
BRANCH   1  25
HETATM   25  N1  UNL     1       2.478 -79.851-145.760  1.00  0.00    -0.374 N
HETATM   26  C1  UNL     1       3.834 -79.364-145.719  1.00  0.00     0.150 C
HETATM   27  C2  UNL     1       2.159 -80.876-146.743  1.00  0.00     0.150 C
ENDBRANCH   1  25
TORSDOF 4
ENDMDL