MODEL 2
REMARK VINA RESULT: -6.461972504      1.430      1.986
REMARK  3 active torsions:
REMARK  status: ('A' for Active; 'I' for Inactive)
REMARK    1  A    between atoms: N1_1  and  C1_4
REMARK    2  A    between atoms: C3_13  and  N7_14
REMARK    3  A    between atoms: C4_17  and  N8_18
ROOT
HETATM    1  C1  UNL     1       3.006 -80.239-143.928  1.00  0.00     0.145 A
HETATM    2  N2  UNL     1       2.705 -81.182-143.024  1.00  0.00    -0.172 N
ATOM      3  H2  UNL     1       3.336 -81.976-142.917  1.00  0.00     0.186 HD
HETATM    4  C2  UNL     1       1.605 -81.125-142.254  1.00  0.00     0.718 A
HETATM    5  N3  UNL     1       1.122 -81.954-141.300  1.00  0.00    -0.116 N
ATOM      6  H3  UNL     1       1.534 -82.829-140.974  1.00  0.00     0.202 HD
HETATM    7  N4  UNL     1      -0.008 -81.384-140.876  1.00  0.00     0.007 NA
HETATM    8  N5  UNL     1      -0.226 -80.257-141.530  1.00  0.00     0.016 NA
HETATM    9  N6  UNL     1       0.766 -80.082-142.388  1.00  0.00    -0.046 N
HETATM   10  C3  UNL     1       1.037 -79.099-143.297  1.00  0.00     0.241 A
HETATM   11  C4  UNL     1       2.152 -79.158-144.078  1.00  0.00     0.131 A
ENDROOT
BRANCH  11  12
HETATM   12  N8  UNL     1       2.425 -78.151-145.009  1.00  0.00    -0.339 N
HETATM   13  C5  UNL     1       2.489 -78.312-146.273  1.00  0.00     0.103 C
HETATM   14  C6  UNL     1       2.296 -79.549-147.032  1.00  0.00     0.308 C
HETATM   15  N10 UNL     1       2.789 -77.153-147.086  1.00  0.00    -0.377 N
HETATM   16  N9  UNL     1       3.395 -79.838-147.926  1.00  0.00    -0.067 N
HETATM   17  C7  UNL     1       3.788 -78.708-148.724  1.00  0.00     0.252 C
ATOM     18  H92 UNL     1       4.192 -80.214-147.413  1.00  0.00     0.277 HD
ATOM     19  H91 UNL     1       3.182 -80.642-148.517  1.00  0.00     0.277 HD
HETATM   20  C8  UNL     1       2.982 -77.472-148.502  1.00  0.00     0.148 C
ATOM     21  H10 UNL     1       2.859 -76.207-146.710  1.00  0.00     0.160 HD
ATOM     22  H8  UNL     1       2.586 -77.211-144.647  1.00  0.00     0.167 HD
ENDBRANCH  11  12
BRANCH   1  23
HETATM   23  N1  UNL     1       4.064 -80.288-144.668  1.00  0.00    -0.383 N
ATOM     24  H12 UNL     1       4.131 -81.030-145.365  1.00  0.00     0.157 HD
ATOM     25  H11 UNL     1       4.830 -79.619-144.587  1.00  0.00     0.157 HD
ENDBRANCH   1  23
BRANCH  10  26
HETATM   26  N7  UNL     1       0.143 -78.006-143.420  1.00  0.00    -0.093 N
HETATM   27  O1  UNL     1       0.017 -77.109-142.589  1.00  0.00    -0.530 OA
HETATM   28  O2  UNL     1      -0.644 -77.950-144.564  1.00  0.00    -0.530 OA
ENDBRANCH  10  26
TORSDOF 3
ENDMDL