MODEL 1
REMARK VINA RESULT: -7.700349504      0.000      0.000
REMARK  6 active torsions:
REMARK  status: ('A' for Active; 'I' for Inactive)
REMARK    1  A    between atoms: O1_2  and  C2_3
REMARK    2  A    between atoms: C2_3  and  C3_5
REMARK    3  A    between atoms: C3_5  and  O3_6
REMARK    4  A    between atoms: C3_5  and  C4_8
REMARK    5  A    between atoms: C6_10  and  N1_11
REMARK    6  A    between atoms: N3_23  and  O6_25
ROOT
HETATM    1  C4  UNL     1       0.132 -79.414-145.253  1.00  0.00     0.232 C
HETATM    2  C5  UNL     1       0.863 -79.344-143.928  1.00  0.00     0.069 C
HETATM    3  C6  UNL     1       2.277 -79.735-144.186  1.00  0.00     0.192 C
HETATM    4  C7  UNL     1       2.907 -79.073-145.365  1.00  0.00     0.137 C
HETATM    5  C8  UNL     1       1.982 -78.685-146.465  1.00  0.00     0.374 C
HETATM    6  N2  UNL     1       0.648 -78.343-146.052  1.00  0.00    -0.007 N
ATOM      7  H21 UNL     1       0.603 -77.442-145.575  1.00  0.00     0.284 HD
ATOM      8  H22 UNL     1       0.040 -78.113-146.838  1.00  0.00     0.284 HD
HETATM    9  O4  UNL     1       1.966 -79.618-147.504  1.00  0.00    -0.160 OA
HETATM   10  O5  UNL     1       3.238 -79.490-147.961  1.00  0.00    -0.145 OA
HETATM   11  C9  UNL     1       3.565 -78.127-147.900  1.00  0.00     0.318 C
HETATM   12  N3  UNL     1       4.592 -77.554-148.440  1.00  0.00    -0.224 N
ATOM     13  H3  UNL     1       5.277 -78.082-148.980  1.00  0.00     0.198 HD
HETATM   14  O7  UNL     1       2.544 -77.569-147.139  1.00  0.00    -0.248 OA
ENDROOT
BRANCH   3  15
HETATM   15  N1  UNL     1       3.045 -79.405-142.972  1.00  0.00    -0.075 N
ATOM     16  H13 UNL     1       2.921 -78.439-142.670  1.00  0.00     0.274 HD
ATOM     17  H12 UNL     1       2.679 -79.854-142.132  1.00  0.00     0.274 HD
ATOM     18  H11 UNL     1       4.019 -79.642-143.160  1.00  0.00     0.274 HD
ENDBRANCH   3  15
BRANCH   1  19
HETATM   19  C3  UNL     1      -1.358 -79.397-145.082  1.00  0.00     0.248 C
BRANCH  19  20
HETATM   20  C2  UNL     1      -2.000 -78.254-145.759  1.00  0.00     0.289 C
HETATM   21  O2  UNL     1      -2.649 -78.429-146.824  1.00  0.00    -0.262 OA
BRANCH  20  22
HETATM   22  O1  UNL     1      -1.928 -76.955-145.278  1.00  0.00    -0.324 OA
HETATM   23  C1  UNL     1      -1.979 -75.857-146.176  1.00  0.00     0.213 C
ENDBRANCH  20  22
ENDBRANCH  19  20
BRANCH  19  24
HETATM   24  O3  UNL     1      -1.729 -79.428-143.739  1.00  0.00    -0.383 OA
ATOM     25  H3  UNL     1      -1.734 -78.549-143.381  1.00  0.00     0.210 HD
ENDBRANCH  19  24
ENDBRANCH   1  19
BRANCH  12  26
HETATM   26  O6  UNL     1       4.714 -76.197-148.249  1.00  0.00    -0.286 OA
ATOM     27  H6  UNL     1       5.540 -75.803-148.504  1.00  0.00     0.244 HD
ENDBRANCH  12  26
TORSDOF 6
ENDMDL