MODEL 4
REMARK VINA RESULT: -3.663138966      1.802      3.862
REMARK  4 active torsions:
REMARK  status: ('A' for Active; 'I' for Inactive)
REMARK    1  A    between atoms: N1_2  and  C2_5
REMARK    2  A    between atoms: C3_6  and  O1_8
REMARK    3  A    between atoms: N2_11  and  O2_13
REMARK    4  A    between atoms: C10_21  and  N3_22
ROOT
HETATM    1  C2  UNL     1       0.560 -80.335-146.541  1.00  0.00     0.271 C
HETATM    2  C3  UNL     1      -0.734 -79.788-145.986  1.00  0.00     0.129 C
HETATM    3  C4  UNL     1      -1.567 -79.029-146.968  1.00  0.00     0.055 C
HETATM    4  C5  UNL     1       0.093 -78.969-145.060  1.00  0.00     0.088 C
HETATM    5  N2  UNL     1      -0.132 -77.900-144.410  1.00  0.00    -0.271 N
ATOM      6  H2  UNL     1       0.608 -77.515-143.825  1.00  0.00     0.193 HD
HETATM    7  C6  UNL     1       1.175 -79.980-145.246  1.00  0.00     0.210 C
HETATM    8  O3  UNL     1       1.199 -80.950-144.254  1.00  0.00    -0.330 OA
HETATM    9  C7  UNL     1       2.072 -80.474-143.293  1.00  0.00     0.163 C
HETATM   10  C8  UNL     1       2.879 -81.617-142.703  1.00  0.00     0.078 C
HETATM   11  C9  UNL     1       1.381 -79.787-142.139  1.00  0.00     0.078 C
HETATM   12  O4  UNL     1       2.887 -79.520-143.887  1.00  0.00    -0.304 OA
HETATM   13  C10 UNL     1       2.576 -79.487-145.237  1.00  0.00     0.355 C
HETATM   14  C11 UNL     1       2.737 -78.182-145.829  1.00  0.00     0.132 C
HETATM   15  N4  UNL     1       2.872 -77.164-146.308  1.00  0.00    -0.192 NA
ENDROOT
BRANCH  13  16
HETATM   16  N3  UNL     1       3.462 -80.471-145.873  1.00  0.00    -0.029 N
ATOM     17  H33 UNL     1       4.086 -80.038-146.554  1.00  0.00     0.279 HD
ATOM     18  H32 UNL     1       4.168 -80.822-145.225  1.00  0.00     0.279 HD
ATOM     19  H31 UNL     1       2.912 -81.226-146.283  1.00  0.00     0.279 HD
ENDBRANCH  13  16
BRANCH   1  20
HETATM   20  N1  UNL     1       0.557 -81.700-146.954  1.00  0.00    -0.068 N
HETATM   21  C1  UNL     1       1.851 -81.975-147.591  1.00  0.00     0.267 C
ATOM     22  H12 UNL     1      -0.237 -81.931-147.552  1.00  0.00     0.277 HD
ATOM     23  H11 UNL     1       0.344 -82.344-146.193  1.00  0.00     0.277 HD
ENDBRANCH   1  20
BRANCH   2  24
HETATM   24  O1  UNL     1      -1.492 -80.726-145.282  1.00  0.00    -0.382 OA
ATOM     25  H1  UNL     1      -1.116 -81.598-145.268  1.00  0.00     0.211 HD
ENDBRANCH   2  24
BRANCH   5  26
HETATM   26  O2  UNL     1      -1.328 -77.254-144.469  1.00  0.00    -0.290 OA
ATOM     27  H2  UNL     1      -1.501 -76.566-145.102  1.00  0.00     0.244 HD
ENDBRANCH   5  26
TORSDOF 4
ENDMDL