MODEL 5
REMARK VINA RESULT: -6.935169722      2.322      5.619
REMARK  3 active torsions:
REMARK  status: ('A' for Active; 'I' for Inactive)
REMARK    1  A    between atoms: C6_13  and  O2_14
REMARK    2  A    between atoms: C8_18  and  O4_19
REMARK    3  A    between atoms: O4_19  and  N3_20
ROOT
HETATM    1  C1  UNL     1       3.712 -79.061-144.139  1.00  0.00     0.057 C
HETATM    2  C2  UNL     1       2.658 -80.022-144.638  1.00  0.00     0.145 C
HETATM    3  O1  UNL     1       3.167 -80.791-145.691  1.00  0.00    -0.314 OA
HETATM    4  C3  UNL     1       3.295 -80.113-146.922  1.00  0.00     0.159 C
HETATM    5  N1  UNL     1       3.766 -80.781-147.913  1.00  0.00    -0.378 N
ATOM      6  H11 UNL     1       3.858 -80.290-148.802  1.00  0.00     0.158 HD
ATOM      7  H12 UNL     1       4.040 -81.760-147.833  1.00  0.00     0.158 HD
HETATM    8  C4  UNL     1       2.900 -78.703-147.036  1.00  0.00     0.057 C
HETATM    9  N2  UNL     1       3.342 -78.002-148.004  1.00  0.00    -0.399 N
ATOM     10  H21 UNL     1       3.068 -77.023-148.084  1.00  0.00     0.156 HD
ATOM     11  H22 UNL     1       3.969 -78.393-148.707  1.00  0.00     0.156 HD
HETATM   12  C5  UNL     1       1.983 -78.130-146.007  1.00  0.00     0.110 C
HETATM   13  C6  UNL     1       1.450 -79.268-145.219  1.00  0.00     0.163 C
HETATM   14  C7  UNL     1       0.722 -78.933-143.999  1.00  0.00     0.202 C
HETATM   15  O3  UNL     1       0.179 -77.893-143.714  1.00  0.00    -0.291 OA
HETATM   16  C8  UNL     1       0.789 -80.163-143.166  1.00  0.00     0.279 C
HETATM   17  C9  UNL     1       2.098 -80.764-143.517  1.00  0.00     0.058 C
HETATM   18  N4  UNL     1       2.640 -81.755-142.943  1.00  0.00    -0.401 N
ATOM     19  H41 UNL     1       2.248 -82.275-142.158  1.00  0.00     0.155 HD
ATOM     20  H42 UNL     1       3.541 -82.168-143.185  1.00  0.00     0.155 HD
ENDROOT
BRANCH  16  21
HETATM   21  O4  UNL     1       0.651 -79.899-141.792  1.00  0.00    -0.202 OA
BRANCH  21  22
HETATM   22  N3  UNL     1       0.377 -80.888-140.908  1.00  0.00     0.006 N
HETATM   23  O5  UNL     1      -0.784 -81.332-140.784  1.00  0.00    -0.511 OA
HETATM   24  O6  UNL     1       1.379 -81.408-140.142  1.00  0.00    -0.511 OA
ENDBRANCH  21  22
ENDBRANCH  16  21
BRANCH  13  25
HETATM   25  O2  UNL     1       0.742 -80.105-146.075  1.00  0.00    -0.378 OA
ATOM     26  H2  UNL     1       0.477 -79.622-146.849  1.00  0.00     0.211 HD
ENDBRANCH  13  25
TORSDOF 3
ENDMDL