MODEL 2
REMARK VINA RESULT: -7.652459236      0.567      2.148
REMARK  5 active torsions:
REMARK  status: ('A' for Active; 'I' for Inactive)
REMARK       I    between atoms: N2_3  and  C2_4
REMARK    1  A    between atoms: C2_4  and  O2_6
REMARK    2  A    between atoms: O2_6  and  C3_7
REMARK    3  A    between atoms: C3_7  and  C4_9
REMARK    4  A    between atoms: C5_10  and  O4_11
REMARK    5  A    between atoms: N4_17  and  N5_18
ROOT
HETATM    1  N1  UNL     1       2.452 -75.396-149.444  1.00  0.00    -0.156 NA
HETATM    2  C1  UNL     1       2.740 -76.073-148.569  1.00  0.00     0.273 C
HETATM    3  N2  UNL     1       3.023 -76.869-147.531  1.00  0.00    -0.265 NA
HETATM    4  C2  UNL     1       3.308 -77.674-146.482  1.00  0.00     0.458 C
HETATM    5  O1  UNL     1       4.246 -78.323-146.075  1.00  0.00    -0.220 OA
ENDROOT
BRANCH   4   6
HETATM    6  O2  UNL     1       2.158 -77.821-145.539  1.00  0.00    -0.210 OA
BRANCH   6   7
HETATM    7  C3  UNL     1       1.525 -79.031-145.463  1.00  0.00     0.312 C
HETATM    8  O3  UNL     1       0.937 -79.467-146.466  1.00  0.00    -0.258 OA
BRANCH   7   9
HETATM    9  C4  UNL     1       1.509 -79.845-144.239  1.00  0.00     0.160 A
HETATM   10  C5  UNL     1       2.562 -80.690-143.993  1.00  0.00     0.164 A
HETATM   11  N3  UNL     1       2.621 -81.432-142.890  1.00  0.00    -0.311 N
HETATM   12  C6  UNL     1       1.599 -81.325-141.991  1.00  0.00     0.202 A
ATOM     13  H3  UNL     1       3.406 -82.060-142.721  1.00  0.00     0.170 HD
HETATM   14  S1  UNL     1       1.739 -82.273-140.660  1.00  0.00    -0.038 SA
HETATM   15  N4  UNL     1       0.567 -80.522-142.195  1.00  0.00    -0.199 N
HETATM   16  C7  UNL     1       0.504 -79.770-143.319  1.00  0.00     0.289 A
HETATM   17  O5  UNL     1      -0.455 -78.981-143.569  1.00  0.00    -0.265 OA
BRANCH  10  18
HETATM   18  O4  UNL     1       3.583 -80.747-144.962  1.00  0.00    -0.345 OA
ATOM     19  H4  UNL     1       3.426 -80.304-145.788  1.00  0.00     0.219 HD
ENDBRANCH  10  18
BRANCH  15  20
HETATM   20  N5  UNL     1      -0.451 -80.445-141.265  1.00  0.00    -0.333 N
ATOM     21  H52 UNL     1      -0.266 -80.693-140.293  1.00  0.00     0.177 HD
ATOM     22  H51 UNL     1      -1.384 -80.143-141.546  1.00  0.00     0.177 HD
ENDBRANCH  15  20
ENDBRANCH   7   9
ENDBRANCH   6   7
ENDBRANCH   4   6
TORSDOF 5
ENDMDL