MODEL 2
REMARK VINA RESULT: -6.547989975      5.708      7.186
REMARK  5 active torsions:
REMARK  status: ('A' for Active; 'I' for Inactive)
REMARK    1  A    between atoms: C2_2  and  O1_4
REMARK    2  A    between atoms: C2_2  and  N1_6
REMARK    3  A    between atoms: C7_14  and  O3_15
REMARK    4  A    between atoms: C7_14  and  C8_17
REMARK    5  A    between atoms: N4_18  and  O4_20
ROOT
HETATM    1  N1  UNL     1      -1.761 -77.867-146.122  1.00  0.00    -0.206 N
HETATM    2  N2  UNL     1      -1.574 -76.620-145.732  1.00  0.00    -0.278 N
ATOM      3  H2  UNL     1      -1.060 -76.329-144.901  1.00  0.00     0.189 HD
HETATM    4  C4  UNL     1      -2.172 -75.798-146.607  1.00  0.00     0.120 A
HETATM    5  N3  UNL     1      -2.738 -76.553-147.554  1.00  0.00    -0.280 N
HETATM    6  C5  UNL     1      -2.482 -77.839-147.250  1.00  0.00     0.347 A
HETATM    7  O2  UNL     1      -2.870 -78.820-147.936  1.00  0.00    -0.245 OA
HETATM    8  C6  UNL     1      -3.471 -75.917-148.656  1.00  0.00     0.202 C
HETATM    9  C7  UNL     1      -2.747 -74.616-148.964  1.00  0.00     0.180 C
HETATM   10  N5  UNL     1      -2.716 -73.745-147.831  1.00  0.00    -0.379 N
ATOM     11  H5  UNL     1      -3.012 -72.772-147.894  1.00  0.00     0.157 HD
HETATM   12  C9  UNL     1      -2.249 -74.309-146.613  1.00  0.00     0.195 C
ENDROOT
BRANCH   9  13
HETATM   13  O3  UNL     1      -1.475 -74.927-149.443  1.00  0.00    -0.365 OA
ATOM     14  H3  UNL     1      -1.561 -75.240-150.337  1.00  0.00     0.213 HD
ENDBRANCH   9  13
BRANCH   9  15
HETATM   15  C8  UNL     1      -3.473 -73.916-150.059  1.00  0.00     0.148 C
HETATM   16  N4  UNL     1      -2.949 -72.880-150.599  1.00  0.00    -0.280 N
ATOM     17  H4  UNL     1      -3.464 -72.415-151.347  1.00  0.00     0.193 HD
BRANCH  16  18
HETATM   18  O4  UNL     1      -1.746 -72.363-150.232  1.00  0.00    -0.290 OA
ATOM     19  H4  UNL     1      -1.169 -71.897-150.825  1.00  0.00     0.244 HD
ENDBRANCH  16  18
ENDBRANCH   9  15
BRANCH   1  20
HETATM   20  C2  UNL     1      -1.272 -79.067-145.447  1.00  0.00     0.149 C
HETATM   21  C1  UNL     1      -0.250 -78.642-144.396  1.00  0.00     0.072 C
HETATM   22  C3  UNL     1      -2.391 -79.771-144.709  1.00  0.00     0.072 C
BRANCH  20  23
HETATM   23  O1  UNL     1      -0.612 -79.920-146.316  1.00  0.00    -0.370 OA
ATOM     24  H1  UNL     1      -0.911 -80.798-146.113  1.00  0.00     0.212 HD
ENDBRANCH  20  23
ENDBRANCH   1  20
TORSDOF 5
ENDMDL