MODEL 3
REMARK VINA RESULT: -7.605344141      1.792      7.773
REMARK  3 active torsions:
REMARK  status: ('A' for Active; 'I' for Inactive)
REMARK    1  A    between atoms: N2_5  and  C3_6
REMARK       I    between atoms: N5_12  and  C5_14
REMARK       I    between atoms: C5_14  and  N7_18
REMARK    2  A    between atoms: N7_18  and  N8_20
REMARK    3  A    between atoms: N8_20  and  O1_22
ROOT
HETATM    1  C3  UNL     1       2.159 -79.314-144.254  1.00  0.00     0.272 A
HETATM    2  N3  UNL     1       3.491 -79.363-144.474  1.00  0.00    -0.260 N
ATOM      3  H3  UNL     1       4.165 -79.821-143.861  1.00  0.00     0.190 HD
HETATM    4  N4  UNL     1       3.797 -78.735-145.597  1.00  0.00    -0.261 N
ATOM      5  H4  UNL     1       4.725 -78.618-146.005  1.00  0.00     0.190 HD
HETATM    6  C4  UNL     1       2.631 -78.281-146.091  1.00  0.00     0.261 A
HETATM    7  N5  UNL     1       2.490 -77.601-147.201  1.00  0.00    -0.152 N
ATOM      8  H5  UNL     1       1.564 -77.295-147.502  1.00  0.00     0.188 HD
HETATM    9  C5  UNL     1       3.628 -77.291-147.980  1.00  0.00     0.695 C
HETATM   10  N6  UNL     1       4.037 -76.076-148.008  1.00  0.00    -0.233 N
ATOM     11  H61 UNL     1       4.859 -75.852-148.569  1.00  0.00     0.174 HD
ATOM     12  H62 UNL     1       3.540 -75.364-147.473  1.00  0.00     0.174 HD
HETATM   13  N7  UNL     1       4.312 -78.270-148.715  1.00  0.00    -0.113 N
ATOM     14  H7  UNL     1       4.245 -79.252-148.445  1.00  0.00     0.207 HD
HETATM   15  O2  UNL     1       1.675 -78.645-145.264  1.00  0.00    -0.242 OA
ENDROOT
BRANCH   1  16
HETATM   16  N2  UNL     1       1.479 -79.887-143.139  1.00  0.00    -0.165 N
HETATM   17  N1  UNL     1       1.935 -80.975-142.539  1.00  0.00    -0.286 N
HETATM   18  C2  UNL     1       1.306 -81.532-141.483  1.00  0.00     0.090 A
ATOM     19  H1  UNL     1       2.790 -81.408-142.888  1.00  0.00     0.187 HD
HETATM   20  C1  UNL     1       1.831 -82.759-140.819  1.00  0.00     0.076 C
HETATM   21  C7  UNL     1       0.146 -80.980-140.980  1.00  0.00     0.273 A
HETATM   22  N9  UNL     1      -0.309 -79.872-141.596  1.00  0.00    -0.272 N
HETATM   23  O4  UNL     1      -0.456 -81.489-139.990  1.00  0.00    -0.266 OA
HETATM   24  C6  UNL     1       0.348 -79.350-142.645  1.00  0.00     0.351 A
ATOM     25  H9  UNL     1      -1.163 -79.425-141.263  1.00  0.00     0.174 HD
HETATM   26  O3  UNL     1      -0.067 -78.304-143.241  1.00  0.00    -0.244 OA
ENDBRANCH   1  16
BRANCH  13  27
HETATM   27  N8  UNL     1       5.080 -77.902-149.809  1.00  0.00    -0.196 N
ATOM     28  H8  UNL     1       4.737 -78.063-150.756  1.00  0.00     0.216 HD
BRANCH  27  29
HETATM   29  O1  UNL     1       6.213 -77.364-149.624  1.00  0.00    -0.274 OA
ATOM     30  H1  UNL     1       6.986 -77.758-150.009  1.00  0.00     0.246 HD
ENDBRANCH  27  29
ENDBRANCH  13  27
TORSDOF 3
ENDMDL