MODEL 3
REMARK VINA RESULT: -6.022145639      2.395      4.069
REMARK  5 active torsions:
REMARK  status: ('A' for Active; 'I' for Inactive)
REMARK    1  A    between atoms: O1_2  and  C2_3
REMARK    2  A    between atoms: C7_19  and  N8_20
REMARK    3  A    between atoms: N8_20  and  N9_22
REMARK    4  A    between atoms: C8_25  and  C9_26
REMARK    5  A    between atoms: C9_26  and  N10_27
ROOT
HETATM    1  C2  UNL     1       2.692 -81.049-146.320  1.00  0.00     0.248 C
HETATM    2  N1  UNL     1       3.348 -79.796-146.515  1.00  0.00    -0.197 N
ATOM      3  H1  UNL     1       4.295 -79.759-146.139  1.00  0.00     0.180 HD
HETATM    4  C3  UNL     1       2.921 -78.585-147.140  1.00  0.00     0.708 A
HETATM    5  N2  UNL     1       3.823 -77.641-147.411  1.00  0.00    -0.117 N
ATOM      6  H2  UNL     1       4.821 -77.700-147.209  1.00  0.00     0.202 HD
HETATM    7  N3  UNL     1       3.215 -76.617-147.984  1.00  0.00     0.007 NA
HETATM    8  N4  UNL     1       1.910 -76.912-148.079  1.00  0.00     0.009 NA
HETATM    9  N5  UNL     1       1.731 -78.114-147.563  1.00  0.00    -0.104 N
HETATM   10  C4  UNL     1       0.403 -78.708-147.524  1.00  0.00     0.210 C
HETATM   11  C5  UNL     1       0.164 -79.097-146.104  1.00  0.00     0.033 A
HETATM   12  C6  UNL     1       0.683 -80.019-145.237  1.00  0.00     0.047 A
HETATM   13  N6  UNL     1      -0.005 -79.831-144.082  1.00  0.00    -0.302 N
ATOM     14  H6  UNL     1       0.139 -80.362-143.223  1.00  0.00     0.186 HD
HETATM   15  N7  UNL     1      -0.896 -78.847-144.235  1.00  0.00    -0.284 N
ATOM     16  H7  UNL     1      -1.535 -78.514-143.513  1.00  0.00     0.188 HD
HETATM   17  C7  UNL     1      -0.823 -78.365-145.480  1.00  0.00     0.144 A
HETATM   18  C8  UNL     1       1.690 -81.074-145.194  1.00  0.00     0.112 C
ENDROOT
BRANCH  17  19
HETATM   19  N8  UNL     1      -1.544 -77.416-145.943  1.00  0.00    -0.290 N
ATOM     20  H8  UNL     1      -1.081 -76.623-146.388  1.00  0.00     0.188 HD
BRANCH  19  21
HETATM   21  N9  UNL     1      -2.922 -77.419-145.867  1.00  0.00    -0.344 N
ATOM     22  H92 UNL     1      -3.436 -76.932-146.602  1.00  0.00     0.176 HD
ATOM     23  H91 UNL     1      -3.433 -77.883-145.116  1.00  0.00     0.176 HD
ENDBRANCH  19  21
ENDBRANCH  17  19
BRANCH  18  24
HETATM   24  C9  UNL     1       2.441 -81.150-143.893  1.00  0.00     0.244 C
BRANCH  24  25
HETATM   25  N10 UNL     1       2.661 -82.484-143.434  1.00  0.00    -0.079 N
ATOM     26 3H10 UNL     1       3.379 -82.502-142.709  1.00  0.00     0.274 HD
ATOM     27 2H10 UNL     1       1.863 -82.813-142.891  1.00  0.00     0.274 HD
ATOM     28 1H10 UNL     1       2.886 -83.142-144.180  1.00  0.00     0.274 HD
ENDBRANCH  24  25
ENDBRANCH  18  24
BRANCH   1  29
HETATM   29  O1  UNL     1       2.148 -81.595-147.477  1.00  0.00    -0.370 OA
HETATM   30  C1  UNL     1       2.973 -81.444-148.587  1.00  0.00     0.204 C
ENDBRANCH   1  29
TORSDOF 5
ENDMDL