MODEL 3
REMARK VINA RESULT: -6.054084613      3.517      5.166
REMARK  7 active torsions:
REMARK  status: ('A' for Active; 'I' for Inactive)
REMARK    1  A    between atoms: O1_2  and  C2_3
REMARK    2  A    between atoms: C2_3  and  O2_4
REMARK    3  A    between atoms: C2_3  and  C3_6
REMARK    4  A    between atoms: C3_6  and  O3_7
REMARK    5  A    between atoms: C5_11  and  O4_12
REMARK    6  A    between atoms: C5_11  and  O5_14
REMARK    7  A    between atoms: O5_14  and  C6_15
ROOT
HETATM    1  C3  UNL     1       0.578 -79.382-145.995  1.00  0.00     0.152 C
HETATM    2  C4  UNL     1       1.191 -78.783-147.236  1.00  0.00     0.130 C
HETATM    3  S1  UNL     1       1.798 -79.854-148.501  1.00  0.00    -0.088 SA
HETATM    4  C5  UNL     1       3.347 -79.122-147.933  1.00  0.00     0.251 C
HETATM    5  C7  UNL     1       2.605 -78.531-146.756  1.00  0.00     0.214 C
HETATM    6  O6  UNL     1       2.814 -79.228-145.610  1.00  0.00    -0.365 OA
HETATM    7  C8  UNL     1       1.706 -80.020-145.325  1.00  0.00     0.091 C
HETATM    8  C9  UNL     1       1.496 -79.899-143.808  1.00  0.00     0.049 C
HETATM    9  C10 UNL     1       2.050 -81.423-145.616  1.00  0.00     0.049 C
ENDROOT
BRANCH   4  10
HETATM   10  O4  UNL     1       4.349 -80.014-147.602  1.00  0.00    -0.355 OA
ATOM     11  H4  UNL     1       4.458 -80.187-146.674  1.00  0.00     0.214 HD
ENDBRANCH   4  10
BRANCH   4  12
HETATM   12  O5  UNL     1       3.866 -78.105-148.764  1.00  0.00    -0.274 OA
BRANCH  12  13
HETATM   13  C6  UNL     1       3.492 -78.084-150.101  1.00  0.00     0.228 C
HETATM   14  N1  UNL     1       4.076 -78.944-150.868  1.00  0.00    -0.368 N
ATOM     15  H12 UNL     1       4.773 -79.610-150.536  1.00  0.00     0.159 HD
ATOM     16  H11 UNL     1       3.801 -78.929-151.850  1.00  0.00     0.159 HD
HETATM   17  N2  UNL     1       2.525 -77.161-150.560  1.00  0.00    -0.056 NA
ENDBRANCH  12  13
ENDBRANCH   4  12
BRANCH   1  18
HETATM   18  C2  UNL     1      -0.674 -80.121-146.218  1.00  0.00     0.294 C
BRANCH  18  19
HETATM   19  O1  UNL     1      -1.283 -79.999-147.442  1.00  0.00    -0.363 OA
HETATM   20  C1  UNL     1      -2.503 -79.308-147.366  1.00  0.00     0.204 C
ENDBRANCH  18  19
BRANCH  18  21
HETATM   21  O2  UNL     1      -1.611 -79.679-145.234  1.00  0.00    -0.368 OA
ATOM     22  H2  UNL     1      -1.268 -78.876-144.860  1.00  0.00     0.212 HD
ENDBRANCH  18  21
ENDBRANCH   1  18
BRANCH   1  23
HETATM   23  O3  UNL     1       0.224 -78.233-145.227  1.00  0.00    -0.380 OA
ATOM     24  H3  UNL     1       0.937 -78.098-144.613  1.00  0.00     0.211 HD
ENDBRANCH   1  23
TORSDOF 7
ENDMDL