MODEL 2
REMARK VINA RESULT: -8.265902342      2.143      3.534
REMARK  4 active torsions:
REMARK  status: ('A' for Active; 'I' for Inactive)
REMARK       I    between atoms: N3_4  and  C2_6
REMARK    1  A    between atoms: C2_6  and  C3_8
REMARK    2  A    between atoms: C4_9  and  O2_10
REMARK    3  A    between atoms: C5_12  and  N4_13
REMARK    4  A    between atoms: N5_18  and  N6_19
ROOT
HETATM    1  C3  UNL     1       1.182 -79.858-144.893  1.00  0.00     0.111 A
HETATM    2  C4  UNL     1       1.478 -80.695-143.827  1.00  0.00     0.123 A
HETATM    3  C5  UNL     1       0.545 -80.916-142.846  1.00  0.00     0.206 A
HETATM    4  C6  UNL     1      -0.667 -80.278-142.978  1.00  0.00     0.303 A
HETATM    5  O5  UNL     1      -1.524 -80.498-142.051  1.00  0.00    -0.263 OA
HETATM    6  N5  UNL     1      -0.938 -79.472-144.017  1.00  0.00    -0.210 N
HETATM    7  C7  UNL     1      -0.057 -79.226-145.000  1.00  0.00     0.159 A
HETATM    8  N7  UNL     1      -0.354 -78.366-146.102  1.00  0.00    -0.079 NA
ENDROOT
BRANCH   1   9
HETATM    9  C2  UNL     1       2.166 -79.627-145.933  1.00  0.00     0.264 C
HETATM   10  N3  UNL     1       2.536 -78.346-146.339  1.00  0.00    -0.299 N
HETATM   11  C1  UNL     1       2.950 -78.061-147.521  1.00  0.00     0.203 C
ATOM     12  H3  UNL     1       2.476 -77.590-145.657  1.00  0.00     0.171 HD
HETATM   13  N1  UNL     1       3.310 -76.729-147.857  1.00  0.00    -0.066 NA
HETATM   14  N2  UNL     1       3.052 -79.080-148.497  1.00  0.00    -0.066 NA
HETATM   15  O1  UNL     1       2.695 -80.649-146.476  1.00  0.00    -0.267 OA
ENDBRANCH   1   9
BRANCH   2  16
HETATM   16  O2  UNL     1       2.720 -81.316-143.738  1.00  0.00    -0.357 OA
ATOM     17  H2  UNL     1       2.872 -82.002-143.098  1.00  0.00     0.217 HD
ENDBRANCH   2  16
BRANCH   3  18
HETATM   18  N4  UNL     1       0.770 -81.764-141.711  1.00  0.00    -0.107 N
HETATM   19  O3  UNL     1       1.216 -81.322-140.622  1.00  0.00    -0.531 OA
HETATM   20  O4  UNL     1       0.501 -83.098-141.791  1.00  0.00    -0.531 OA
ENDBRANCH   3  18
BRANCH   6  21
HETATM   21  N6  UNL     1      -2.208 -78.847-144.097  1.00  0.00    -0.334 N
ATOM     22  H62 UNL     1      -2.264 -77.945-144.571  1.00  0.00     0.177 HD
ATOM     23  H61 UNL     1      -3.018 -79.311-143.687  1.00  0.00     0.177 HD
ENDBRANCH   6  21
TORSDOF 4
ENDMDL