MODEL 5
REMARK VINA RESULT: -7.806598385      2.588      7.174
REMARK  5 active torsions:
REMARK  status: ('A' for Active; 'I' for Inactive)
REMARK    1  A    between atoms: C3_5  and  N3_6
REMARK    2  A    between atoms: C4_11  and  C5_12
REMARK       I    between atoms: C5_12  and  N5_14
REMARK    3  A    between atoms: N5_14  and  N6_16
REMARK    4  A    between atoms: N6_16  and  C6_18
REMARK    5  A    between atoms: C7_27  and  N11_28
ROOT
HETATM    1  C1  UNL     1      -1.409 -81.275-141.339  1.00  0.00     0.159 C
HETATM    2  N1  UNL     1      -0.242 -81.185-142.230  1.00  0.00    -0.321 N
HETATM    3  C2  UNL     1       0.682 -82.129-142.205  1.00  0.00     0.170 A
HETATM    4  N2  UNL     1       0.537 -83.234-141.309  1.00  0.00    -0.078 NA
HETATM    5  C3  UNL     1       1.797 -82.086-143.024  1.00  0.00     0.216 A
HETATM    6  N4  UNL     1       1.895 -81.036-143.848  1.00  0.00    -0.327 N
ATOM      7  H4  UNL     1       2.707 -80.979-144.464  1.00  0.00     0.168 HD
HETATM    8  C4  UNL     1       0.965 -80.038-143.908  1.00  0.00     0.148 A
HETATM    9  C7  UNL     1      -0.114 -80.119-143.087  1.00  0.00     0.135 A
ENDROOT
BRANCH   8  10
HETATM   10  C5  UNL     1       1.204 -78.972-144.844  1.00  0.00     0.290 C
HETATM   11  O3  UNL     1       0.485 -77.963-144.916  1.00  0.00    -0.264 OA
HETATM   12  N5  UNL     1       2.301 -79.044-145.735  1.00  0.00    -0.250 N
ATOM     13  H5  UNL     1       2.921 -79.854-145.713  1.00  0.00     0.191 HD
BRANCH  12  14
HETATM   14  N6  UNL     1       2.538 -78.022-146.636  1.00  0.00    -0.127 N
ATOM     15  H6  UNL     1       2.296 -77.060-146.400  1.00  0.00     0.206 HD
BRANCH  14  16
HETATM   16  C6  UNL     1       3.072 -78.302-147.786  1.00  0.00     0.728 A
HETATM   17  N7  UNL     1       3.660 -77.442-148.635  1.00  0.00    -0.114 N
HETATM   18  N8  UNL     1       4.070 -78.139-149.688  1.00  0.00    -0.213 N
ATOM     19  H7  UNL     1       3.772 -76.438-148.496  1.00  0.00     0.207 HD
HETATM   20  N9  UNL     1       3.764 -79.409-149.542  1.00  0.00    -0.213 N
ATOM     21  H8  UNL     1       4.552 -77.745-150.495  1.00  0.00     0.210 HD
HETATM   22  N10 UNL     1       3.154 -79.523-148.383  1.00  0.00    -0.114 N
ATOM     23  H9  UNL     1       3.963 -80.162-150.201  1.00  0.00     0.210 HD
ATOM     24  H10 UNL     1       2.797 -80.394-147.990  1.00  0.00     0.207 HD
ENDBRANCH  14  16
ENDBRANCH  12  14
ENDBRANCH   8  10
BRANCH   9  25
HETATM   25  N11 UNL     1      -1.049 -79.270-143.037  1.00  0.00    -0.383 N
ATOM     26 2H11 UNL     1      -2.016 -79.482-142.791  1.00  0.00     0.157 HD
ATOM     27 1H11 UNL     1      -0.781 -78.312-143.265  1.00  0.00     0.157 HD
ENDBRANCH   9  25
BRANCH   5  28
HETATM   28  N3  UNL     1       2.794 -83.090-143.008  1.00  0.00    -0.094 N
HETATM   29  O1  UNL     1       3.795 -82.913-142.303  1.00  0.00    -0.530 OA
HETATM   30  O2  UNL     1       2.691 -84.239-143.737  1.00  0.00    -0.530 OA
ENDBRANCH   5  28
TORSDOF 5
ENDMDL