MODEL 2
REMARK VINA RESULT: -7.112095475      2.336      5.735
REMARK  5 active torsions:
REMARK  status: ('A' for Active; 'I' for Inactive)
REMARK    1  A    between atoms: O1_2  and  C2_3
REMARK    2  A    between atoms: C6_8  and  O2_9
REMARK    3  A    between atoms: C7_11  and  O3_12
REMARK    4  A    between atoms: C8_14  and  N2_15
REMARK    5  A    between atoms: C11_18  and  O4_19
ROOT
HETATM    1  C2  UNL     1      -1.935 -78.913-145.347  1.00  0.00     0.208 C
HETATM    2  C3  UNL     1      -3.040 -77.945-145.654  1.00  0.00     0.332 C
HETATM    3  N1  UNL     1      -3.378 -78.041-147.042  1.00  0.00     0.091 N
HETATM    4  C4  UNL     1      -3.750 -76.774-147.620  1.00  0.00     0.310 C
HETATM    5  C5  UNL     1      -2.191 -78.606-147.649  1.00  0.00     0.317 C
HETATM    6  C6  UNL     1      -1.772 -79.633-146.656  1.00  0.00     0.162 C
HETATM    7  C7  UNL     1      -0.435 -80.244-146.865  1.00  0.00     0.200 C
HETATM    8  C8  UNL     1       0.634 -79.540-146.073  1.00  0.00     0.247 C
HETATM    9  N4  UNL     1       0.196 -78.167-145.909  1.00  0.00    -0.115 NA
HETATM   10  N5  UNL     1      -0.785 -78.131-144.950  1.00  0.00    -0.102 NA
ENDROOT
BRANCH   8  11
HETATM   11  N2  UNL     1       1.905 -79.504-146.755  1.00  0.00    -0.277 N
HETATM   12  C9  UNL     1       2.807 -80.472-146.847  1.00  0.00     0.116 A
HETATM   13  C10 UNL     1       3.870 -79.988-147.597  1.00  0.00     0.076 A
HETATM   14  C11 UNL     1       3.527 -78.697-147.925  1.00  0.00     0.156 A
HETATM   15  N3  UNL     1       2.341 -78.441-147.403  1.00  0.00    -0.277 N
ATOM     16  H3  UNL     1       1.840 -77.557-147.488  1.00  0.00     0.189 HD
BRANCH  14  17
HETATM   17  O4  UNL     1       4.281 -77.805-148.673  1.00  0.00    -0.345 OA
ATOM     18  H4  UNL     1       4.354 -77.778-149.620  1.00  0.00     0.219 HD
ENDBRANCH  14  17
ENDBRANCH   8  11
BRANCH   7  19
HETATM   19  O3  UNL     1      -0.159 -80.249-148.231  1.00  0.00    -0.389 OA
ATOM     20  H3  UNL     1       0.722 -80.582-148.361  1.00  0.00     0.210 HD
ENDBRANCH   7  19
BRANCH   6  21
HETATM   21  O2  UNL     1      -2.729 -80.662-146.686  1.00  0.00    -0.381 OA
ATOM     22  H2  UNL     1      -3.475 -80.367-146.178  1.00  0.00     0.211 HD
ENDBRANCH   6  21
BRANCH   1  23
HETATM   23  O1  UNL     1      -2.246 -79.798-144.343  1.00  0.00    -0.363 OA
HETATM   24  C1  UNL     1      -1.407 -79.740-143.253  1.00  0.00     0.204 C
ENDBRANCH   1  23
TORSDOF 5
ENDMDL