MODEL 1
REMARK VINA RESULT: -8.359251899      0.000      0.000
REMARK  5 active torsions:
REMARK  status: ('A' for Active; 'I' for Inactive)
REMARK    1  A    between atoms: O1_2  and  C2_3
REMARK    2  A    between atoms: C2_3  and  C3_5
REMARK    3  A    between atoms: C6_9  and  N2_10
REMARK    4  A    between atoms: N4_15  and  C7_16
REMARK    5  A    between atoms: C11_24  and  O3_25
ROOT
HETATM    1  C3  UNL     1       0.813 -79.777-145.260  1.00  0.00     0.174 A
HETATM    2  C4  UNL     1       0.765 -80.394-144.032  1.00  0.00     0.124 A
HETATM    3  C5  UNL     1      -0.267 -80.331-143.037  1.00  0.00     0.106 C
HETATM    4  N1  UNL     1      -1.102 -80.267-142.240  1.00  0.00    -0.191 NA
HETATM    5  C6  UNL     1       1.927 -81.118-143.913  1.00  0.00     0.138 A
HETATM    6  N3  UNL     1       2.642 -80.947-145.013  1.00  0.00    -0.263 N
ATOM      7  H3  UNL     1       3.553 -81.365-145.203  1.00  0.00     0.190 HD
HETATM    8  N4  UNL     1       1.978 -80.145-145.821  1.00  0.00    -0.076 N
ENDROOT
BRANCH   1   9
HETATM    9  C2  UNL     1      -0.209 -78.898-145.828  1.00  0.00     0.314 C
HETATM   10  O2  UNL     1      -0.560 -77.830-145.276  1.00  0.00    -0.257 OA
BRANCH   9  11
HETATM   11  O1  UNL     1      -0.813 -79.245-147.007  1.00  0.00    -0.321 OA
HETATM   12  C1  UNL     1      -2.178 -79.583-147.140  1.00  0.00     0.213 C
ENDBRANCH   9  11
ENDBRANCH   1   9
BRANCH   5  13
HETATM   13  N2  UNL     1       2.307 -81.859-142.911  1.00  0.00    -0.383 N
ATOM     14  H22 UNL     1       1.765 -81.976-142.055  1.00  0.00     0.157 HD
ATOM     15  H21 UNL     1       3.161 -82.410-142.830  1.00  0.00     0.157 HD
ENDBRANCH   5  13
BRANCH   8  16
HETATM   16  C7  UNL     1       2.417 -79.717-147.110  1.00  0.00     0.715 C
HETATM   17  N5  UNL     1       3.274 -80.362-147.825  1.00  0.00    -0.135 N
HETATM   18  N6  UNL     1       3.690 -79.930-149.080  1.00  0.00    -0.320 N
ATOM     19  H5  UNL     1       3.665 -81.227-147.453  1.00  0.00     0.205 HD
HETATM   20  C8  UNL     1       2.940 -78.895-149.742  1.00  0.00     0.174 C
ATOM     21  H6  UNL     1       4.513 -80.340-149.523  1.00  0.00     0.180 HD
HETATM   22  C9  UNL     1       2.545 -77.865-148.734  1.00  0.00     0.093 A
HETATM   23  C10 UNL     1       3.505 -76.760-148.494  1.00  0.00     0.070 A
HETATM   24  C11 UNL     1       2.169 -76.485-149.109  1.00  0.00     0.151 A
HETATM   25  N7  UNL     1       1.876 -78.513-147.633  1.00  0.00    -0.209 N
ATOM     26  H7  UNL     1       1.027 -78.112-147.235  1.00  0.00     0.178 HD
BRANCH  24  27
HETATM   27  O3  UNL     1       2.053 -76.218-150.452  1.00  0.00    -0.393 OA
ATOM     28  H3  UNL     1       1.989 -75.304-150.703  1.00  0.00     0.210 HD
ENDBRANCH  24  27
ENDBRANCH   8  16
TORSDOF 5
ENDMDL