MODEL 5
REMARK VINA RESULT: -7.739199298      2.109      3.410
REMARK  6 active torsions:
REMARK  status: ('A' for Active; 'I' for Inactive)
REMARK    1  A    between atoms: O1_2  and  C2_3
REMARK    2  A    between atoms: C2_3  and  C3_4
REMARK    3  A    between atoms: C4_6  and  C5_7
REMARK    4  A    between atoms: C7_16  and  C8_17
REMARK    5  A    between atoms: C9_20  and  O6_21
REMARK    6  A    between atoms: C10_23  and  O7_24
ROOT
HETATM    1  C5  UNL     1       2.251 -78.440-148.064  1.00  0.00     0.125 C
HETATM    2  O3  UNL     1       2.314 -79.068-149.294  1.00  0.00    -0.278 OA
HETATM    3  C6  UNL     1       3.403 -78.803-150.101  1.00  0.00     0.234 C
HETATM    4  N1  UNL     1       3.502 -79.364-151.250  1.00  0.00    -0.364 N
ATOM      5  H11 UNL     1       4.307 -79.168-151.845  1.00  0.00     0.159 HD
ATOM      6  H12 UNL     1       2.790 -80.009-151.591  1.00  0.00     0.159 HD
HETATM    7  N2  UNL     1       4.394 -77.906-149.626  1.00  0.00    -0.268 N
ATOM      8  H2  UNL     1       5.166 -77.644-150.238  1.00  0.00     0.186 HD
HETATM    9  N3  UNL     1       4.334 -77.371-148.334  1.00  0.00    -0.115 NA
HETATM   10  C7  UNL     1       2.940 -77.107-148.034  1.00  0.00     0.260 C
ENDROOT
BRANCH   1  11
HETATM   11  C4  UNL     1       1.657 -78.922-146.990  1.00  0.00     0.144 A
HETATM   12  O2  UNL     1       2.249 -79.642-146.059  1.00  0.00    -0.300 OA
HETATM   13  C3  UNL     1       1.430 -79.988-145.108  1.00  0.00     0.134 A
HETATM   14  C10 UNL     1       0.209 -79.463-145.429  1.00  0.00     0.138 A
HETATM   15  C9  UNL     1       0.346 -78.772-146.642  1.00  0.00     0.138 A
BRANCH  13  16
HETATM   16  C2  UNL     1       1.667 -80.705-144.022  1.00  0.00     0.174 C
BRANCH  16  17
HETATM   17  O1  UNL     1       0.904 -80.571-142.893  1.00  0.00    -0.365 OA
HETATM   18  C1  UNL     1       0.769 -81.591-141.922  1.00  0.00     0.209 C
ENDBRANCH  16  17
ENDBRANCH  13  16
BRANCH  14  19
HETATM   19  O7  UNL     1      -0.996 -79.546-144.742  1.00  0.00    -0.356 OA
ATOM     20  H7  UNL     1      -1.186 -79.362-143.829  1.00  0.00     0.218 HD
ENDBRANCH  14  19
BRANCH  15  21
HETATM   21  O6  UNL     1      -0.680 -78.100-147.296  1.00  0.00    -0.356 OA
ATOM     22  H6  UNL     1      -0.747 -77.187-147.551  1.00  0.00     0.218 HD
ENDBRANCH  15  21
ENDBRANCH   1  11
BRANCH  10  23
HETATM   23  C8  UNL     1       2.325 -76.136-148.938  1.00  0.00     0.201 C
HETATM   24  O4  UNL     1       1.073 -76.019-148.995  1.00  0.00    -0.646 OA
HETATM   25  O5  UNL     1       3.110 -75.344-149.735  1.00  0.00    -0.646 OA
ENDBRANCH  10  23
TORSDOF 6
ENDMDL