MODEL 3
REMARK VINA RESULT: -6.877935927      2.310      5.884
REMARK  6 active torsions:
REMARK  status: ('A' for Active; 'I' for Inactive)
REMARK    1  A    between atoms: O1_2  and  C2_3
REMARK       I    between atoms: C2_3  and  N1_5
REMARK    2  A    between atoms: N1_5  and  C3_7
REMARK    3  A    between atoms: C3_7  and  O3_8
REMARK    4  A    between atoms: C4_10  and  O4_11
REMARK    5  A    between atoms: C5_13  and  C6_14
REMARK    6  A    between atoms: C6_14  and  O6_16
ROOT
HETATM    1  C3  UNL     1      -0.092 -79.427-145.829  1.00  0.00     0.267 C
HETATM    2  C4  UNL     1       1.422 -79.418-145.822  1.00  0.00     0.232 C
HETATM    3  C5  UNL     1       2.048 -79.200-147.122  1.00  0.00     0.093 C
HETATM    4  C8  UNL     1       1.666 -79.773-148.255  1.00  0.00     0.139 C
HETATM    5  N2  UNL     1       2.329 -79.512-149.492  1.00  0.00    -0.081 NA
HETATM    6  N3  UNL     1       0.572 -80.671-148.262  1.00  0.00    -0.289 N
ATOM      7  H3  UNL     1       0.560 -81.486-148.877  1.00  0.00     0.177 HD
HETATM    8  S1  UNL     1      -0.742 -80.336-147.193  1.00  0.00     0.176 S
HETATM    9  O7  UNL     1      -1.926 -79.423-147.961  1.00  0.00    -0.230 OA
ENDROOT
BRANCH   1  10
HETATM   10  N1  UNL     1      -0.569 -80.038-144.606  1.00  0.00    -0.290 N
HETATM   11  C2  UNL     1      -0.729 -79.247-143.453  1.00  0.00     0.363 C
HETATM   12  O2  UNL     1      -0.457 -78.023-143.490  1.00  0.00    -0.238 OA
ATOM     13  H1  UNL     1      -0.787 -81.034-144.581  1.00  0.00     0.168 HD
BRANCH  11  14
HETATM   14  O1  UNL     1      -1.183 -79.763-142.239  1.00  0.00    -0.309 OA
HETATM   15  C1  UNL     1      -0.925 -81.099-141.941  1.00  0.00     0.215 C
ENDBRANCH  11  14
ENDBRANCH   1  10
BRANCH   1  16
HETATM   16  O3  UNL     1      -0.609 -78.136-145.876  1.00  0.00    -0.357 OA
ATOM     17  H3  UNL     1      -1.490 -78.171-145.522  1.00  0.00     0.213 HD
ENDBRANCH   1  16
BRANCH   2  18
HETATM   18  O4  UNL     1       1.795 -78.419-144.925  1.00  0.00    -0.385 OA
ATOM     19  H4  UNL     1       2.477 -77.920-145.358  1.00  0.00     0.210 HD
ENDBRANCH   2  18
BRANCH   3  20
HETATM   20  C6  UNL     1       3.193 -78.275-147.186  1.00  0.00     0.295 C
HETATM   21  O5  UNL     1       4.346 -78.689-146.909  1.00  0.00    -0.259 OA
BRANCH  20  22
HETATM   22  O6  UNL     1       3.080 -76.950-147.537  1.00  0.00    -0.323 OA
HETATM   23  C7  UNL     1       3.409 -76.452-148.822  1.00  0.00     0.213 C
ENDBRANCH  20  22
ENDBRANCH   3  20
TORSDOF 6
ENDMDL