MODEL 3
REMARK VINA RESULT: -8.606811058      0.613      1.722
REMARK  5 active torsions:
REMARK  status: ('A' for Active; 'I' for Inactive)
REMARK    1  A    between atoms: O1_1  and  N1_3
REMARK    2  A    between atoms: C1_7  and  O3_8
REMARK    3  A    between atoms: C2_10  and  C3_11
REMARK    4  A    between atoms: N5_17  and  N6_19
REMARK    5  A    between atoms: N6_19  and  C5_21
ROOT
HETATM    1  C3  UNL     1       2.527 -79.315-146.553  1.00  0.00     0.080 A
HETATM    2  N3  UNL     1       1.706 -78.558-145.939  1.00  0.00    -0.286 N
ATOM      3  H3  UNL     1       1.449 -77.689-146.407  1.00  0.00     0.187 HD
HETATM    4  N4  UNL     1       1.124 -78.792-144.696  1.00  0.00    -0.131 N
ATOM      5  H4  UNL     1       0.472 -78.131-144.274  1.00  0.00     0.205 HD
HETATM    6  C4  UNL     1       1.490 -80.010-144.045  1.00  0.00     0.707 A
HETATM    7  N5  UNL     1       0.982 -80.298-142.872  1.00  0.00    -0.128 N
ATOM      8  H5  UNL     1       0.327 -79.660-142.419  1.00  0.00     0.205 HD
HETATM    9  N9  UNL     1       2.398 -80.874-144.691  1.00  0.00    -0.218 N
ATOM     10  H9  UNL     1       2.664 -81.740-144.221  1.00  0.00     0.178 HD
HETATM   11  C8  UNL     1       2.964 -80.594-145.976  1.00  0.00     0.199 A
ENDROOT
BRANCH   7  12
HETATM   12  N6  UNL     1       1.353 -81.495-142.253  1.00  0.00    -0.257 N
ATOM     13  H6  UNL     1       2.345 -81.688-142.116  1.00  0.00     0.190 HD
BRANCH  12  14
HETATM   14  C5  UNL     1       0.396 -82.457-141.804  1.00  0.00     0.190 C
HETATM   15  N7  UNL     1      -0.864 -82.204-141.661  1.00  0.00    -0.360 N
HETATM   16  C6  UNL     1      -1.576 -83.374-141.193  1.00  0.00     0.142 C
ATOM     17  H7  UNL     1      -1.298 -81.300-141.852  1.00  0.00     0.162 HD
HETATM   18  C7  UNL     1      -0.609 -84.489-141.532  1.00  0.00     0.142 C
HETATM   19  N8  UNL     1       0.664 -83.809-141.452  1.00  0.00    -0.360 N
ATOM     20  H8  UNL     1       1.565 -84.213-141.195  1.00  0.00     0.162 HD
ENDBRANCH  12  14
ENDBRANCH   7  12
BRANCH   1  21
HETATM   21  C2  UNL     1       3.064 -78.926-147.880  1.00  0.00     0.168 A
HETATM   22  N1  UNL     1       3.268 -79.768-148.886  1.00  0.00    -0.096 N
HETATM   23  O2  UNL     1       3.751 -79.087-149.908  1.00  0.00    -0.126 OA
HETATM   24  N2  UNL     1       3.863 -77.826-149.582  1.00  0.00    -0.215 N
HETATM   25  C1  UNL     1       3.437 -77.674-148.296  1.00  0.00     0.196 A
ATOM     26  H2  UNL     1       4.210 -77.082-150.187  1.00  0.00     0.199 HD
BRANCH  22  27
HETATM   27  O1  UNL     1       3.056 -81.115-148.970  1.00  0.00    -0.261 OA
ATOM     28  H1  UNL     1       2.422 -81.476-149.579  1.00  0.00     0.247 HD
ENDBRANCH  22  27
BRANCH  25  29
HETATM   29  O3  UNL     1       3.373 -76.535-147.535  1.00  0.00    -0.343 OA
ATOM     30  H3  UNL     1       3.620 -76.406-146.626  1.00  0.00     0.219 HD
ENDBRANCH  25  29
ENDBRANCH   1  21
TORSDOF 5
ENDMDL