MODEL 5
REMARK VINA RESULT: -6.052362834      8.577     10.427
REMARK  7 active torsions:
REMARK  status: ('A' for Active; 'I' for Inactive)
REMARK    1  A    between atoms: O1_2  and  C2_3
REMARK    2  A    between atoms: C3_5  and  O3_6
REMARK    3  A    between atoms: C3_5  and  O4_8
REMARK    4  A    between atoms: C5_10  and  O5_12
REMARK    5  A    between atoms: C8_15  and  O6_16
REMARK    6  A    between atoms: C10_19  and  O7_20
REMARK    7  A    between atoms: C11_22  and  O8_23
ROOT
HETATM    1  C2  UNL     1       0.178 -78.673-147.510  1.00  0.00     0.282 C
HETATM    2  O2  UNL     1      -0.657 -77.539-147.268  1.00  0.00    -0.299 OA
HETATM    3  C3  UNL     1      -1.860 -78.107-146.857  1.00  0.00     0.315 C
HETATM    4  C5  UNL     1      -1.537 -79.370-146.147  1.00  0.00     0.155 C
HETATM    5  C6  UNL     1      -2.130 -79.559-144.819  1.00  0.00     0.056 C
HETATM    6  C7  UNL     1      -0.026 -79.411-146.210  1.00  0.00     0.102 C
HETATM    7  C8  UNL     1       0.504 -80.805-146.179  1.00  0.00     0.140 C
HETATM    8  C9  UNL     1       1.857 -80.694-145.459  1.00  0.00     0.067 C
HETATM    9  C10 UNL     1       1.561 -79.629-144.390  1.00  0.00     0.150 C
HETATM   10  C11 UNL     1       0.659 -78.693-145.113  1.00  0.00     0.166 C
ENDROOT
BRANCH   1  11
HETATM   11  O1  UNL     1       1.471 -78.249-147.744  1.00  0.00    -0.365 OA
HETATM   12  C1  UNL     1       1.999 -79.006-148.779  1.00  0.00     0.204 C
ENDBRANCH   1  11
BRANCH   4  13
HETATM   13  O5  UNL     1      -1.963 -80.429-146.985  1.00  0.00    -0.381 OA
ATOM     14  H5  UNL     1      -2.838 -80.668-146.701  1.00  0.00     0.211 HD
ENDBRANCH   4  13
BRANCH   7  15
HETATM   15  O6  UNL     1       0.585 -81.459-147.373  1.00  0.00    -0.394 OA
ATOM     16  H6  UNL     1       0.484 -82.404-147.352  1.00  0.00     0.210 HD
ENDBRANCH   7  15
BRANCH  10  17
HETATM   17  O8  UNL     1      -0.177 -77.965-144.281  1.00  0.00    -0.392 OA
ATOM     18  H8  UNL     1      -0.815 -77.423-144.730  1.00  0.00     0.210 HD
ENDBRANCH  10  17
BRANCH   3  19
HETATM   19  O3  UNL     1      -2.583 -77.221-146.064  1.00  0.00    -0.341 OA
ATOM     20  H3  UNL     1      -2.300 -77.266-145.159  1.00  0.00     0.215 HD
ENDBRANCH   3  19
BRANCH   3  21
HETATM   21  O4  UNL     1      -2.621 -78.306-148.020  1.00  0.00    -0.335 OA
HETATM   22  C4  UNL     1      -3.653 -77.361-148.016  1.00  0.00     0.208 C
ENDBRANCH   3  21
BRANCH   9  23
HETATM   23  O7  UNL     1       2.764 -79.045-143.983  1.00  0.00    -0.393 OA
ATOM     24  H7  UNL     1       2.958 -78.308-144.552  1.00  0.00     0.210 HD
ENDBRANCH   9  23
TORSDOF 7
ENDMDL