MODEL 4
REMARK VINA RESULT: -4.188881842      4.381     10.934
REMARK  12 active torsions:
REMARK  status: ('A' for Active; 'I' for Inactive)
REMARK    1  A    between atoms: N1_2  and  C2_3
REMARK    2  A    between atoms: N1_2  and  C4_7
REMARK    3  A    between atoms: C2_3  and  C3_4
REMARK    4  A    between atoms: C3_4  and  O1_5
REMARK    5  A    between atoms: C5_10  and  N3_11
REMARK    6  A    between atoms: N3_11  and  C6_13
REMARK    7  A    between atoms: C9_16  and  C10_17
REMARK    8  A    between atoms: C15_26  and  N6_27
REMARK    9  A    between atoms: N6_27  and  C16_28
REMARK   10  A    between atoms: C16_28  and  C17_29
REMARK   11  A    between atoms: C20_39  and  C21_40
REMARK   12  A    between atoms: C21_40  and  N10_41
ROOT
HETATM    1  C6  UNL     1      37.739  22.611  12.778  1.00  0.00     0.120 A
HETATM    2  C7  UNL     1      37.724  23.974  13.089  1.00  0.00     0.050 A
HETATM    3  C8  UNL     1      38.916  24.628  13.141  1.00  0.00     0.019 A
HETATM    4  C9  UNL     1      40.118  23.978  12.894  1.00  0.00     0.007 A
HETATM    5  C19 UNL     1      40.110  22.657  12.596  1.00  0.00     0.103 A
HETATM    6  N8  UNL     1      38.911  22.003  12.544  1.00  0.00    -0.351 N
ATOM      7  H8  UNL     1      38.908  21.009  12.319  1.00  0.00     0.166 HD
ENDROOT
BRANCH   1   8
HETATM    8  N3  UNL     1      36.498  21.925  12.730  1.00  0.00    -0.176 N
ATOM      9  H3  UNL     1      35.621  22.441  12.659  1.00  0.00     0.186 HD
BRANCH   8  10
HETATM   10  C5  UNL     1      36.501  20.647  12.778  1.00  0.00     0.699 A
HETATM   11  N2  UNL     1      36.025  19.949  11.742  1.00  0.00    -0.022 N
HETATM   12  C4  UNL     1      35.988  18.603  11.699  1.00  0.00     0.696 A
ATOM     13  H2  UNL     1      35.669  20.466  10.938  1.00  0.00     0.203 HD
HETATM   14  N11 UNL     1      36.462  17.935  12.777  1.00  0.00    -0.178 N
HETATM   15  C20 UNL     1      36.947  18.608  13.836  1.00  0.00     0.138 A
ATOM     16  H11 UNL     1      36.451  16.916  12.786  1.00  0.00     0.185 HD
HETATM   17  N9  UNL     1      36.966  19.952  13.837  1.00  0.00    -0.178 N
ATOM     18  H9  UNL     1      37.336  20.451  14.646  1.00  0.00     0.185 HD
BRANCH  12  19
HETATM   19  N1  UNL     1      35.480  17.893  10.581  1.00  0.00    -0.219 N
HETATM   20  C1  UNL     1      34.249  17.147  10.744  1.00  0.00     0.168 C
BRANCH  19  21
HETATM   21  C2  UNL     1      36.200  17.932   9.334  1.00  0.00     0.166 C
BRANCH  21  22
HETATM   22  C3  UNL     1      35.531  17.120   8.245  1.00  0.00     0.184 C
BRANCH  22  23
HETATM   23  O1  UNL     1      36.570  16.423   7.591  1.00  0.00    -0.399 OA
ATOM     24  H1  UNL     1      36.334  16.410   6.672  1.00  0.00     0.209 HD
ENDBRANCH  22  23
ENDBRANCH  21  22
ENDBRANCH  19  21
ENDBRANCH  12  19
BRANCH  15  25
HETATM   25  C21 UNL     1      37.467  17.907  15.023  1.00  0.00     0.306 C
BRANCH  25  26
HETATM   26  N10 UNL     1      36.902  16.585  15.178  1.00  0.00    -0.073 N
ATOM     27 3H10 UNL     1      36.324  16.529  16.017  1.00  0.00     0.274 HD
ATOM     28 2H10 UNL     1      36.186  16.407  14.473  1.00  0.00     0.274 HD
ATOM     29 1H10 UNL     1      37.612  15.853  15.172  1.00  0.00     0.274 HD
ENDBRANCH  25  26
ENDBRANCH  15  25
ENDBRANCH   8  10
ENDBRANCH   1   8
BRANCH   4  30
HETATM   30  C10 UNL     1      41.371  24.745  12.974  1.00  0.00     0.060 A
HETATM   31  C11 UNL     1      42.530  24.215  13.444  1.00  0.00     0.120 A
HETATM   32  N4  UNL     1      43.663  24.980  13.499  1.00  0.00    -0.348 N
HETATM   33  C12 UNL     1      43.632  26.257  13.089  1.00  0.00     0.135 A
ATOM     34  H4  UNL     1      44.532  24.579  13.852  1.00  0.00     0.167 HD
HETATM   35  N5  UNL     1      44.754  27.001  13.151  1.00  0.00    -0.350 N
HETATM   36  C18 UNL     1      42.472  26.817  12.610  1.00  0.00     0.118 A
HETATM   37  C13 UNL     1      44.795  28.274  12.764  1.00  0.00     0.093 A
ATOM     38  H5  UNL     1      45.607  26.572  13.508  1.00  0.00     0.166 HD
HETATM   39  C14 UNL     1      43.646  28.856  12.281  1.00  0.00     0.063 A
HETATM   40  C15 UNL     1      42.434  28.152  12.183  1.00  0.00     0.131 A
HETATM   41  N7  UNL     1      41.377  26.042  12.568  1.00  0.00    -0.349 N
ATOM     42  H7  UNL     1      40.510  26.445  12.214  1.00  0.00     0.166 HD
BRANCH  40  43
HETATM   43  N6  UNL     1      41.457  28.679  11.763  1.00  0.00    -0.445 NA
BRANCH  43  44
HETATM   44  C16 UNL     1      40.348  29.095  11.137  1.00  0.00     0.229 C
BRANCH  44  45
HETATM   45  C17 UNL     1      39.094  28.829  11.979  1.00  0.00     0.119 C
HETATM   46  S1  UNL     1      38.677  30.282  12.980  1.00  0.00    -0.095 SA
ENDBRANCH  44  45
ENDBRANCH  43  44
ENDBRANCH  40  43
ENDBRANCH   4  30
TORSDOF 12
ENDMDL