MODEL 3
REMARK VINA RESULT: -8.967459208      1.548      2.687
REMARK  13 active torsions:
REMARK  status: ('A' for Active; 'I' for Inactive)
REMARK    1  A    between atoms: C4_7  and  N3_8
REMARK    2  A    between atoms: N3_8  and  C5_10
REMARK    3  A    between atoms: N6_20  and  C11_21
REMARK    4  A    between atoms: C11_21  and  C12_22
REMARK    5  A    between atoms: C12_22  and  N7_23
REMARK    6  A    between atoms: N7_23  and  C13_25
REMARK    7  A    between atoms: C13_25  and  C14_26
REMARK    8  A    between atoms: C14_26  and  O1_27
REMARK    9  A    between atoms: O1_27  and  C15_28
REMARK   10  A    between atoms: N9_30  and  N10_32
REMARK   11  A    between atoms: C16_34  and  C17_35
REMARK   12  A    between atoms: C20_38  and  O2_39
REMARK   13  A    between atoms: C21_41  and  O3_42
ROOT
HETATM    1  C12 UNL     1      37.364  22.652  13.304  1.00  0.00     0.134 C
ENDROOT
BRANCH   1   2
HETATM    2  C11 UNL     1      37.342  24.099  12.983  1.00  0.00     0.149 C
BRANCH   2   3
HETATM    3  N6  UNL     1      38.648  24.728  12.935  1.00  0.00    -0.341 N
HETATM    4  C7  UNL     1      39.024  25.838  12.283  1.00  0.00     0.122 A
HETATM    5  N5  UNL     1      38.317  26.660  11.506  1.00  0.00    -0.338 N
HETATM    6  C8  UNL     1      40.356  26.132  12.482  1.00  0.00     0.054 A
HETATM    7  C6  UNL     1      38.906  27.732  10.946  1.00  0.00     0.183 A
ATOM      8  H5  UNL     1      37.328  26.475  11.336  1.00  0.00     0.168 HD
HETATM    9  N4  UNL     1      40.203  28.042  11.122  1.00  0.00    -0.337 N
HETATM   10  C5  UNL     1      40.954  27.230  11.905  1.00  0.00     0.136 A
ATOM     11  H4  UNL     1      40.610  28.864  10.678  1.00  0.00     0.168 HD
HETATM   12  C9  UNL     1      40.821  25.124  13.315  1.00  0.00     0.036 A
HETATM   13  C10 UNL     1      39.755  24.286  13.571  1.00  0.00     0.094 A
BRANCH  10  14
HETATM   14  N3  UNL     1      42.199  27.509  12.091  1.00  0.00    -0.176 N
ATOM     15  H3  UNL     1      42.453  28.191  12.805  1.00  0.00     0.186 HD
BRANCH  14  16
HETATM   16  C4  UNL     1      43.228  26.891  11.326  1.00  0.00     0.677 C
HETATM   17  N1  UNL     1      44.149  25.933  11.821  1.00  0.00    -0.221 N
HETATM   18  C1  UNL     1      44.560  25.696  13.196  1.00  0.00     0.168 C
HETATM   19  C2  UNL     1      44.629  25.199  10.666  1.00  0.00     0.161 C
HETATM   20  C3  UNL     1      44.588  26.314   9.616  1.00  0.00     0.158 C
HETATM   21  N2  UNL     1      43.459  27.121  10.085  1.00  0.00    -0.225 N
ATOM     22  H2  UNL     1      42.931  27.774   9.505  1.00  0.00     0.177 HD
ENDBRANCH  14  16
ENDBRANCH  10  14
ENDBRANCH   2   3
ENDBRANCH   1   2
BRANCH   1  23
HETATM   23  N7  UNL     1      37.244  21.741  12.215  1.00  0.00    -0.418 N
ATOM     24  H7  UNL     1      36.983  22.048  11.279  1.00  0.00     0.153 HD
BRANCH  23  25
HETATM   25  C13 UNL     1      37.509  20.380  12.515  1.00  0.00     0.140 C
BRANCH  25  26
HETATM   26  C14 UNL     1      36.464  19.447  11.948  1.00  0.00     0.197 C
BRANCH  26  27
HETATM   27  O1  UNL     1      36.575  19.320  10.533  1.00  0.00    -0.322 OA
BRANCH  27  28
HETATM   28  C15 UNL     1      36.516  18.076   9.917  1.00  0.00     0.246 C
HETATM   29  N8  UNL     1      37.553  17.145  10.006  1.00  0.00    -0.055 NA
HETATM   30  N9  UNL     1      35.433  17.819   9.245  1.00  0.00    -0.268 N
ATOM     31  H9  UNL     1      34.691  18.517   9.199  1.00  0.00     0.190 HD
BRANCH  30  32
HETATM   32  N10 UNL     1      35.275  16.638   8.607  1.00  0.00    -0.308 N
HETATM   33  C16 UNL     1      34.806  15.518   8.907  1.00  0.00     0.118 C
ATOM     34  H10 UNL     1      35.622  16.668   7.648  1.00  0.00     0.186 HD
BRANCH  33  35
HETATM   35  C17 UNL     1      34.225  15.052  10.132  1.00  0.00    -0.017 A
HETATM   36  C18 UNL     1      33.613  13.802  10.155  1.00  0.00     0.016 A
HETATM   37  C19 UNL     1      33.033  13.278  11.289  1.00  0.00     0.040 A
HETATM   38  C20 UNL     1      33.041  13.994  12.462  1.00  0.00     0.098 A
HETATM   39  C21 UNL     1      33.635  15.235  12.484  1.00  0.00     0.099 A
HETATM   40  C22 UNL     1      34.212  15.737  11.323  1.00  0.00     0.052 A
BRANCH  38  41
HETATM   41  O2  UNL     1      32.451  13.449  13.592  1.00  0.00    -0.358 OA
ATOM     42  H2  UNL     1      32.980  12.932  14.188  1.00  0.00     0.217 HD
ENDBRANCH  38  41
BRANCH  39  43
HETATM   43  O3  UNL     1      33.639  15.942  13.659  1.00  0.00    -0.358 OA
ATOM     44  H3  UNL     1      33.825  16.873  13.630  1.00  0.00     0.217 HD
ENDBRANCH  39  43
ENDBRANCH  33  35
ENDBRANCH  30  32
ENDBRANCH  27  28
ENDBRANCH  26  27
ENDBRANCH  25  26
ENDBRANCH  23  25
ENDBRANCH   1  23
TORSDOF 13
ENDMDL