MODEL 4
REMARK VINA RESULT: -2.990699297      5.976     10.815
REMARK  14 active torsions:
REMARK  status: ('A' for Active; 'I' for Inactive)
REMARK    1  A    between atoms: N1_2  and  C3_4
REMARK    2  A    between atoms: C3_4  and  C4_5
REMARK    3  A    between atoms: C5_6  and  C6_7
REMARK    4  A    between atoms: C6_7  and  N2_8
REMARK    5  A    between atoms: N2_8  and  C7_10
REMARK    6  A    between atoms: C9_12  and  N3_13
REMARK    7  A    between atoms: N3_13  and  C10_15
REMARK    8  A    between atoms: C14_22  and  C15_23
REMARK    9  A    between atoms: C15_23  and  C16_24
REMARK   10  A    between atoms: C18_28  and  N7_29
REMARK   11  A    between atoms: C19_34  and  N9_35
REMARK   12  A    between atoms: N12_44  and  C22_45
REMARK   13  A    between atoms: C22_45  and  C23_46
REMARK   14  A    between atoms: C23_46  and  O1_47
ROOT
HETATM    1  C7  UNL     1      34.121  16.297  12.643  1.00  0.00     0.106 A
HETATM    2  C8  UNL     1      33.442  15.748  13.714  1.00  0.00     0.098 A
HETATM    3  C9  UNL     1      32.786  14.532  13.614  1.00  0.00     0.129 A
HETATM    4  N4  UNL     1      32.841  13.909  12.428  1.00  0.00    -0.223 N
HETATM    5  N5  UNL     1      32.325  12.761  12.039  1.00  0.00    -0.301 N
ATOM      6  H5  UNL     1      31.770  12.140  12.627  1.00  0.00     0.186 HD
HETATM    7  C13 UNL     1      32.641  12.524  10.730  1.00  0.00     0.123 A
HETATM    8  C14 UNL     1      33.395  13.586  10.284  1.00  0.00     0.028 A
HETATM    9  C20 UNL     1      33.506  14.438  11.362  1.00  0.00     0.142 A
HETATM   10  N10 UNL     1      34.133  15.618  11.488  1.00  0.00    -0.327 N
ATOM     11  H10 UNL     1      34.628  16.007  10.686  1.00  0.00     0.169 HD
ENDROOT
BRANCH   1  12
HETATM   12  N2  UNL     1      34.807  17.539  12.711  1.00  0.00    -0.372 N
ATOM     13  H2  UNL     1      34.550  18.201  13.443  1.00  0.00     0.161 HD
BRANCH  12  14
HETATM   14  C6  UNL     1      35.850  17.895  11.785  1.00  0.00     0.163 C
BRANCH  14  15
HETATM   15  C5  UNL     1      36.319  19.290  11.959  1.00  0.00     0.006 A
HETATM   16  C4  UNL     1      36.677  19.887  13.209  1.00  0.00     0.075 A
HETATM   17  N12 UNL     1      37.049  21.132  12.981  1.00  0.00    -0.289 N
HETATM   18  N11 UNL     1      36.935  21.340  11.645  1.00  0.00    -0.309 N
HETATM   19  C21 UNL     1      36.505  20.262  11.021  1.00  0.00     0.118 A
ATOM     20  H11 UNL     1      37.154  22.223  11.182  1.00  0.00     0.186 HD
BRANCH  16  21
HETATM   21  C3  UNL     1      36.475  19.105  14.420  1.00  0.00     0.116 C
BRANCH  21  22
HETATM   22  N1  UNL     1      37.391  18.215  14.948  1.00  0.00    -0.397 N
HETATM   23  C1  UNL     1      38.741  18.251  14.546  1.00  0.00     0.148 C
HETATM   24  C2  UNL     1      36.901  16.880  15.199  1.00  0.00     0.148 C
ENDBRANCH  21  22
ENDBRANCH  16  21
BRANCH  17  25
HETATM   25  C22 UNL     1      37.591  22.207  13.774  1.00  0.00     0.175 C
BRANCH  25  26
HETATM   26  C23 UNL     1      37.218  23.524  13.146  1.00  0.00     0.185 C
BRANCH  26  27
HETATM   27  O1  UNL     1      35.958  23.976  13.393  1.00  0.00    -0.399 OA
ATOM     28  H1  UNL     1      35.428  23.448  13.979  1.00  0.00     0.209 HD
ENDBRANCH  26  27
ENDBRANCH  25  26
ENDBRANCH  17  25
ENDBRANCH  14  15
ENDBRANCH  12  14
ENDBRANCH   1  12
BRANCH   3  29
HETATM   29  N3  UNL     1      32.179  14.092  14.654  1.00  0.00    -0.370 N
ATOM     30  H3  UNL     1      31.333  13.550  14.477  1.00  0.00     0.161 HD
BRANCH  29  31
HETATM   31  C10 UNL     1      32.530  14.259  16.019  1.00  0.00     0.083 A
HETATM   32  C11 UNL     1      32.660  12.911  16.760  1.00  0.00     0.027 A
HETATM   33  C12 UNL     1      33.811  13.840  16.618  1.00  0.00     0.027 A
ENDBRANCH  29  31
ENDBRANCH   3  29
BRANCH   8  34
HETATM   34  C15 UNL     1      33.890  13.708   9.067  1.00  0.00     0.033 C
BRANCH  34  35
HETATM   35  C16 UNL     1      34.368  14.963   8.530  1.00  0.00     0.025 A
HETATM   36  C17 UNL     1      33.539  15.856   7.885  1.00  0.00     0.121 A
HETATM   37  N6  UNL     1      34.014  17.026   7.389  1.00  0.00    -0.201 N
HETATM   38  C18 UNL     1      35.314  17.340   7.518  1.00  0.00     0.677 A
ATOM     39  H6  UNL     1      33.381  17.671   6.917  1.00  0.00     0.183 HD
HETATM   40  N8  UNL     1      36.155  16.498   8.138  1.00  0.00    -0.177 N
HETATM   41  C19 UNL     1      35.692  15.316   8.644  1.00  0.00     0.126 A
ATOM     42  H8  UNL     1      37.142  16.742   8.233  1.00  0.00     0.186 HD
BRANCH  38  43
HETATM   43  N7  UNL     1      35.761  18.451   7.049  1.00  0.00    -0.234 N
ATOM     44  H72 UNL     1      35.217  19.304   7.175  1.00  0.00     0.174 HD
ATOM     45  H71 UNL     1      36.652  18.477   6.554  1.00  0.00     0.174 HD
ENDBRANCH  38  43
BRANCH  41  46
HETATM   46  N9  UNL     1      36.537  14.536   9.234  1.00  0.00    -0.384 N
ATOM     47  H92 UNL     1      36.193  13.938   9.984  1.00  0.00     0.157 HD
ATOM     48  H91 UNL     1      37.519  14.523   8.956  1.00  0.00     0.157 HD
ENDBRANCH  41  46
ENDBRANCH  34  35
ENDBRANCH   8  34
TORSDOF 14
ENDMDL