MODEL 4
REMARK VINA RESULT: -9.050862056      1.834      3.122
REMARK  9 active torsions:
REMARK  status: ('A' for Active; 'I' for Inactive)
REMARK       I    between atoms: C2_4  and  N2_5
REMARK       I    between atoms: C2_4  and  N12_41
REMARK       I    between atoms: C3_7  and  N4_9
REMARK    1  A    between atoms: N4_9  and  C4_11
REMARK    2  A    between atoms: C4_11  and  C5_12
REMARK    3  A    between atoms: C5_12  and  N5_13
REMARK       I    between atoms: N5_13  and  C6_15
REMARK    4  A    between atoms: C6_15  and  C7_17
REMARK    5  A    between atoms: C7_17  and  S1_18
REMARK    6  A    between atoms: S1_18  and  C8_19
REMARK    7  A    between atoms: C9_22  and  C10_23
REMARK    8  A    between atoms: N7_28  and  C14_29
REMARK    9  A    between atoms: C15_35  and  N10_36
ROOT
HETATM    1  C1  UNL     1      38.899  29.098  12.683  1.00  0.00     0.165 C
HETATM    2  N1  UNL     1      39.231  28.460  11.443  1.00  0.00    -0.230 N
ATOM      3  H1  UNL     1      38.652  28.650  10.625  1.00  0.00     0.177 HD
HETATM    4  C2  UNL     1      40.220  27.666  11.320  1.00  0.00     0.689 C
HETATM    5  N2  UNL     1      41.046  27.373  12.428  1.00  0.00    -0.163 N
ATOM      6  H2  UNL     1      41.653  28.121  12.761  1.00  0.00     0.187 HD
HETATM    7  C3  UNL     1      41.102  26.273  13.044  1.00  0.00     0.202 C
HETATM    8  N3  UNL     1      41.965  26.062  14.141  1.00  0.00    -0.063 NA
HETATM    9  N4  UNL     1      40.226  25.166  12.657  1.00  0.00    -0.362 N
ATOM     10  H4  UNL     1      40.444  24.531  11.887  1.00  0.00     0.162 HD
HETATM   11  N12 UNL     1      40.527  27.058  10.073  1.00  0.00    -0.126 N
ATOM     12  H12 UNL     1      41.456  27.159   9.663  1.00  0.00     0.197 HD
HETATM   13  C16 UNL     1      39.550  26.329   9.422  1.00  0.00     0.196 C
HETATM   14  N13 UNL     1      38.736  25.721   8.889  1.00  0.00    -0.171 NA
ENDROOT
BRANCH   9  15
HETATM   15  C4  UNL     1      39.067  25.050  13.431  1.00  0.00     0.142 C
BRANCH  15  16
HETATM   16  C5  UNL     1      37.966  24.180  13.026  1.00  0.00     0.142 C
BRANCH  16  17
HETATM   17  N5  UNL     1      38.167  22.784  13.005  1.00  0.00    -0.359 N
HETATM   18  C6  UNL     1      37.302  21.780  12.582  1.00  0.00     0.227 C
HETATM   19  O1  UNL     1      36.148  21.910  12.159  1.00  0.00    -0.273 OA
ATOM     20  H5  UNL     1      39.073  22.467  13.348  1.00  0.00     0.162 HD
BRANCH  18  21
HETATM   21  C7  UNL     1      37.797  20.351  12.634  1.00  0.00     0.185 C
BRANCH  21  22
HETATM   22  S1  UNL     1      36.887  19.413  13.875  1.00  0.00    -0.083 SA
BRANCH  22  23
HETATM   23  C8  UNL     1      36.026  18.086  12.993  1.00  0.00     0.161 A
HETATM   24  N6  UNL     1      35.234  17.127  13.487  1.00  0.00    -0.319 N
HETATM   25  C9  UNL     1      34.740  16.358  12.466  1.00  0.00     0.148 A
ATOM     26  H6  UNL     1      35.028  16.989  14.477  1.00  0.00     0.169 HD
HETATM   27  N7  UNL     1      35.236  16.857  11.335  1.00  0.00    -0.215 N
HETATM   28  N11 UNL     1      36.018  17.906  11.669  1.00  0.00    -0.270 N
ATOM     29  H11 UNL     1      36.532  18.481  11.002  1.00  0.00     0.190 HD
BRANCH  25  30
HETATM   30  C10 UNL     1      33.861  15.218  12.725  1.00  0.00     0.051 A
HETATM   31  C11 UNL     1      33.161  14.863  13.836  1.00  0.00     0.023 A
HETATM   32  C12 UNL     1      32.421  13.746  13.787  1.00  0.00     0.009 A
HETATM   33  C13 UNL     1      32.420  13.035  12.620  1.00  0.00     0.050 A
HETATM   34  S2  UNL     1      33.455  13.953  11.623  1.00  0.00    -0.098 SA
ENDBRANCH  25  30
BRANCH  27  35
HETATM   35  C14 UNL     1      35.007  16.448   9.992  1.00  0.00     0.196 A
HETATM   36  N8  UNL     1      33.866  16.487   9.267  1.00  0.00    -0.220 N
HETATM   37  O2  UNL     1      34.127  16.033   8.080  1.00  0.00    -0.153 OA
ATOM     38  H8  UNL     1      32.959  16.816   9.596  1.00  0.00     0.198 HD
HETATM   39  N9  UNL     1      35.367  15.685   7.947  1.00  0.00    -0.222 N
HETATM   40  C15 UNL     1      35.961  15.932   9.132  1.00  0.00     0.169 A
ATOM     41  H9  UNL     1      35.808  15.301   7.111  1.00  0.00     0.198 HD
BRANCH  40  42
HETATM   42  N10 UNL     1      37.219  15.700   9.351  1.00  0.00    -0.381 N
ATOM     43 2H10 UNL     1      37.645  15.785  10.274  1.00  0.00     0.157 HD
ATOM     44 1H10 UNL     1      37.944  15.412   8.692  1.00  0.00     0.157 HD
ENDBRANCH  40  42
ENDBRANCH  27  35
ENDBRANCH  22  23
ENDBRANCH  21  22
ENDBRANCH  18  21
ENDBRANCH  16  17
ENDBRANCH  15  16
ENDBRANCH   9  15
TORSDOF 9
ENDMDL