MODEL 4
REMARK VINA RESULT: -4.411378260      2.199      3.103
REMARK  11 active torsions:
REMARK  status: ('A' for Active; 'I' for Inactive)
REMARK    1  A    between atoms: N2_5  and  N3_6
REMARK    2  A    between atoms: C2_9  and  C3_10
REMARK    3  A    between atoms: C6_18  and  O3_19
REMARK    4  A    between atoms: O3_19  and  C7_20
REMARK    5  A    between atoms: C7_20  and  C8_21
REMARK       I    between atoms: C8_21  and  N5_23
REMARK    6  A    between atoms: N5_23  and  C9_25
REMARK    7  A    between atoms: C9_25  and  C10_26
REMARK    8  A    between atoms: C10_26  and  O5_27
REMARK    9  A    between atoms: C14_32  and  O6_33
REMARK   10  A    between atoms: N6_35  and  C15_36
REMARK   11  A    between atoms: C15_36  and  C16_37
ROOT
HETATM    1  C3  UNL     1      35.961  17.163  13.000  1.00  0.00     0.088 A
HETATM    2  N4  UNL     1      36.309  16.945  14.254  1.00  0.00    -0.277 N
ATOM      3  H4  UNL     1      36.133  16.081  14.768  1.00  0.00     0.179 HD
HETATM    4  S1  UNL     1      37.086  18.295  14.880  1.00  0.00     0.264 S
HETATM    5  O1  UNL     1      36.408  18.877  16.090  1.00  0.00    -0.200 OA
HETATM    6  O2  UNL     1      38.552  18.073  15.133  1.00  0.00    -0.200 OA
HETATM    7  C4  UNL     1      36.851  19.327  13.478  1.00  0.00     0.095 A
HETATM    8  C5  UNL     1      37.157  20.649  13.292  1.00  0.00     0.063 A
HETATM    9  C6  UNL     1      36.870  21.252  12.116  1.00  0.00     0.070 A
HETATM   10  C11 UNL     1      36.273  20.490  11.147  1.00  0.00     0.038 A
HETATM   11  C12 UNL     1      35.958  19.144  11.332  1.00  0.00     0.018 A
HETATM   12  C13 UNL     1      36.249  18.498  12.548  1.00  0.00     0.017 A
ENDROOT
BRANCH   1  13
HETATM   13  C2  UNL     1      35.266  16.033  12.331  1.00  0.00     0.153 A
HETATM   14  N2  UNL     1      34.154  15.371  12.591  1.00  0.00    -0.086 N
HETATM   15  C1  UNL     1      33.831  14.485  11.585  1.00  0.00     0.702 A
HETATM   16  N1  UNL     1      32.808  13.686  11.529  1.00  0.00    -0.233 N
HETATM   17  N6  UNL     1      34.772  14.596  10.657  1.00  0.00    -0.154 N
ATOM     18  H12 UNL     1      32.085  13.600  12.242  1.00  0.00     0.174 HD
ATOM     19  H11 UNL     1      32.569  13.030  10.785  1.00  0.00     0.174 HD
HETATM   20  C14 UNL     1      35.647  15.518  11.075  1.00  0.00     0.190 A
BRANCH  14  21
HETATM   21  N3  UNL     1      33.256  15.494  13.640  1.00  0.00    -0.324 N
ATOM     22  H32 UNL     1      32.296  15.839  13.655  1.00  0.00     0.178 HD
ATOM     23  H31 UNL     1      33.547  15.131  14.548  1.00  0.00     0.178 HD
ENDBRANCH  14  21
BRANCH  17  24
HETATM   24  C15 UNL     1      34.848  13.855   9.408  1.00  0.00     0.196 C
BRANCH  24  25
HETATM   25  C16 UNL     1      33.820  14.478   8.493  1.00  0.00     0.001 A
HETATM   26  C17 UNL     1      32.853  13.834   7.775  1.00  0.00     0.017 A
HETATM   27  C18 UNL     1      32.040  14.589   7.020  1.00  0.00     0.008 A
HETATM   28  C19 UNL     1      32.247  15.942   7.034  1.00  0.00     0.050 A
HETATM   29  S2  UNL     1      33.568  16.117   8.097  1.00  0.00    -0.105 SA
ENDBRANCH  24  25
ENDBRANCH  17  24
BRANCH  20  30
HETATM   30  O6  UNL     1      36.794  15.930  10.379  1.00  0.00    -0.344 OA
ATOM     31  H6  UNL     1      37.078  15.549   9.556  1.00  0.00     0.219 HD
ENDBRANCH  20  30
ENDBRANCH   1  13
BRANCH   9  32
HETATM   32  O3  UNL     1      37.180  22.592  11.921  1.00  0.00    -0.342 OA
BRANCH  32  33
HETATM   33  C7  UNL     1      37.217  23.478  13.015  1.00  0.00     0.278 C
BRANCH  33  34
HETATM   34  C8  UNL     1      38.344  24.423  12.897  1.00  0.00     0.241 C
HETATM   35  O4  UNL     1      38.256  25.531  12.318  1.00  0.00    -0.271 OA
HETATM   36  N5  UNL     1      39.621  24.083  13.465  1.00  0.00    -0.357 N
ATOM     37  H5  UNL     1      39.735  23.190  13.945  1.00  0.00     0.162 HD
BRANCH  36  38
HETATM   38  C9  UNL     1      40.744  24.988  13.365  1.00  0.00     0.148 C
BRANCH  38  39
HETATM   39  C10 UNL     1      41.918  24.247  12.814  1.00  0.00     0.183 C
BRANCH  39  40
HETATM   40  O5  UNL     1      41.482  22.977  12.435  1.00  0.00    -0.399 OA
ATOM     41  H5  UNL     1      41.885  22.769  11.600  1.00  0.00     0.209 HD
ENDBRANCH  39  40
ENDBRANCH  38  39
ENDBRANCH  36  38
ENDBRANCH  33  34
ENDBRANCH  32  33
ENDBRANCH   9  32
TORSDOF 11
ENDMDL