MODEL 3
REMARK VINA RESULT: -5.013666342      1.900      4.741
REMARK  12 active torsions:
REMARK  status: ('A' for Active; 'I' for Inactive)
REMARK    1  A    between atoms: N1_2  and  C2_4
REMARK    2  A    between atoms: C2_4  and  C3_5
REMARK    3  A    between atoms: C3_5  and  N2_6
REMARK    4  A    between atoms: N2_6  and  C4_7
REMARK    5  A    between atoms: C5_10  and  N4_11
REMARK    6  A    between atoms: C6_13  and  C7_14
REMARK    7  A    between atoms: C7_14  and  C8_15
REMARK    8  A    between atoms: C11_18  and  C12_19
REMARK    9  A    between atoms: C12_19  and  O1_21
REMARK   10  A    between atoms: C15_30  and  C16_31
REMARK   11  A    between atoms: C16_31  and  C17_32
REMARK   12  A    between atoms: C19_39  and  O2_40
ROOT
HETATM    1  C4  UNL     1      39.315  24.343  12.905  1.00  0.00     0.296 A
HETATM    2  N3  UNL     1      40.554  23.742  13.102  1.00  0.00    -0.147 N
ATOM      3  H3  UNL     1      40.558  22.784  13.453  1.00  0.00     0.188 HD
HETATM    4  C5  UNL     1      41.717  24.302  12.874  1.00  0.00     0.687 A
HETATM    5  N7  UNL     1      41.674  25.605  12.398  1.00  0.00    -0.173 N
ATOM      6  H7  UNL     1      42.549  26.092  12.204  1.00  0.00     0.186 HD
HETATM    7  C14 UNL     1      40.537  26.229  12.191  1.00  0.00     0.158 A
HETATM    8  C15 UNL     1      40.296  27.548  11.718  1.00  0.00     0.030 A
HETATM    9  C20 UNL     1      38.936  27.660  11.708  1.00  0.00     0.123 A
HETATM   10  N10 UNL     1      38.414  26.488  12.144  1.00  0.00    -0.299 N
ATOM     11  H10 UNL     1      37.416  26.295  12.236  1.00  0.00     0.186 HD
HETATM   12  N11 UNL     1      39.376  25.629  12.433  1.00  0.00    -0.195 N
ENDROOT
BRANCH   4  13
HETATM   13  N4  UNL     1      42.850  23.838  12.957  1.00  0.00    -0.205 N
HETATM   14  C6  UNL     1      43.907  23.372  13.648  1.00  0.00     0.085 C
ATOM     15  H4  UNL     1      43.151  23.768  11.985  1.00  0.00     0.183 HD
BRANCH  14  16
HETATM   16  C7  UNL     1      45.116  24.215  13.926  1.00  0.00     0.103 C
BRANCH  16  17
HETATM   17  C8  UNL     1      44.912  25.661  13.918  1.00  0.00     0.030 A
HETATM   18  C9  UNL     1      44.542  26.455  14.957  1.00  0.00     0.029 A
HETATM   19  C10 UNL     1      44.380  27.807  14.671  1.00  0.00     0.031 A
HETATM   20  C11 UNL     1      44.554  28.381  13.470  1.00  0.00     0.054 A
HETATM   21  N5  UNL     1      44.935  27.526  12.427  1.00  0.00    -0.302 N
HETATM   22  N6  UNL     1      45.081  26.274  12.713  1.00  0.00    -0.304 N
ATOM     23  H5  UNL     1      45.091  27.876  11.483  1.00  0.00     0.186 HD
ATOM     24  H6  UNL     1      45.359  25.670  11.939  1.00  0.00     0.186 HD
BRANCH  20  25
HETATM   25  C12 UNL     1      44.387  29.818  13.234  1.00  0.00     0.165 C
HETATM   26  C13 UNL     1      42.966  30.282  13.145  1.00  0.00     0.046 C
BRANCH  25  27
HETATM   27  O1  UNL     1      45.083  30.258  12.108  1.00  0.00    -0.390 OA
ATOM     28  H1  UNL     1      45.970  30.530  12.313  1.00  0.00     0.210 HD
ENDBRANCH  25  27
ENDBRANCH  20  25
ENDBRANCH  16  17
ENDBRANCH  14  16
ENDBRANCH   4  13
BRANCH   1  29
HETATM   29  N2  UNL     1      38.343  23.737  13.131  1.00  0.00    -0.384 NA
BRANCH  29  30
HETATM   30  C3  UNL     1      37.209  23.028  13.390  1.00  0.00     0.178 C
BRANCH  30  31
HETATM   31  C2  UNL     1      37.228  21.732  12.588  1.00  0.00     0.173 C
BRANCH  31  32
HETATM   32  N1  UNL     1      37.141  20.550  13.381  1.00  0.00    -0.420 N
HETATM   33  C1  UNL     1      36.405  19.459  12.838  1.00  0.00     0.140 C
ATOM     34  H1  UNL     1      37.586  20.489  14.297  1.00  0.00     0.153 HD
ENDBRANCH  31  32
ENDBRANCH  30  31
ENDBRANCH  29  30
ENDBRANCH   1  29
BRANCH   8  35
HETATM   35  C16 UNL     1      41.252  28.362  11.375  1.00  0.00     0.050 C
BRANCH  35  36
HETATM   36  C17 UNL     1      42.006  28.456  10.159  1.00  0.00     0.086 A
HETATM   37  N8  UNL     1      43.094  29.180   9.893  1.00  0.00    -0.330 N
HETATM   38  C18 UNL     1      43.451  29.014   8.608  1.00  0.00     0.178 A
ATOM     39  H8  UNL     1      43.581  29.773  10.565  1.00  0.00     0.168 HD
HETATM   40  S1  UNL     1      44.706  29.707   7.874  1.00  0.00    -0.040 SA
HETATM   41  N9  UNL     1      42.572  28.158   8.023  1.00  0.00    -0.312 N
HETATM   42  C19 UNL     1      41.679  27.807   8.965  1.00  0.00     0.169 A
ATOM     43  H9  UNL     1      42.587  27.842   7.054  1.00  0.00     0.170 HD
BRANCH  42  44
HETATM   44  O2  UNL     1      40.616  26.957   8.800  1.00  0.00    -0.344 OA
ATOM     45  H2  UNL     1      40.664  26.010   8.852  1.00  0.00     0.219 HD
ENDBRANCH  42  44
ENDBRANCH  35  36
ENDBRANCH   8  35
TORSDOF 12
ENDMDL