MODEL 4
REMARK VINA RESULT: -2.224440365      0.760      1.132
REMARK  14 active torsions:
REMARK  status: ('A' for Active; 'I' for Inactive)
REMARK    1  A    between atoms: C2_2  and  C3_3
REMARK    2  A    between atoms: C3_3  and  N1_4
REMARK    3  A    between atoms: N1_4  and  C4_6
REMARK    4  A    between atoms: C5_9  and  N3_10
REMARK       I    between atoms: N3_10  and  C6_12
REMARK    5  A    between atoms: C6_12  and  O2_14
REMARK    6  A    between atoms: C8_16  and  N4_17
REMARK    7  A    between atoms: N4_17  and  C9_19
REMARK    8  A    between atoms: C9_19  and  C10_20
REMARK    9  A    between atoms: C10_20  and  N5_21
REMARK   10  A    between atoms: N6_25  and  C11_26
REMARK   11  A    between atoms: C14_35  and  N10_36
REMARK   12  A    between atoms: N10_36  and  C15_37
REMARK   13  A    between atoms: N10_36  and  C17_39
REMARK   14  A    between atoms: C19_43  and  N12_44
ROOT
HETATM    1  C4  UNL     1      34.863  16.492   9.854  1.00  0.00     0.695 A
HETATM    2  N2  UNL     1      33.902  15.577  10.168  1.00  0.00    -0.172 N
ATOM      3  H2  UNL     1      33.407  15.099   9.416  1.00  0.00     0.186 HD
HETATM    4  C5  UNL     1      33.593  15.289  11.434  1.00  0.00     0.171 A
HETATM    5  C8  UNL     1      34.277  15.948  12.497  1.00  0.00     0.174 A
HETATM    6  N6  UNL     1      35.204  16.832  12.171  1.00  0.00    -0.204 N
HETATM    7  N13 UNL     1      35.457  17.066  10.904  1.00  0.00    -0.122 N
ATOM      8  H13 UNL     1      36.181  17.756  10.701  1.00  0.00     0.206 HD
ENDROOT
BRANCH   6   9
HETATM    9  C11 UNL     1      35.968  17.489  13.147  1.00  0.00     0.148 A
HETATM   10  N7  UNL     1      36.291  16.753  14.247  1.00  0.00    -0.336 N
HETATM   11  C12 UNL     1      37.035  17.293  15.200  1.00  0.00     0.183 A
ATOM     12  H7  UNL     1      35.961  15.793  14.337  1.00  0.00     0.168 HD
HETATM   13  N8  UNL     1      37.504  18.547  15.150  1.00  0.00    -0.337 N
HETATM   14  C13 UNL     1      37.208  19.303  14.084  1.00  0.00     0.139 A
ATOM     15  H8  UNL     1      38.075  18.920  15.909  1.00  0.00     0.168 HD
HETATM   16  N9  UNL     1      37.644  20.574  13.984  1.00  0.00    -0.175 N
HETATM   17  C20 UNL     1      36.429  18.776  13.060  1.00  0.00     0.099 A
HETATM   18  C14 UNL     1      37.386  21.391  12.960  1.00  0.00     0.683 A
ATOM     19  H9  UNL     1      38.214  20.938  14.746  1.00  0.00     0.186 HD
HETATM   20  N11 UNL     1      36.621  20.869  11.957  1.00  0.00    -0.176 N
HETATM   21  C19 UNL     1      36.145  19.613  11.978  1.00  0.00     0.132 A
ATOM     22  H11 UNL     1      36.400  21.460  11.156  1.00  0.00     0.186 HD
BRANCH  18  23
HETATM   23  N10 UNL     1      37.856  22.721  12.880  1.00  0.00    -0.218 N
BRANCH  23  24
HETATM   24  C15 UNL     1      39.242  23.043  12.998  1.00  0.00     0.136 C
HETATM   25  C16 UNL     1      39.496  24.477  13.435  1.00  0.00     0.027 C
ENDBRANCH  23  24
BRANCH  23  26
HETATM   26  C17 UNL     1      36.894  23.776  12.674  1.00  0.00     0.136 C
HETATM   27  C18 UNL     1      35.830  23.874  13.713  1.00  0.00     0.027 C
ENDBRANCH  23  26
ENDBRANCH  18  23
BRANCH  21  28
HETATM   28  N12 UNL     1      35.425  19.155  11.024  1.00  0.00    -0.384 N
ATOM     29 2H12 UNL     1      34.417  19.304  11.061  1.00  0.00     0.157 HD
ATOM     30 1H12 UNL     1      35.840  18.653  10.239  1.00  0.00     0.157 HD
ENDBRANCH  21  28
ENDBRANCH   6   9
BRANCH   5  31
HETATM   31  N4  UNL     1      33.925  15.603  13.615  1.00  0.00    -0.350 N
ATOM     32  H4  UNL     1      33.776  16.464  14.140  1.00  0.00     0.166 HD
BRANCH  31  33
HETATM   33  C9  UNL     1      33.640  14.582  14.478  1.00  0.00     0.089 C
BRANCH  33  34
HETATM   34  C10 UNL     1      32.225  14.600  15.062  1.00  0.00     0.274 C
BRANCH  34  35
HETATM   35  N5  UNL     1      32.291  14.229  16.467  1.00  0.00    -0.075 N
ATOM     36  H53 UNL     1      33.240  14.276  16.838  1.00  0.00     0.274 HD
ATOM     37  H52 UNL     1      31.867  14.930  17.075  1.00  0.00     0.274 HD
ATOM     38  H51 UNL     1      31.872  13.306  16.585  1.00  0.00     0.274 HD
ENDBRANCH  34  35
ENDBRANCH  33  34
ENDBRANCH  31  33
ENDBRANCH   5  31
BRANCH   4  39
HETATM   39  N3  UNL     1      32.677  14.419  11.683  1.00  0.00    -0.285 N
HETATM   40  C6  UNL     1      32.791  13.100  11.172  1.00  0.00     0.365 C
HETATM   41  O1  UNL     1      33.508  12.270  11.809  1.00  0.00    -0.238 OA
ATOM     42  H3  UNL     1      31.869  14.678  12.248  1.00  0.00     0.172 HD
BRANCH  40  43
HETATM   43  O2  UNL     1      32.160  12.681  10.018  1.00  0.00    -0.309 OA
HETATM   44  C7  UNL     1      32.603  13.151   8.745  1.00  0.00     0.215 C
ENDBRANCH  40  43
ENDBRANCH   4  39
BRANCH   1  45
HETATM   45  N1  UNL     1      35.109  16.717   8.622  1.00  0.00    -0.225 N
ATOM     46  H1  UNL     1      34.388  17.237   8.122  1.00  0.00     0.177 HD
BRANCH  45  47
HETATM   47  C3  UNL     1      36.237  16.351   7.849  1.00  0.00     0.138 C
BRANCH  47  48
HETATM   48  C2  UNL     1      37.505  16.177   8.680  1.00  0.00     0.016 C
HETATM   49  C1  UNL     1      37.363  14.935   9.520  1.00  0.00     0.006 C
ENDBRANCH  47  48
ENDBRANCH  45  47
ENDBRANCH   1  45
TORSDOF 14
ENDMDL