MODEL 5
REMARK VINA RESULT: -2.794231341      1.468      3.364
REMARK  10 active torsions:
REMARK  status: ('A' for Active; 'I' for Inactive)
REMARK    1  A    between atoms: N1_1  and  C1_4
REMARK    2  A    between atoms: C2_10  and  N4_11
REMARK    3  A    between atoms: C3_12  and  S1_13
REMARK    4  A    between atoms: S1_13  and  C4_14
REMARK    5  A    between atoms: C4_14  and  C5_15
REMARK    6  A    between atoms: C7_21  and  C8_22
REMARK       I    between atoms: C8_22  and  N7_24
REMARK    7  A    between atoms: N7_24  and  C9_26
REMARK    8  A    between atoms: C9_26  and  C10_27
REMARK    9  A    between atoms: C10_27  and  N8_28
REMARK   10  A    between atoms: C20_40  and  N10_41
ROOT
HETATM    1  N4  UNL     1      40.714  24.658  12.510  1.00  0.00    -0.257 N
HETATM    2  C3  UNL     1      40.131  25.782  12.069  1.00  0.00     0.154 A
HETATM    3  N6  UNL     1      38.767  25.906  12.073  1.00  0.00    -0.345 N
ATOM      4  H6  UNL     1      38.348  26.771  11.731  1.00  0.00     0.167 HD
HETATM    5  C6  UNL     1      37.971  24.933  12.510  1.00  0.00     0.111 A
HETATM    6  C7  UNL     1      38.551  23.764  12.969  1.00  0.00     0.091 A
HETATM    7  C20 UNL     1      39.909  23.648  12.962  1.00  0.00     0.126 A
ENDROOT
BRANCH   6   8
HETATM    8  C8  UNL     1      37.657  22.722  13.449  1.00  0.00     0.256 C
HETATM    9  O3  UNL     1      37.174  22.844  14.620  1.00  0.00    -0.267 OA
HETATM   10  N7  UNL     1      37.342  21.602  12.622  1.00  0.00    -0.354 N
ATOM     11  H7  UNL     1      37.729  21.506  11.683  1.00  0.00     0.162 HD
BRANCH  10  12
HETATM   12  C9  UNL     1      36.447  20.610  13.179  1.00  0.00     0.154 C
BRANCH  12  13
HETATM   13  C10 UNL     1      36.724  19.268  12.518  1.00  0.00     0.050 C
HETATM   14  C16 UNL     1      36.411  18.133  13.512  1.00  0.00     0.052 C
HETATM   15  C17 UNL     1      37.022  18.479  14.870  1.00  0.00     0.116 C
HETATM   16  N9  UNL     1      38.416  18.668  14.762  1.00  0.00    -0.421 N
HETATM   17  C18 UNL     1      38.922  19.444  13.694  1.00  0.00     0.116 C
ATOM     18  H9  UNL     1      39.049  18.251  15.444  1.00  0.00     0.153 HD
HETATM   19  C19 UNL     1      38.229  19.192  12.371  1.00  0.00     0.052 C
BRANCH  13  20
HETATM   20  N8  UNL     1      36.060  19.165  11.313  1.00  0.00    -0.382 N
HETATM   21  C11 UNL     1      34.672  19.010  11.259  1.00  0.00     0.059 C
HETATM   22  C12 UNL     1      34.166  17.629  10.882  1.00  0.00     0.044 C
HETATM   23  C13 UNL     1      34.994  17.116   9.744  1.00  0.00     0.007 C
HETATM   24  C14 UNL     1      35.798  18.218   9.073  1.00  0.00     0.020 C
HETATM   25  C15 UNL     1      36.710  18.900  10.107  1.00  0.00     0.123 C
ENDBRANCH  13  20
ENDBRANCH  12  13
ENDBRANCH  10  12
ENDBRANCH   6   8
BRANCH   7  26
HETATM   26  N10 UNL     1      40.496  22.608  13.367  1.00  0.00    -0.384 N
ATOM     27 2H10 UNL     1      40.473  22.318  14.344  1.00  0.00     0.157 HD
ATOM     28 1H10 UNL     1      40.997  22.070  12.659  1.00  0.00     0.157 HD
ENDBRANCH   7  26
BRANCH   1  29
HETATM   29  C2  UNL     1      42.123  24.491  12.511  1.00  0.00     0.183 A
HETATM   30  C1  UNL     1      42.980  25.116  13.379  1.00  0.00     0.168 A
HETATM   31  N2  UNL     1      44.214  24.691  13.042  1.00  0.00    -0.222 N
HETATM   32  O1  UNL     1      44.096  23.869  12.042  1.00  0.00    -0.153 OA
ATOM     33  H2  UNL     1      45.087  24.966  13.493  1.00  0.00     0.198 HD
HETATM   34  N3  UNL     1      42.865  23.711  11.683  1.00  0.00    -0.221 N
ATOM     35  H3  UNL     1      42.520  23.119  10.927  1.00  0.00     0.198 HD
BRANCH  30  36
HETATM   36  N1  UNL     1      42.695  25.956  14.343  1.00  0.00    -0.381 N
ATOM     37  H12 UNL     1      43.071  25.986  15.291  1.00  0.00     0.157 HD
ATOM     38  H11 UNL     1      42.032  26.730  14.285  1.00  0.00     0.157 HD
ENDBRANCH  30  36
ENDBRANCH   1  29
BRANCH   2  39
HETATM   39  S1  UNL     1      41.091  27.148  11.459  1.00  0.00    -0.084 SA
BRANCH  39  40
HETATM   40  C4  UNL     1      40.038  28.483  10.815  1.00  0.00     0.181 C
BRANCH  40  41
HETATM   41  C5  UNL     1      39.532  29.328  11.925  1.00  0.00     0.240 C
HETATM   42  N5  UNL     1      40.396  30.267  12.525  1.00  0.00    -0.061 NA
HETATM   43  O2  UNL     1      38.359  29.223  12.342  1.00  0.00    -0.276 OA
ENDBRANCH  40  41
ENDBRANCH  39  40
ENDBRANCH   2  39
TORSDOF 10
ENDMDL