MODEL 3
REMARK VINA RESULT: -4.584489751      0.977      1.156
REMARK  9 active torsions:
REMARK  status: ('A' for Active; 'I' for Inactive)
REMARK    1  A    between atoms: C2_2  and  N1_3
REMARK    2  A    between atoms: N1_3  and  C4_5
REMARK    3  A    between atoms: C4_5  and  C5_6
REMARK    4  A    between atoms: C4_5  and  C6_15
REMARK    5  A    between atoms: C8_19  and  N7_20
REMARK    6  A    between atoms: N7_20  and  C9_22
REMARK    7  A    between atoms: C9_22  and  C10_23
REMARK    8  A    between atoms: C13_31  and  N11_32
REMARK    9  A    between atoms: N11_32  and  C14_34
ROOT
HETATM    1  C6  UNL     1      34.711  15.923  13.419  1.00  0.00     0.133 A
HETATM    2  N6  UNL     1      34.871  16.656  12.299  1.00  0.00    -0.336 N
ATOM      3  H6  UNL     1      34.363  16.359  11.466  1.00  0.00     0.168 HD
HETATM    4  C7  UNL     1      35.638  17.738  12.196  1.00  0.00     0.110 A
HETATM    5  C8  UNL     1      35.705  18.396  10.986  1.00  0.00     0.146 A
HETATM    6  N10 UNL     1      36.485  19.478  10.931  1.00  0.00    -0.175 N
ATOM      7  H10 UNL     1      36.568  19.999  10.059  1.00  0.00     0.186 HD
HETATM    8  C13 UNL     1      37.175  19.891  12.038  1.00  0.00     0.680 A
HETATM    9  N12 UNL     1      37.107  19.252  13.214  1.00  0.00    -0.186 N
ATOM     10  H12 UNL     1      37.634  19.590  14.019  1.00  0.00     0.184 HD
HETATM   11  C19 UNL     1      36.337  18.161  13.314  1.00  0.00     0.123 A
HETATM   12  C20 UNL     1      36.204  17.452  14.462  1.00  0.00     0.130 A
HETATM   13  N13 UNL     1      36.811  17.772  15.541  1.00  0.00    -0.384 N
ATOM     14 1H13 UNL     1      36.711  17.239  16.405  1.00  0.00     0.157 HD
ATOM     15 2H13 UNL     1      37.416  18.593  15.527  1.00  0.00     0.157 HD
HETATM   16  N14 UNL     1      35.391  16.349  14.482  1.00  0.00    -0.325 N
ATOM     17  H14 UNL     1      35.303  15.829  15.354  1.00  0.00     0.169 HD
ENDROOT
BRANCH   1  18
HETATM   18  C4  UNL     1      33.835  14.687  13.452  1.00  0.00     0.102 C
BRANCH  18  19
HETATM   19  N1  UNL     1      33.073  14.523  12.249  1.00  0.00    -0.282 NA
HETATM   20  C3  UNL     1      32.302  13.255  12.488  1.00  0.00     0.117 C
BRANCH  19  21
HETATM   21  C2  UNL     1      33.742  14.418  11.009  1.00  0.00     0.091 C
HETATM   22  C1  UNL     1      33.089  13.538   9.979  1.00  0.00     0.021 C
ENDBRANCH  19  21
ENDBRANCH  18  19
BRANCH  18  23
HETATM   23  C5  UNL     1      33.209  14.502  14.742  1.00  0.00     0.162 A
HETATM   24  N2  UNL     1      31.999  14.947  15.167  1.00  0.00    -0.267 N
HETATM   25  N3  UNL     1      31.720  14.560  16.376  1.00  0.00    -0.227 N
ATOM     26  H2  UNL     1      31.377  15.524  14.599  1.00  0.00     0.190 HD
HETATM   27  N4  UNL     1      32.760  13.832  16.793  1.00  0.00    -0.227 N
ATOM     28  H3  UNL     1      30.873  14.770  16.903  1.00  0.00     0.210 HD
HETATM   29  N5  UNL     1      33.649  13.795  15.824  1.00  0.00    -0.267 N
ATOM     30  H4  UNL     1      32.849  13.384  17.705  1.00  0.00     0.210 HD
ATOM     31  H5  UNL     1      34.542  13.306  15.874  1.00  0.00     0.190 HD
ENDBRANCH  18  23
ENDBRANCH   1  18
BRANCH   5  32
HETATM   32  N7  UNL     1      35.046  17.990   9.975  1.00  0.00    -0.372 N
ATOM     33  H7  UNL     1      34.116  17.616  10.158  1.00  0.00     0.161 HD
BRANCH  32  34
HETATM   34  C9  UNL     1      35.475  18.004   8.603  1.00  0.00     0.144 C
BRANCH  34  35
HETATM   35  C10 UNL     1      36.378  16.796   8.390  1.00  0.00     0.121 C
HETATM   36  C11 UNL     1      35.618  15.514   8.655  1.00  0.00     0.070 C
HETATM   37  C12 UNL     1      36.561  14.738   9.501  1.00  0.00     0.078 C
HETATM   38  N8  UNL     1      37.522  15.498   9.883  1.00  0.00    -0.319 N
HETATM   39  N9  UNL     1      37.400  16.798   9.403  1.00  0.00    -0.135 NA
ATOM     40  H8  UNL     1      38.291  15.184  10.475  1.00  0.00     0.181 HD
ENDBRANCH  34  35
ENDBRANCH  32  34
ENDBRANCH   5  32
BRANCH   8  41
HETATM   41  N11 UNL     1      37.926  20.932  11.956  1.00  0.00    -0.221 N
ATOM     42  H11 UNL     1      38.925  20.780  11.820  1.00  0.00     0.178 HD
BRANCH  41  43
HETATM   43  C14 UNL     1      37.473  22.286  12.040  1.00  0.00     0.103 C
HETATM   44  C15 UNL     1      36.600  22.440  13.282  1.00  0.00     0.052 C
HETATM   45  C16 UNL     1      37.474  22.601  14.503  1.00  0.00     0.169 C
HETATM   46  O1  UNL     1      38.120  23.836  14.507  1.00  0.00    -0.391 OA
HETATM   47  C17 UNL     1      38.271  24.328  13.212  1.00  0.00     0.169 C
HETATM   48  C18 UNL     1      38.645  23.236  12.239  1.00  0.00     0.052 C
ENDBRANCH  41  43
ENDBRANCH   8  41
TORSDOF 9
ENDMDL