MODEL 2
REMARK VINA RESULT: 2.299834446      3.976     12.208
REMARK  14 active torsions:
REMARK  status: ('A' for Active; 'I' for Inactive)
REMARK    1  A    between atoms: C2_2  and  C4_4
REMARK    2  A    between atoms: C2_2  and  N9_37
REMARK    3  A    between atoms: C4_4  and  C5_5
REMARK    4  A    between atoms: C5_5  and  C6_6
REMARK    5  A    between atoms: N2_10  and  C8_12
REMARK    6  A    between atoms: C8_12  and  C9_13
REMARK    7  A    between atoms: C8_12  and  C10_16
REMARK    8  A    between atoms: C9_13  and  O1_14
REMARK    9  A    between atoms: C10_16  and  O2_17
REMARK   10  A    between atoms: C14_25  and  N5_26
REMARK       I    between atoms: N9_37  and  C20_39
REMARK   11  A    between atoms: C20_39  and  C21_41
REMARK   12  A    between atoms: C21_41  and  C22_42
REMARK   13  A    between atoms: C22_42  and  C23_43
REMARK   14  A    between atoms: C23_43  and  N10_44
ROOT
HETATM    1  C6  UNL     1      34.819  16.262  12.843  1.00  0.00     0.103 A
HETATM    2  N1  UNL     1      34.402  15.549  13.948  1.00  0.00    -0.334 N
ATOM      3  H1  UNL     1      34.744  15.838  14.866  1.00  0.00     0.168 HD
HETATM    4  C7  UNL     1      33.579  14.505  13.883  1.00  0.00     0.126 A
HETATM    5  N2  UNL     1      33.177  13.828  14.890  1.00  0.00    -0.366 N
ATOM      6  H2  UNL     1      32.546  13.052  14.692  1.00  0.00     0.161 HD
HETATM    7  C11 UNL     1      33.141  14.146  12.632  1.00  0.00     0.116 A
HETATM    8  C12 UNL     1      32.246  13.026  12.473  1.00  0.00     0.105 C
HETATM    9  N3  UNL     1      31.517  12.132  12.354  1.00  0.00    -0.191 NA
HETATM   10  C13 UNL     1      33.513  14.811  11.467  1.00  0.00     0.073 A
HETATM   11  N4  UNL     1      33.071  14.437  10.278  1.00  0.00    -0.340 N
ATOM     12  H4  UNL     1      32.439  13.642  10.196  1.00  0.00     0.167 HD
HETATM   13  C14 UNL     1      33.455  15.106   9.178  1.00  0.00     0.115 A
HETATM   14  C17 UNL     1      34.305  16.183   9.251  1.00  0.00     0.076 A
HETATM   15  C18 UNL     1      34.800  16.615  10.501  1.00  0.00     0.065 A
HETATM   16  N8  UNL     1      35.666  17.726  10.498  1.00  0.00    -0.101 NA
HETATM   17  C19 UNL     1      34.387  15.909  11.598  1.00  0.00     0.052 A
ENDROOT
BRANCH   5  18
HETATM   18  C8  UNL     1      33.513  14.038  16.255  1.00  0.00     0.130 C
BRANCH  18  19
HETATM   19  C9  UNL     1      32.300  14.698  16.926  1.00  0.00     0.191 C
BRANCH  19  20
HETATM   20  O1  UNL     1      31.241  14.804  16.051  1.00  0.00    -0.399 OA
ATOM     21  H1  UNL     1      30.847  15.668  16.089  1.00  0.00     0.209 HD
ENDBRANCH  19  20
ENDBRANCH  18  19
BRANCH  18  22
HETATM   22  C10 UNL     1      33.618  12.655  16.913  1.00  0.00     0.191 C
BRANCH  22  23
HETATM   23  O2  UNL     1      32.292  12.199  17.084  1.00  0.00    -0.399 OA
ATOM     24  H2  UNL     1      31.735  12.964  16.990  1.00  0.00     0.209 HD
ENDBRANCH  22  23
ENDBRANCH  18  22
ENDBRANCH   5  18
BRANCH   1  25
HETATM   25  C5  UNL     1      35.713  17.368  13.078  1.00  0.00    -0.045 C
BRANCH  25  26
HETATM   26  C4  UNL     1      36.529  18.273  13.271  1.00  0.00    -0.069 C
BRANCH  26  27
HETATM   27  C2  UNL     1      37.514  19.334  13.485  1.00  0.00     0.089 C
HETATM   28  C1  UNL     1      38.536  19.365  12.355  1.00  0.00     0.053 C
HETATM   29  C3  UNL     1      38.284  18.953  14.735  1.00  0.00     0.053 C
BRANCH  27  30
HETATM   30  N9  UNL     1      36.895  20.617  13.587  1.00  0.00    -0.342 N
HETATM   31  C20 UNL     1      37.485  21.824  13.109  1.00  0.00     0.218 C
HETATM   32  O3  UNL     1      38.612  21.709  12.575  1.00  0.00    -0.274 OA
ATOM     33  H9  UNL     1      35.977  20.673  14.028  1.00  0.00     0.164 HD
BRANCH  31  34
HETATM   34  C21 UNL     1      36.853  23.133  13.214  1.00  0.00     0.104 C
BRANCH  34  35
HETATM   35  C22 UNL     1      37.692  24.311  12.862  1.00  0.00     0.036 C
BRANCH  35  36
HETATM   36  C23 UNL     1      38.893  24.532  13.722  1.00  0.00     0.230 C
BRANCH  36  37
HETATM   37  N10 UNL     1      39.840  25.457  13.110  1.00  0.00    -0.079 N
ATOM     38 3H10 UNL     1      39.371  26.295  12.767  1.00  0.00     0.274 HD
ATOM     39 2H10 UNL     1      40.444  25.887  13.812  1.00  0.00     0.274 HD
ATOM     40 1H10 UNL     1      40.387  25.012  12.374  1.00  0.00     0.274 HD
ENDBRANCH  36  37
ENDBRANCH  35  36
ENDBRANCH  34  35
ENDBRANCH  31  34
ENDBRANCH  27  30
ENDBRANCH  26  27
ENDBRANCH  25  26
ENDBRANCH   1  25
BRANCH  13  41
HETATM   41  N5  UNL     1      32.988  14.716   7.894  1.00  0.00    -0.287 N
HETATM   42  C15 UNL     1      32.628  15.556   6.915  1.00  0.00     0.207 A
HETATM   43  N6  UNL     1      32.243  14.823   5.857  1.00  0.00    -0.295 N
HETATM   44  N7  UNL     1      32.350  13.534   6.139  1.00  0.00    -0.295 N
ATOM     45  H6  UNL     1      31.917  15.204   4.968  1.00  0.00     0.187 HD
HETATM   46  C16 UNL     1      32.810  13.478   7.398  1.00  0.00     0.207 A
ATOM     47  H7  UNL     1      32.129  12.748   5.527  1.00  0.00     0.187 HD
ENDBRANCH  13  41
TORSDOF 14
ENDMDL