MODEL 2
REMARK VINA RESULT: -7.752485018      1.191      1.529
REMARK  11 active torsions:
REMARK  status: ('A' for Active; 'I' for Inactive)
REMARK    1  A    between atoms: N1_1  and  N2_4
REMARK    2  A    between atoms: N2_4  and  C1_5
REMARK    3  A    between atoms: C1_5  and  C2_6
REMARK    4  A    between atoms: C2_6  and  C10_23
REMARK    5  A    between atoms: N3_7  and  C3_9
REMARK    6  A    between atoms: C5_13  and  C6_14
REMARK    7  A    between atoms: C6_14  and  C7_15
REMARK    8  A    between atoms: C7_15  and  C8_16
REMARK    9  A    between atoms: C8_16  and  N5_17
REMARK       I    between atoms: N5_17  and  C9_18
REMARK   10  A    between atoms: C10_23  and  C11_25
REMARK   11  A    between atoms: C11_25  and  C12_26
ROOT
HETATM    1  C2  UNL     1      15.690  -7.321  20.164  1.00  0.00     0.085 C
HETATM    2  N3  UNL     1      15.757  -6.132  20.806  1.00  0.00    -0.364 N
ATOM      3  H3  UNL     1      15.114  -6.095  21.597  1.00  0.00     0.162 HD
ENDROOT
BRANCH   2   4
HETATM    4  C3  UNL     1      16.455  -4.974  20.673  1.00  0.00     0.200 C
HETATM    5  C4  UNL     1      15.706  -3.728  20.377  1.00  0.00     0.167 C
HETATM    6  N4  UNL     1      15.596  -3.093  21.699  1.00  0.00    -0.376 N
HETATM    7  C5  UNL     1      16.447  -3.607  22.514  1.00  0.00     0.074 C
ATOM      8  H4  UNL     1      14.938  -2.350  21.936  1.00  0.00     0.160 HD
HETATM    9  N8  UNL     1      17.217  -4.603  21.886  1.00  0.00    -0.357 N
ATOM     10  H8  UNL     1      18.109  -4.986  22.200  1.00  0.00     0.163 HD
BRANCH   7  11
HETATM   11  C6  UNL     1      16.546  -3.131  23.948  1.00  0.00     0.082 C
BRANCH  11  12
HETATM   12  C7  UNL     1      16.769  -1.643  23.933  1.00  0.00     0.067 C
BRANCH  12  13
HETATM   13  C8  UNL     1      15.608  -0.909  24.599  1.00  0.00     0.158 C
BRANCH  13  14
HETATM   14  N5  UNL     1      14.505  -0.813  23.844  1.00  0.00    -0.393 NA
HETATM   15  C9  UNL     1      13.532  -0.732  23.211  1.00  0.00     0.274 C
HETATM   16  N6  UNL     1      13.569  -0.570  21.759  1.00  0.00    -0.052 NA
HETATM   17  N7  UNL     1      12.159  -0.767  23.708  1.00  0.00    -0.052 NA
ENDBRANCH  13  14
ENDBRANCH  12  13
ENDBRANCH  11  12
ENDBRANCH   7  11
ENDBRANCH   2   4
BRANCH   1  18
HETATM   18  C1  UNL     1      16.932  -8.190  20.167  1.00  0.00     0.239 C
BRANCH  18  19
HETATM   19  N2  UNL     1      17.332  -8.745  21.204  1.00  0.00    -0.343 NA
BRANCH  19  20
HETATM   20  N1  UNL     1      17.630  -9.055  22.382  1.00  0.00    -0.281 N
ATOM     21  H12 UNL     1      17.638  -8.079  22.679  1.00  0.00     0.191 HD
ATOM     22  H11 UNL     1      17.867  -9.534  23.250  1.00  0.00     0.191 HD
ENDBRANCH  19  20
ENDBRANCH  18  19
ENDBRANCH   1  18
BRANCH   1  23
HETATM   23  C10 UNL     1      14.866  -7.573  18.977  1.00  0.00     0.078 C
HETATM   24  N9  UNL     1      14.467  -6.453  18.192  1.00  0.00    -0.100 NA
BRANCH  23  25
HETATM   25  C11 UNL     1      14.894  -8.890  18.317  1.00  0.00     0.073 C
BRANCH  25  26
HETATM   26  C12 UNL     1      15.324  -9.062  16.942  1.00  0.00     0.111 C
HETATM   27  N10 UNL     1      16.407  -8.644  16.454  1.00  0.00    -0.388 N
ATOM     28 2H10 UNL     1      16.993  -8.151  17.129  1.00  0.00     0.157 HD
ATOM     29 1H10 UNL     1      16.710  -8.765  15.488  1.00  0.00     0.157 HD
HETATM   30  N11 UNL     1      14.488  -9.763  15.981  1.00  0.00    -0.083 NA
ENDBRANCH  25  26
ENDBRANCH  23  25
ENDBRANCH   1  23
TORSDOF 11
ENDMDL