MODEL 2
REMARK VINA RESULT: -6.529770230      4.106      6.541
REMARK  11 active torsions:
REMARK  status: ('A' for Active; 'I' for Inactive)
REMARK       I    between atoms: C1_2  and  N3_15
REMARK    1  A    between atoms: N2_3  and  C2_5
REMARK    2  A    between atoms: C2_5  and  C3_6
REMARK    3  A    between atoms: C3_6  and  O1_7
REMARK    4  A    between atoms: O1_7  and  C4_8
REMARK    5  A    between atoms: C4_8  and  C5_9
REMARK    6  A    between atoms: C5_9  and  O2_10
REMARK    7  A    between atoms: O2_10  and  C6_11
REMARK    8  A    between atoms: C6_11  and  C7_12
REMARK    9  A    between atoms: C7_12  and  O3_13
REMARK       I    between atoms: C8_17  and  N5_19
REMARK   10  A    between atoms: N5_19  and  C9_21
REMARK   11  A    between atoms: C12_27  and  N7_28
ROOT
HETATM    1  N1  UNL     1      16.896  -8.616  21.260  1.00  0.00    -0.063 NA
HETATM    2  C1  UNL     1      15.962  -7.969  20.409  1.00  0.00     0.190 C
HETATM    3  N2  UNL     1      15.452  -8.585  19.393  1.00  0.00    -0.362 N
ATOM      4  H2  UNL     1      15.728  -9.549  19.204  1.00  0.00     0.162 HD
HETATM    5  N3  UNL     1      15.569  -6.628  20.663  1.00  0.00    -0.305 N
ATOM      6  H3  UNL     1      14.645  -6.413  21.037  1.00  0.00     0.171 HD
HETATM    7  C8  UNL     1      16.413  -5.691  20.407  1.00  0.00     0.192 C
HETATM    8  N4  UNL     1      17.707  -5.939  19.885  1.00  0.00    -0.063 NA
HETATM    9  N5  UNL     1      16.027  -4.351  20.659  1.00  0.00    -0.335 N
ATOM     10  H5  UNL     1      15.292  -3.905  20.109  1.00  0.00     0.164 HD
ENDROOT
BRANCH   3  11
HETATM   11  C2  UNL     1      14.509  -7.948  18.526  1.00  0.00     0.148 C
BRANCH  11  12
HETATM   12  C3  UNL     1      15.147  -7.591  17.184  1.00  0.00     0.187 C
BRANCH  12  13
HETATM   13  O1  UNL     1      14.577  -8.386  16.249  1.00  0.00    -0.387 OA
BRANCH  13  14
HETATM   14  C4  UNL     1      14.831  -9.749  16.327  1.00  0.00     0.193 C
BRANCH  14  15
HETATM   15  C5  UNL     1      16.261 -10.127  16.022  1.00  0.00     0.193 C
BRANCH  15  16
HETATM   16  O2  UNL     1      17.116 -10.222  16.954  1.00  0.00    -0.387 OA
BRANCH  16  17
HETATM   17  C6  UNL     1      17.920 -10.814  17.715  1.00  0.00     0.193 C
BRANCH  17  18
HETATM   18  C7  UNL     1      18.746 -10.045  18.706  1.00  0.00     0.190 C
BRANCH  18  19
HETATM   19  O3  UNL     1      18.538  -8.710  18.620  1.00  0.00    -0.399 OA
ATOM     20  H3  UNL     1      18.390  -8.426  17.726  1.00  0.00     0.209 HD
ENDBRANCH  18  19
ENDBRANCH  17  18
ENDBRANCH  16  17
ENDBRANCH  15  16
ENDBRANCH  14  15
ENDBRANCH  13  14
ENDBRANCH  12  13
ENDBRANCH  11  12
ENDBRANCH   3  11
BRANCH   9  21
HETATM   21  C9  UNL     1      16.696  -3.639  21.706  1.00  0.00     0.316 C
HETATM   22  N6  UNL     1      17.231  -4.540  22.737  1.00  0.00    -0.052 N
HETATM   23  C10 UNL     1      17.668  -3.579  23.731  1.00  0.00     0.237 C
ATOM     24  H62 UNL     1      16.588  -5.259  23.070  1.00  0.00     0.279 HD
ATOM     25  H61 UNL     1      17.940  -5.200  22.419  1.00  0.00     0.279 HD
HETATM   26  C11 UNL     1      16.441  -2.707  23.889  1.00  0.00     0.064 C
HETATM   27  C12 UNL     1      15.752  -2.796  22.534  1.00  0.00     0.235 C
BRANCH  27  28
HETATM   28  N7  UNL     1      14.502  -3.557  22.669  1.00  0.00    -0.071 N
ATOM     29  H73 UNL     1      14.162  -3.599  23.629  1.00  0.00     0.274 HD
ATOM     30  H72 UNL     1      13.696  -3.078  22.266  1.00  0.00     0.274 HD
ATOM     31  H71 UNL     1      14.666  -4.477  22.262  1.00  0.00     0.274 HD
ENDBRANCH  27  28
ENDBRANCH   9  21
TORSDOF 11
ENDMDL