MODEL 4
REMARK VINA RESULT: -7.185002703      1.720      3.072
REMARK  12 active torsions:
REMARK  status: ('A' for Active; 'I' for Inactive)
REMARK       I    between atoms: N1_2  and  C3_4
REMARK       I    between atoms: C3_4  and  N3_6
REMARK    1  A    between atoms: N3_6  and  C4_8
REMARK    2  A    between atoms: C4_8  and  C5_9
REMARK    3  A    between atoms: C5_9  and  C6_10
REMARK    4  A    between atoms: C6_10  and  N4_11
REMARK    5  A    between atoms: N4_11  and  C7_13
REMARK    6  A    between atoms: C8_18  and  N7_19
REMARK    7  A    between atoms: N7_19  and  C9_21
REMARK    8  A    between atoms: C9_21  and  C10_22
REMARK    9  A    between atoms: C10_22  and  N8_23
REMARK   10  A    between atoms: N8_23  and  C11_25
REMARK   11  A    between atoms: C11_25  and  C12_26
REMARK   12  A    between atoms: C12_26  and  O1_27
ROOT
HETATM    1  C7  UNL     1      17.052  -6.115  20.464  1.00  0.00     0.707 A
HETATM    2  N5  UNL     1      17.699  -5.612  21.557  1.00  0.00    -0.117 N
ATOM      3  H5  UNL     1      18.466  -6.068  22.051  1.00  0.00     0.206 HD
HETATM    4  N6  UNL     1      17.173  -4.447  21.870  1.00  0.00    -0.117 N
ATOM      5  H6  UNL     1      17.471  -3.857  22.646  1.00  0.00     0.206 HD
HETATM    6  C8  UNL     1      16.170  -4.153  20.999  1.00  0.00     0.707 A
HETATM    7  N9  UNL     1      16.129  -5.194  20.159  1.00  0.00    -0.020 N
ATOM      8  H9  UNL     1      15.476  -5.276  19.380  1.00  0.00     0.203 HD
ENDROOT
BRANCH   1   9
HETATM    9  N4  UNL     1      17.298  -7.233  19.894  1.00  0.00    -0.224 N
ATOM     10  H4  UNL     1      17.809  -7.174  19.013  1.00  0.00     0.177 HD
BRANCH   9  11
HETATM   11  C6  UNL     1      16.957  -8.541  20.318  1.00  0.00     0.139 C
BRANCH  11  12
HETATM   12  C5  UNL     1      17.769  -9.508  19.445  1.00  0.00     0.040 C
BRANCH  12  13
HETATM   13  C4  UNL     1      16.928 -10.287  18.498  1.00  0.00     0.124 C
BRANCH  13  14
HETATM   14  N3  UNL     1      16.682  -9.725  17.228  1.00  0.00    -0.364 N
HETATM   15  C3  UNL     1      15.714  -9.070  16.761  1.00  0.00     0.185 C
HETATM   16  N1  UNL     1      14.566  -8.730  17.489  1.00  0.00    -0.364 N
HETATM   17  N2  UNL     1      15.800  -8.651  15.390  1.00  0.00    -0.064 NA
HETATM   18  C1  UNL     1      14.308  -7.330  17.863  1.00  0.00     0.151 C
HETATM   19  C2  UNL     1      13.609  -9.727  17.882  1.00  0.00     0.151 C
ATOM     20  H3  UNL     1      17.436  -9.880  16.558  1.00  0.00     0.162 HD
ENDBRANCH  13  14
ENDBRANCH  12  13
ENDBRANCH  11  12
ENDBRANCH   9  11
ENDBRANCH   1   9
BRANCH   6  21
HETATM   21  N7  UNL     1      15.430  -3.095  20.996  1.00  0.00    -0.223 N
ATOM     22  H7  UNL     1      14.892  -2.879  20.156  1.00  0.00     0.177 HD
BRANCH  21  23
HETATM   23  C9  UNL     1      15.330  -2.215  22.115  1.00  0.00     0.157 C
BRANCH  23  24
HETATM   24  C10 UNL     1      14.301  -1.134  21.769  1.00  0.00     0.134 C
BRANCH  24  25
HETATM   25  N8  UNL     1      13.184  -1.354  22.638  1.00  0.00    -0.418 N
ATOM     26  H8  UNL     1      12.738  -2.267  22.730  1.00  0.00     0.153 HD
BRANCH  25  27
HETATM   27  C11 UNL     1      12.734  -0.210  23.365  1.00  0.00     0.139 C
BRANCH  27  28
HETATM   28  C12 UNL     1      11.278  -0.244  23.755  1.00  0.00     0.183 C
BRANCH  28  29
HETATM   29  O1  UNL     1      10.929  -1.614  23.791  1.00  0.00    -0.399 OA
ATOM     30  H1  UNL     1      10.228  -1.681  24.429  1.00  0.00     0.209 HD
ENDBRANCH  28  29
ENDBRANCH  27  28
ENDBRANCH  25  27
ENDBRANCH  24  25
ENDBRANCH  23  24
ENDBRANCH  21  23
ENDBRANCH   6  21
TORSDOF 12
ENDMDL