MODEL 1
REMARK VINA RESULT: -6.827228281      0.000      0.000
REMARK  14 active torsions:
REMARK  status: ('A' for Active; 'I' for Inactive)
REMARK    1  A    between atoms: O1_1  and  C1_3
REMARK    2  A    between atoms: C1_3  and  C2_4
REMARK    3  A    between atoms: C2_4  and  O2_5
REMARK    4  A    between atoms: C2_4  and  C3_7
REMARK    5  A    between atoms: C3_7  and  O3_8
REMARK    6  A    between atoms: C3_7  and  C4_10
REMARK    7  A    between atoms: S1_13  and  C7_14
REMARK    8  A    between atoms: C7_14  and  C8_15
REMARK    9  A    between atoms: C8_15  and  O4_16
REMARK   10  A    between atoms: C8_15  and  C9_18
REMARK   11  A    between atoms: C9_18  and  O5_19
REMARK   12  A    between atoms: C9_18  and  N1_21
REMARK   13  A    between atoms: N1_21  and  C10_23
REMARK   14  A    between atoms: C10_23  and  C11_24
ROOT
HETATM    1  C4  UNL     1      16.113  -8.402  17.407  1.00  0.00     0.069 C
HETATM    2  C5  UNL     1      16.719  -9.735  17.536  1.00  0.00     0.026 C
HETATM    3  C6  UNL     1      17.850  -9.033  18.348  1.00  0.00     0.065 C
HETATM    4  S1  UNL     1      16.488  -8.123  19.119  1.00  0.00    -0.210 SA
ENDROOT
BRANCH   4   5
HETATM    5  C7  UNL     1      17.079  -6.482  19.471  1.00  0.00     0.100 C
BRANCH   5   6
HETATM    6  C8  UNL     1      16.356  -6.042  20.751  1.00  0.00     0.175 C
BRANCH   6   7
HETATM    7  O4  UNL     1      15.135  -6.681  20.836  1.00  0.00    -0.390 OA
ATOM      8  H4  UNL     1      15.085  -7.164  21.653  1.00  0.00     0.210 HD
ENDBRANCH   6   7
BRANCH   6   9
HETATM    9  C9  UNL     1      16.186  -4.564  20.811  1.00  0.00     0.246 C
BRANCH   9  10
HETATM   10  O5  UNL     1      15.593  -4.139  19.613  1.00  0.00    -0.374 OA
ATOM     11  H5  UNL     1      15.823  -3.228  19.472  1.00  0.00     0.212 HD
ENDBRANCH   9  10
BRANCH   9  12
HETATM   12  N1  UNL     1      15.576  -4.047  21.959  1.00  0.00    -0.374 N
ATOM     13  H1  UNL     1      15.059  -4.681  22.570  1.00  0.00     0.161 HD
BRANCH  12  14
HETATM   14  C10 UNL     1      15.648  -2.690  22.300  1.00  0.00     0.062 C
BRANCH  14  15
HETATM   15  C11 UNL     1      14.368  -2.074  22.800  1.00  0.00     0.024 A
HETATM   16  C12 UNL     1      14.067  -0.733  22.108  1.00  0.00     0.010 A
HETATM   17  C13 UNL     1      14.289  -0.841  23.580  1.00  0.00     0.010 A
ENDBRANCH  14  15
ENDBRANCH  12  14
ENDBRANCH   9  12
ENDBRANCH   6   9
ENDBRANCH   5   6
ENDBRANCH   4   5
BRANCH   1  18
HETATM   18  C3  UNL     1      14.779  -8.121  16.914  1.00  0.00     0.162 C
BRANCH  18  19
HETATM   19  C2  UNL     1      13.700  -7.630  17.789  1.00  0.00     0.171 C
BRANCH  19  20
HETATM   20  C1  UNL     1      12.336  -7.500  17.108  1.00  0.00     0.198 C
BRANCH  20  21
HETATM   21  O1  UNL     1      11.575  -8.616  17.085  1.00  0.00    -0.398 OA
ATOM     22  H1  UNL     1      10.821  -8.595  16.508  1.00  0.00     0.209 HD
ENDBRANCH  20  21
ENDBRANCH  19  20
BRANCH  19  23
HETATM   23  O2  UNL     1      14.005  -6.242  18.050  1.00  0.00    -0.391 OA
ATOM     24  H2  UNL     1      14.001  -6.234  19.000  1.00  0.00     0.210 HD
ENDBRANCH  19  23
ENDBRANCH  18  19
BRANCH  18  25
HETATM   25  O3  UNL     1      14.270  -9.077  16.036  1.00  0.00    -0.392 OA
ATOM     26  H3  UNL     1      13.819  -9.754  16.528  1.00  0.00     0.210 HD
ENDBRANCH  18  25
ENDBRANCH   1  18
TORSDOF 14
ENDMDL