MODEL 3
REMARK VINA RESULT: -6.201338025      2.930      4.920
REMARK  10 active torsions:
REMARK  status: ('A' for Active; 'I' for Inactive)
REMARK    1  A    between atoms: C4_7  and  C5_8
REMARK    2  A    between atoms: C5_8  and  C6_9
REMARK    3  A    between atoms: C6_9  and  C7_10
REMARK    4  A    between atoms: C7_10  and  N2_11
REMARK    5  A    between atoms: N5_16  and  C9_17
REMARK    6  A    between atoms: C9_17  and  C10_18
REMARK    7  A    between atoms: C10_18  and  C11_19
REMARK    8  A    between atoms: C11_19  and  N6_20
REMARK    9  A    between atoms: N6_20  and  C12_22
REMARK   10  A    between atoms: C13_26  and  O2_27
ROOT
HETATM    1  C1  UNL     1      19.474  -7.105  25.637  1.00  0.00     0.036 C
HETATM    2  C2  UNL     1      18.834  -5.778  25.257  1.00  0.00     0.124 C
HETATM    3  N1  UNL     1      18.819  -5.668  23.825  1.00  0.00    -0.348 N
ATOM      4  H1  UNL     1      18.459  -6.441  23.266  1.00  0.00     0.163 HD
HETATM    5  C3  UNL     1      19.300  -4.496  23.171  1.00  0.00     0.259 C
HETATM    6  O1  UNL     1      19.030  -4.382  21.960  1.00  0.00    -0.267 OA
HETATM    7  C4  UNL     1      20.061  -3.563  24.010  1.00  0.00     0.058 C
HETATM    8  N5  UNL     1      19.440  -3.397  25.262  1.00  0.00    -0.254 NA
HETATM    9  C13 UNL     1      19.580  -4.689  25.970  1.00  0.00     0.220 C
ENDROOT
BRANCH   8  10
HETATM   10  C9  UNL     1      18.080  -3.037  25.371  1.00  0.00     0.100 C
BRANCH  10  11
HETATM   11  C10 UNL     1      17.711  -1.638  24.972  1.00  0.00     0.034 C
BRANCH  11  12
HETATM   12  C11 UNL     1      16.518  -1.594  24.036  1.00  0.00     0.121 C
BRANCH  12  13
HETATM   13  N6  UNL     1      16.099  -2.914  23.641  1.00  0.00    -0.386 N
ATOM     14  H6  UNL     1      16.076  -3.648  24.348  1.00  0.00     0.160 HD
BRANCH  13  15
HETATM   15  C12 UNL     1      15.716  -3.240  22.321  1.00  0.00     0.168 C
HETATM   16  N7  UNL     1      15.825  -4.435  21.902  1.00  0.00    -0.396 N
ATOM     17  H72 UNL     1      16.190  -5.148  22.533  1.00  0.00     0.156 HD
ATOM     18  H71 UNL     1      15.548  -4.671  20.948  1.00  0.00     0.156 HD
ENDBRANCH  13  15
ENDBRANCH  12  13
ENDBRANCH  11  12
ENDBRANCH  10  11
ENDBRANCH   8  10
BRANCH   7  19
HETATM   19  C5  UNL     1      20.623  -2.359  23.370  1.00  0.00     0.058 C
BRANCH  19  20
HETATM   20  C6  UNL     1      21.809  -1.770  24.121  1.00  0.00     0.025 C
BRANCH  20  21
HETATM   21  C7  UNL     1      21.551  -0.279  24.170  1.00  0.00     0.122 C
BRANCH  21  22
HETATM   22  N2  UNL     1      22.205   0.434  23.077  1.00  0.00    -0.367 N
HETATM   23  C8  UNL     1      21.985   1.684  22.918  1.00  0.00     0.196 C
HETATM   24  N3  UNL     1      21.116   2.366  23.789  1.00  0.00    -0.067 NA
HETATM   25  N4  UNL     1      22.614   2.375  21.862  1.00  0.00    -0.067 NA
ATOM     26  H2  UNL     1      22.833  -0.062  22.445  1.00  0.00     0.161 HD
ENDBRANCH  21  22
ENDBRANCH  20  21
ENDBRANCH  19  20
ENDBRANCH   7  19
BRANCH   9  27
HETATM   27  O2  UNL     1      19.021  -4.535  27.238  1.00  0.00    -0.379 OA
ATOM     28  H2  UNL     1      18.259  -3.972  27.160  1.00  0.00     0.211 HD
ENDBRANCH   9  27
TORSDOF 10
ENDMDL