MODEL 4
REMARK VINA RESULT: -7.674923797      2.862      8.795
REMARK  10 active torsions:
REMARK  status: ('A' for Active; 'I' for Inactive)
REMARK    1  A    between atoms: C5_5  and  N1_6
REMARK    2  A    between atoms: N1_6  and  C6_8
REMARK    3  A    between atoms: C6_8  and  C7_9
REMARK    4  A    between atoms: C6_8  and  C9_15
REMARK    5  A    between atoms: C7_9  and  N2_10
REMARK    6  A    between atoms: C9_15  and  N5_16
REMARK    7  A    between atoms: N5_16  and  C10_19
REMARK    8  A    between atoms: C10_19  and  C11_20
REMARK    9  A    between atoms: C11_20  and  C12_21
REMARK   10  A    between atoms: C12_21  and  N6_22
ROOT
HETATM    1  C6  UNL     1      16.094  -5.736  20.214  1.00  0.00     0.126 C
ENDROOT
BRANCH   1   2
HETATM    2  N1  UNL     1      16.299  -4.512  20.798  1.00  0.00    -0.367 N
ATOM      3  H1  UNL     1      17.295  -4.292  20.808  1.00  0.00     0.161 HD
BRANCH   2   4
HETATM    4  C5  UNL     1      15.651  -3.580  21.322  1.00  0.00     0.116 A
HETATM    5  C4  UNL     1      15.534  -2.296  20.837  1.00  0.00     0.051 A
HETATM    6  C3  UNL     1      14.787  -1.343  21.505  1.00  0.00     0.030 A
HETATM    7  C2  UNL     1      14.151  -1.694  22.680  1.00  0.00     0.022 A
HETATM    8  C1  UNL     1      13.352  -0.685  23.409  1.00  0.00     0.069 C
HETATM    9  N10 UNL     1      14.313  -2.954  23.085  1.00  0.00    -0.304 N
HETATM   10  N9  UNL     1      15.003  -3.871  22.486  1.00  0.00    -0.286 N
ATOM     11  H10 UNL     1      13.848  -3.222  23.953  1.00  0.00     0.186 HD
ATOM     12  H9  UNL     1      15.062  -4.808  22.884  1.00  0.00     0.188 HD
ENDBRANCH   2   4
ENDBRANCH   1   2
BRANCH   1  13
HETATM   13  C7  UNL     1      15.963  -5.595  18.703  1.00  0.00     0.148 C
BRANCH  13  14
HETATM   14  N2  UNL     1      14.588  -5.529  18.285  1.00  0.00    -0.365 N
HETATM   15  C8  UNL     1      13.927  -6.519  17.804  1.00  0.00     0.197 C
HETATM   16  N3  UNL     1      12.575  -6.284  17.439  1.00  0.00    -0.067 NA
HETATM   17  N4  UNL     1      14.462  -7.811  17.619  1.00  0.00    -0.067 NA
ATOM     18  H2  UNL     1      14.105  -4.635  18.378  1.00  0.00     0.161 HD
ENDBRANCH  13  14
ENDBRANCH   1  13
BRANCH   1  19
HETATM   19  C9  UNL     1      17.143  -6.823  20.440  1.00  0.00     0.258 C
BRANCH  19  20
HETATM   20  N5  UNL     1      16.428  -8.070  20.140  1.00  0.00    -0.073 N
ATOM     21  H52 UNL     1      15.712  -8.271  20.837  1.00  0.00     0.277 HD
ATOM     22  H51 UNL     1      15.825  -7.972  19.323  1.00  0.00     0.277 HD
BRANCH  20  23
HETATM   23  C10 UNL     1      17.341  -9.157  19.993  1.00  0.00     0.234 C
BRANCH  23  24
HETATM   24  C11 UNL     1      17.809  -9.151  18.548  1.00  0.00     0.047 C
BRANCH  24  25
HETATM   25  C12 UNL     1      17.652 -10.477  17.858  1.00  0.00     0.123 C
BRANCH  25  26
HETATM   26  N6  UNL     1      16.366 -10.528  17.198  1.00  0.00    -0.367 N
HETATM   27  C13 UNL     1      16.239 -10.485  15.916  1.00  0.00     0.196 C
HETATM   28  N7  UNL     1      17.318 -10.385  15.005  1.00  0.00    -0.067 NA
HETATM   29  N8  UNL     1      14.922 -10.541  15.393  1.00  0.00    -0.067 NA
ATOM     30  H6  UNL     1      15.525 -10.602  17.771  1.00  0.00     0.161 HD
ENDBRANCH  25  26
ENDBRANCH  24  25
ENDBRANCH  23  24
ENDBRANCH  20  23
ENDBRANCH  19  20
ENDBRANCH   1  19
TORSDOF 10
ENDMDL