MODEL 3
REMARK VINA RESULT: -7.519538521      1.309      8.046
REMARK  10 active torsions:
REMARK  status: ('A' for Active; 'I' for Inactive)
REMARK    1  A    between atoms: N2_3  and  C2_5
REMARK    2  A    between atoms: C2_5  and  C3_6
REMARK    3  A    between atoms: C3_6  and  C4_7
REMARK    4  A    between atoms: C4_7  and  C5_8
REMARK    5  A    between atoms: C5_8  and  C6_9
REMARK    6  A    between atoms: C7_13  and  C8_14
REMARK    7  A    between atoms: C8_14  and  C9_15
REMARK    8  A    between atoms: C9_15  and  C10_16
REMARK    9  A    between atoms: C10_16  and  N4_17
REMARK   10  A    between atoms: C13_26  and  O2_27
ROOT
HETATM    1  C6  UNL     1      16.367  -3.641  21.755  1.00  0.00     0.235 C
HETATM    2  N3  UNL     1      15.739  -4.741  21.074  1.00  0.00    -0.054 N
ATOM      3  H31 UNL     1      14.953  -4.420  20.508  1.00  0.00     0.278 HD
ATOM      4  H32 UNL     1      15.237  -5.339  21.730  1.00  0.00     0.278 HD
HETATM    5  C7  UNL     1      16.673  -5.512  20.275  1.00  0.00     0.277 C
HETATM    6  C12 UNL     1      17.604  -6.132  21.223  1.00  0.00     0.250 C
HETATM    7  O1  UNL     1      17.948  -7.316  21.294  1.00  0.00    -0.271 OA
HETATM    8  N7  UNL     1      18.191  -5.239  22.194  1.00  0.00    -0.331 N
ATOM      9  H7  UNL     1      19.082  -5.488  22.622  1.00  0.00     0.165 HD
HETATM   10  C13 UNL     1      17.550  -4.005  22.576  1.00  0.00     0.251 C
ENDROOT
BRANCH   1  11
HETATM   11  C5  UNL     1      15.320  -2.992  22.636  1.00  0.00     0.037 C
BRANCH  11  12
HETATM   12  C4  UNL     1      14.419  -2.042  21.872  1.00  0.00     0.004 C
BRANCH  12  13
HETATM   13  C3  UNL     1      14.589  -0.608  22.325  1.00  0.00     0.020 C
BRANCH  13  14
HETATM   14  C2  UNL     1      13.765  -0.285  23.529  1.00  0.00     0.120 C
BRANCH  14  15
HETATM   15  N2  UNL     1      12.723   0.658  23.287  1.00  0.00    -0.388 N
HETATM   16  C1  UNL     1      11.505   0.319  23.463  1.00  0.00     0.185 C
HETATM   17  N1  UNL     1      11.185  -0.988  23.898  1.00  0.00    -0.097 NA
ATOM     18  H2  UNL     1      12.950   1.601  22.973  1.00  0.00     0.159 HD
ENDBRANCH  14  15
ENDBRANCH  13  14
ENDBRANCH  12  13
ENDBRANCH  11  12
ENDBRANCH   1  11
BRANCH  10  19
HETATM   19  O2  UNL     1      17.281  -4.093  23.945  1.00  0.00    -0.375 OA
ATOM     20  H2  UNL     1      17.513  -4.931  24.329  1.00  0.00     0.212 HD
ENDBRANCH  10  19
BRANCH   5  21
HETATM   21  C8  UNL     1      15.884  -6.441  19.430  1.00  0.00     0.044 C
BRANCH  21  22
HETATM   22  C9  UNL     1      16.614  -7.055  18.274  1.00  0.00     0.022 C
BRANCH  22  23
HETATM   23  C10 UNL     1      15.985  -8.441  18.059  1.00  0.00     0.122 C
BRANCH  23  24
HETATM   24  N4  UNL     1      14.555  -8.353  17.981  1.00  0.00    -0.367 N
HETATM   25  C11 UNL     1      13.906  -8.834  16.998  1.00  0.00     0.196 C
HETATM   26  N5  UNL     1      12.492  -8.728  16.956  1.00  0.00    -0.067 NA
HETATM   27  N6  UNL     1      14.604  -9.476  15.943  1.00  0.00    -0.067 NA
ATOM     28  H4  UNL     1      14.045  -7.892  18.734  1.00  0.00     0.161 HD
ENDBRANCH  23  24
ENDBRANCH  22  23
ENDBRANCH  21  22
ENDBRANCH   5  21
TORSDOF 10
ENDMDL