MODEL 2
REMARK VINA RESULT: -6.209731242      1.739      2.330
REMARK  12 active torsions:
REMARK  status: ('A' for Active; 'I' for Inactive)
REMARK    1  A    between atoms: N1_2  and  C3_4
REMARK    2  A    between atoms: N1_2  and  C8_14
REMARK    3  A    between atoms: C3_4  and  C4_5
REMARK    4  A    between atoms: C4_5  and  C5_6
REMARK    5  A    between atoms: C8_14  and  C9_15
REMARK    6  A    between atoms: C9_15  and  N5_19
REMARK    7  A    between atoms: N5_19  and  O2_21
REMARK    8  A    between atoms: O2_21  and  C10_22
REMARK    9  A    between atoms: C10_22  and  C11_23
REMARK   10  A    between atoms: C11_23  and  N6_24
REMARK   11  A    between atoms: C11_23  and  C12_28
REMARK   12  A    between atoms: C12_28  and  N7_29
ROOT
HETATM    1  C9  UNL     1      16.708  -6.812  20.439  1.00  0.00     0.121 C
HETATM    2  N4  UNL     1      15.447  -6.905  20.729  1.00  0.00    -0.386 N
ATOM      3  H41 UNL     1      15.049  -6.394  21.517  1.00  0.00     0.157 HD
ATOM      4  H42 UNL     1      14.872  -7.501  20.135  1.00  0.00     0.157 HD
ENDROOT
BRANCH   1   5
HETATM    5  C8  UNL     1      17.277  -7.544  19.310  1.00  0.00     0.313 C
BRANCH   5   6
HETATM    6  N1  UNL     1      17.260  -8.994  19.410  1.00  0.00    -0.068 N
HETATM    7  C1  UNL     1      18.347  -9.480  18.564  1.00  0.00     0.272 C
HETATM    8  C2  UNL     1      17.580  -9.385  20.745  1.00  0.00     0.272 C
BRANCH   6   9
HETATM    9  C3  UNL     1      16.000  -9.437  18.921  1.00  0.00     0.243 C
BRANCH   9  10
HETATM   10  C4  UNL     1      15.542  -9.022  17.589  1.00  0.00     0.086 C
BRANCH  10  11
HETATM   11  C5  UNL     1      14.285  -8.285  17.479  1.00  0.00     0.030 A
HETATM   12  C6  UNL     1      13.020  -8.767  17.229  1.00  0.00     0.118 A
HETATM   13  N2  UNL     1      12.154  -7.728  17.216  1.00  0.00    -0.317 N
HETATM   14  C7  UNL     1      12.845  -6.598  17.452  1.00  0.00     0.324 A
ATOM     15  H2  UNL     1      11.149  -7.790  17.055  1.00  0.00     0.170 HD
HETATM   16  O1  UNL     1      12.315  -5.441  17.503  1.00  0.00    -0.247 OA
HETATM   17  N3  UNL     1      14.122  -6.938  17.609  1.00  0.00    -0.311 N
ATOM     18  H3  UNL     1      14.877  -6.279  17.801  1.00  0.00     0.170 HD
ENDBRANCH  10  11
ENDBRANCH   9  10
ENDBRANCH   6   9
ENDBRANCH   5   6
ENDBRANCH   1   5
BRANCH   1  19
HETATM   19  N5  UNL     1      17.506  -5.983  21.265  1.00  0.00    -0.253 N
ATOM     20  H5  UNL     1      18.042  -6.422  22.013  1.00  0.00     0.195 HD
BRANCH  19  21
HETATM   21  O2  UNL     1      17.600  -4.632  21.117  1.00  0.00    -0.277 OA
BRANCH  21  22
HETATM   22  C10 UNL     1      17.172  -4.047  22.315  1.00  0.00     0.235 C
BRANCH  22  23
HETATM   23  C11 UNL     1      15.735  -3.602  22.242  1.00  0.00     0.234 C
BRANCH  23  24
HETATM   24  N6  UNL     1      15.388  -2.918  23.473  1.00  0.00    -0.071 N
ATOM     25  H63 UNL     1      15.596  -3.478  24.299  1.00  0.00     0.274 HD
ATOM     26  H62 UNL     1      16.010  -2.134  23.669  1.00  0.00     0.274 HD
ATOM     27  H61 UNL     1      14.409  -2.636  23.432  1.00  0.00     0.274 HD
ENDBRANCH  23  24
BRANCH  23  28
HETATM   28  C12 UNL     1      15.578  -2.679  21.049  1.00  0.00     0.264 C
BRANCH  28  29
HETATM   29  N7  UNL     1      15.107  -3.423  19.909  1.00  0.00    -0.077 N
ATOM     30  H73 UNL     1      15.253  -2.917  19.036  1.00  0.00     0.274 HD
ATOM     31  H72 UNL     1      15.695  -4.233  19.712  1.00  0.00     0.274 HD
ATOM     32  H71 UNL     1      14.130  -3.684  20.043  1.00  0.00     0.274 HD
ENDBRANCH  28  29
ENDBRANCH  23  28
ENDBRANCH  22  23
ENDBRANCH  21  22
ENDBRANCH  19  21
ENDBRANCH   1  19
TORSDOF 12
ENDMDL