MODEL 5
REMARK VINA RESULT: -7.218093436      4.160      6.469
REMARK  13 active torsions:
REMARK  status: ('A' for Active; 'I' for Inactive)
REMARK    1  A    between atoms: C2_2  and  C3_3
REMARK    2  A    between atoms: C3_3  and  C4_4
REMARK    3  A    between atoms: C4_4  and  C5_5
REMARK    4  A    between atoms: C5_5  and  C6_6
REMARK    5  A    between atoms: C9_15  and  C10_16
REMARK    6  A    between atoms: C10_16  and  C11_17
REMARK    7  A    between atoms: C11_17  and  C12_18
REMARK    8  A    between atoms: C12_18  and  O3_19
REMARK    9  A    between atoms: C12_18  and  N3_21
REMARK   10  A    between atoms: N3_21  and  C13_23
REMARK   11  A    between atoms: C13_23  and  C14_24
REMARK   12  A    between atoms: C14_24  and  N4_25
REMARK   13  A    between atoms: C15_29  and  N5_30
ROOT
HETATM    1  C6  UNL     1      17.451  -4.177  22.375  1.00  0.00     0.060 C
HETATM    2  N1  UNL     1      17.292  -5.203  21.469  1.00  0.00    -0.317 N
ATOM      3  H1  UNL     1      17.838  -6.044  21.655  1.00  0.00     0.169 HD
HETATM    4  C7  UNL     1      16.505  -5.247  20.361  1.00  0.00     0.314 C
HETATM    5  O1  UNL     1      16.427  -6.301  19.721  1.00  0.00    -0.262 OA
HETATM    6  C8  UNL     1      15.740  -4.201  19.834  1.00  0.00     0.314 C
HETATM    7  O2  UNL     1      15.349  -4.295  18.644  1.00  0.00    -0.262 OA
HETATM    8  N2  UNL     1      15.353  -3.053  20.469  1.00  0.00    -0.317 N
ATOM      9  H2  UNL     1      14.719  -2.463  19.931  1.00  0.00     0.169 HD
HETATM   10  C9  UNL     1      15.672  -2.570  21.690  1.00  0.00     0.060 C
HETATM   11  C15 UNL     1      16.453  -3.272  22.621  1.00  0.00     0.079 C
ENDROOT
BRANCH  10  12
HETATM   12  C10 UNL     1      15.228  -1.380  22.043  1.00  0.00     0.009 C
BRANCH  12  13
HETATM   13  C11 UNL     1      13.747  -1.146  22.049  1.00  0.00     0.082 C
BRANCH  13  14
HETATM   14  C12 UNL     1      13.285  -0.619  23.380  1.00  0.00     0.216 C
BRANCH  14  15
HETATM   15  O3  UNL     1      14.343  -0.434  24.271  1.00  0.00    -0.377 OA
ATOM     16  H3  UNL     1      14.425   0.471  24.549  1.00  0.00     0.212 HD
ENDBRANCH  14  15
BRANCH  14  17
HETATM   17  N3  UNL     1      12.613   0.628  23.197  1.00  0.00    -0.395 N
ATOM     18  H3  UNL     1      13.090   1.455  22.840  1.00  0.00     0.155 HD
BRANCH  17  19
HETATM   19  C13 UNL     1      11.226   0.640  23.547  1.00  0.00     0.143 C
BRANCH  19  20
HETATM   20  C14 UNL     1      10.752  -0.758  23.962  1.00  0.00     0.248 C
BRANCH  20  21
HETATM   21  N4  UNL     1       9.715  -0.709  24.953  1.00  0.00    -0.078 N
ATOM     22  H43 UNL     1       9.614   0.231  25.335  1.00  0.00     0.274 HD
ATOM     23  H42 UNL     1       8.793  -0.813  24.528  1.00  0.00     0.274 HD
ATOM     24  H41 UNL     1       9.857  -1.394  25.696  1.00  0.00     0.274 HD
ENDBRANCH  20  21
ENDBRANCH  19  20
ENDBRANCH  17  19
ENDBRANCH  14  17
ENDBRANCH  13  14
ENDBRANCH  12  13
ENDBRANCH  10  12
BRANCH  11  25
HETATM   25  N5  UNL     1      16.160  -3.041  23.817  1.00  0.00    -0.395 N
ATOM     26  H52 UNL     1      16.136  -3.871  24.409  1.00  0.00     0.156 HD
ATOM     27  H51 UNL     1      15.999  -2.071  24.086  1.00  0.00     0.156 HD
ENDBRANCH  11  25
BRANCH   1  28
HETATM   28  C5  UNL     1      18.600  -4.113  22.984  1.00  0.00     0.005 C
BRANCH  28  29
HETATM   29  C4  UNL     1      19.362  -5.108  23.720  1.00  0.00     0.029 C
BRANCH  29  30
HETATM   30  C3  UNL     1      20.631  -4.497  24.280  1.00  0.00     0.003 C
BRANCH  30  31
HETATM   31  C2  UNL     1      20.646  -3.032  23.906  1.00  0.00    -0.004 C
HETATM   32  C1  UNL     1      21.882  -2.419  24.499  1.00  0.00     0.005 C
ENDBRANCH  30  31
ENDBRANCH  29  30
ENDBRANCH  28  29
ENDBRANCH   1  28
TORSDOF 13
ENDMDL