MODEL 2
REMARK VINA RESULT: -6.894202273      4.475      9.507
REMARK  10 active torsions:
REMARK  status: ('A' for Active; 'I' for Inactive)
REMARK    1  A    between atoms: N1_1  and  C1_5
REMARK    2  A    between atoms: C1_5  and  C2_6
REMARK    3  A    between atoms: N2_7  and  N3_9
REMARK       I    between atoms: N3_9  and  C3_11
REMARK    4  A    between atoms: N5_13  and  C4_15
REMARK    5  A    between atoms: C4_15  and  C5_16
REMARK    6  A    between atoms: C5_16  and  C6_17
REMARK    7  A    between atoms: C6_17  and  C7_18
REMARK    8  A    between atoms: C7_18  and  N6_19
REMARK    9  A    between atoms: C10_22  and  C11_23
REMARK   10  A    between atoms: N8_25  and  N9_27
ROOT
HETATM    1  C5  UNL     1      17.666  -2.644  23.972  1.00  0.00     0.021 C
ENDROOT
BRANCH   1   2
HETATM    2  C4  UNL     1      16.283  -2.891  23.470  1.00  0.00     0.122 C
BRANCH   2   3
HETATM    3  N5  UNL     1      16.331  -4.031  22.556  1.00  0.00    -0.363 N
HETATM    4  C3  UNL     1      16.032  -3.826  21.326  1.00  0.00     0.203 C
HETATM    5  N3  UNL     1      16.057  -4.886  20.383  1.00  0.00    -0.274 N
HETATM    6  N4  UNL     1      15.660  -2.535  20.840  1.00  0.00    -0.062 NA
ATOM      7  H3  UNL     1      16.317  -4.710  19.413  1.00  0.00     0.189 HD
ATOM      8  H5  UNL     1      16.594  -4.960  22.887  1.00  0.00     0.162 HD
BRANCH   5   9
HETATM    9  N2  UNL     1      15.723  -6.168  20.802  1.00  0.00    -0.312 N
HETATM   10  C2  UNL     1      15.307  -7.018  19.905  1.00  0.00     0.107 C
ATOM     11  H2  UNL     1      15.800  -6.436  21.783  1.00  0.00     0.185 HD
BRANCH  10  12
HETATM   12  C1  UNL     1      15.185  -6.658  18.481  1.00  0.00     0.275 C
BRANCH  12  13
HETATM   13  N1  UNL     1      13.784  -6.330  18.212  1.00  0.00    -0.075 N
ATOM     14  H13 UNL     1      13.206  -6.356  19.051  1.00  0.00     0.274 HD
ATOM     15  H12 UNL     1      13.647  -5.346  17.981  1.00  0.00     0.274 HD
ATOM     16  H11 UNL     1      13.447  -6.956  17.480  1.00  0.00     0.274 HD
ENDBRANCH  12  13
ENDBRANCH  10  12
ENDBRANCH   5   9
ENDBRANCH   2   3
ENDBRANCH   1   2
BRANCH   1  17
HETATM   17  C6  UNL     1      18.438  -3.929  24.045  1.00  0.00     0.022 C
BRANCH  17  18
HETATM   18  C7  UNL     1      19.704  -3.886  23.213  1.00  0.00     0.128 C
BRANCH  18  19
HETATM   19  N6  UNL     1      20.798  -3.361  24.007  1.00  0.00    -0.366 N
HETATM   20  C8  UNL     1      21.390  -4.119  24.950  1.00  0.00     0.091 A
HETATM   21  C9  UNL     1      22.430  -3.557  25.674  1.00  0.00     0.032 A
HETATM   22  C10 UNL     1      22.878  -2.283  25.477  1.00  0.00     0.009 A
HETATM   23  C12 UNL     1      22.257  -1.525  24.506  1.00  0.00     0.032 A
HETATM   24  C13 UNL     1      21.228  -2.084  23.792  1.00  0.00     0.091 A
BRANCH  22  25
HETATM   25  C11 UNL     1      23.988  -1.711  26.264  1.00  0.00     0.140 C
HETATM   26  N7  UNL     1      24.090  -0.316  26.425  1.00  0.00    -0.080 NA
HETATM   27  N8  UNL     1      24.870  -2.476  26.808  1.00  0.00    -0.294 N
ATOM     28  H8  UNL     1      24.800  -3.487  26.694  1.00  0.00     0.187 HD
BRANCH  27  29
HETATM   29  N9  UNL     1      25.919  -1.939  27.549  1.00  0.00    -0.344 N
ATOM     30  H92 UNL     1      25.795  -1.021  27.975  1.00  0.00     0.176 HD
ATOM     31  H91 UNL     1      26.793  -2.452  27.665  1.00  0.00     0.176 HD
ENDBRANCH  27  29
ENDBRANCH  22  25
ENDBRANCH  18  19
ENDBRANCH  17  18
ENDBRANCH   1  17
TORSDOF 10
ENDMDL