MODEL 1
REMARK VINA RESULT: -5.277074770      0.000      0.000
REMARK  3 active torsions:
REMARK  status: ('A' for Active; 'I' for Inactive)
REMARK    1  A    between atoms: C1_2  and  N2_4
REMARK    2  A    between atoms: N2_4  and  C2_6
REMARK    3  A    between atoms: N6_11  and  N7_12
ROOT
HETATM    1  C2  UNL     1      51.174  37.591  26.762  1.00  0.00     0.731 A
HETATM    2  N3  UNL     1      50.565  36.478  27.206  1.00  0.00    -0.115 N
ATOM      3  H3  UNL     1      50.537  36.157  28.174  1.00  0.00     0.203 HD
HETATM    4  N4  UNL     1      50.002  35.862  26.156  1.00  0.00     0.008 NA
HETATM    5  N5  UNL     1      50.268  36.596  25.087  1.00  0.00     0.030 NA
HETATM    6  N6  UNL     1      50.982  37.658  25.429  1.00  0.00    -0.012 N
ENDROOT
BRANCH   1   7
HETATM    7  N2  UNL     1      51.813  38.409  27.526  1.00  0.00    -0.165 N
ATOM      8  H2  UNL     1      52.772  38.644  27.271  1.00  0.00     0.186 HD
BRANCH   7   9
HETATM    9  C1  UNL     1      51.279  39.000  28.690  1.00  0.00     0.199 C
HETATM   10  N1  UNL     1      50.020  39.666  28.681  1.00  0.00    -0.069 NA
HETATM   11  S1  UNL     1      52.145  38.906  30.072  1.00  0.00    -0.044 SA
ENDBRANCH   7   9
ENDBRANCH   1   7
BRANCH   6  12
HETATM   12  N7  UNL     1      51.445  38.654  24.565  1.00  0.00    -0.311 N
ATOM     13  H72 UNL     1      52.226  39.286  24.739  1.00  0.00     0.179 HD
ATOM     14  H71 UNL     1      51.071  38.889  23.646  1.00  0.00     0.179 HD
ENDBRANCH   6  12
TORSDOF 3
ENDMDL