MODEL 3
REMARK VINA RESULT: -5.326996585      1.360      2.611
REMARK  0 active torsions:
REMARK  status: ('A' for Active; 'I' for Inactive)
REMARK       I    between atoms: N1_1  and  C1_4
ROOT
HETATM    1  N1  UNL     1      52.204  39.600  27.744  1.00  0.00    -0.233 N
ATOM      2  H11 UNL     1      52.109  39.673  28.757  1.00  0.00     0.174 HD
ATOM      3  H12 UNL     1      52.869  40.133  27.185  1.00  0.00     0.174 HD
HETATM    4  C1  UNL     1      51.419  38.764  27.140  1.00  0.00     0.693 C
HETATM    5  N2  UNL     1      51.547  38.666  25.788  1.00  0.00    -0.133 N
ATOM      6  H2  UNL     1      51.992  39.462  25.332  1.00  0.00     0.205 HD
HETATM    7  N3  UNL     1      51.175  37.683  24.977  1.00  0.00    -0.294 N
ATOM      8  H3  UNL     1      51.304  37.868  23.982  1.00  0.00     0.186 HD
HETATM    9  C2  UNL     1      50.647  36.462  25.278  1.00  0.00     0.168 C
HETATM   10  C3  UNL     1      49.887  36.210  26.404  1.00  0.00     0.256 C
HETATM   11  O1  UNL     1      49.192  35.164  26.370  1.00  0.00    -0.281 OA
HETATM   12  C4  UNL     1      49.797  36.967  27.564  1.00  0.00     0.311 C
HETATM   13  O2  UNL     1      48.943  36.620  28.424  1.00  0.00    -0.263 OA
HETATM   14  N4  UNL     1      50.539  38.058  27.880  1.00  0.00    -0.152 N
ATOM     15  H4  UNL     1      50.409  38.401  28.832  1.00  0.00     0.188 HD
ENDROOT
TORSDOF 0
ENDMDL