MODEL 5
REMARK VINA RESULT: -5.193809483      1.612      4.214
REMARK  1 active torsions:
REMARK  status: ('A' for Active; 'I' for Inactive)
REMARK    1  A    between atoms: N1_1  and  C1_4
ROOT
HETATM    1  C1  UNL     1      51.564  38.577  29.465  1.00  0.00     0.172 C
HETATM    2  N2  UNL     1      52.155  38.227  28.308  1.00  0.00    -0.302 N
ATOM      3  H2  UNL     1      53.147  38.452  28.232  1.00  0.00     0.171 HD
HETATM    4  C2  UNL     1      51.604  37.610  27.222  1.00  0.00     0.289 C
HETATM    5  O1  UNL     1      52.392  37.453  26.256  1.00  0.00    -0.264 OA
HETATM    6  C3  UNL     1      50.331  37.134  27.015  1.00  0.00     0.199 C
HETATM    7  N3  UNL     1      50.114  36.349  25.839  1.00  0.00    -0.075 NA
HETATM    8  N4  UNL     1      49.278  37.334  27.809  1.00  0.00    -0.280 N
ATOM      9  H4  UNL     1      48.392  36.966  27.463  1.00  0.00     0.188 HD
HETATM   10  N5  UNL     1      49.222  37.952  28.999  1.00  0.00    -0.262 N
ATOM     11  H5  UNL     1      48.284  38.077  29.382  1.00  0.00     0.190 HD
HETATM   12  C4  UNL     1      50.226  38.434  29.767  1.00  0.00     0.303 C
HETATM   13  O2  UNL     1      49.938  38.816  30.927  1.00  0.00    -0.263 OA
ENDROOT
BRANCH   1  14
HETATM   14  N1  UNL     1      52.318  39.106  30.398  1.00  0.00    -0.381 N
ATOM     15  H12 UNL     1      52.994  39.805  30.092  1.00  0.00     0.157 HD
ATOM     16  H11 UNL     1      52.180  38.785  31.356  1.00  0.00     0.157 HD
ENDBRANCH   1  14
TORSDOF 1
ENDMDL