MODEL 5
REMARK VINA RESULT: -4.762082438      1.139      1.144
REMARK  3 active torsions:
REMARK  status: ('A' for Active; 'I' for Inactive)
REMARK    1  A    between atoms: N1_2  and  N2_3
REMARK    2  A    between atoms: N1_2  and  C2_6
REMARK    3  A    between atoms: C3_9  and  N4_10
ROOT
HETATM    1  C2  UNL     1      50.861  37.551  28.124  1.00  0.00     0.716 A
HETATM    2  N3  UNL     1      51.436  37.936  29.277  1.00  0.00    -0.021 N
ATOM      3  H3  UNL     1      52.427  38.176  29.272  1.00  0.00     0.203 HD
HETATM    4  C3  UNL     1      50.763  38.018  30.434  1.00  0.00     0.694 A
HETATM    5  N5  UNL     1      49.457  37.711  30.480  1.00  0.00    -0.141 N
ATOM      6  H5  UNL     1      48.935  37.769  31.354  1.00  0.00     0.189 HD
HETATM    7  C4  UNL     1      48.856  37.323  29.338  1.00  0.00     0.352 A
HETATM    8  O1  UNL     1      47.629  37.041  29.400  1.00  0.00    -0.246 OA
HETATM    9  N6  UNL     1      49.554  37.251  28.205  1.00  0.00    -0.139 N
ATOM     10  H6  UNL     1      49.073  36.954  27.357  1.00  0.00     0.189 HD
ENDROOT
BRANCH   1  11
HETATM   11  N1  UNL     1      51.548  37.446  26.896  1.00  0.00    -0.134 N
HETATM   12  C1  UNL     1      51.014  36.476  25.927  1.00  0.00     0.197 C
BRANCH  11  13
HETATM   13  N2  UNL     1      52.660  38.152  26.489  1.00  0.00    -0.329 N
ATOM     14  H22 UNL     1      53.270  37.954  25.696  1.00  0.00     0.177 HD
ATOM     15  H21 UNL     1      52.902  38.966  27.055  1.00  0.00     0.177 HD
ENDBRANCH  11  13
ENDBRANCH   1  11
BRANCH   4  16
HETATM   16  N4  UNL     1      51.355  38.383  31.536  1.00  0.00    -0.234 N
ATOM     17  H42 UNL     1      51.275  39.356  31.833  1.00  0.00     0.174 HD
ATOM     18  H41 UNL     1      51.882  37.716  32.099  1.00  0.00     0.174 HD
ENDBRANCH   4  16
TORSDOF 3
ENDMDL