MODEL 3
REMARK VINA RESULT: -4.685465290      0.634      2.594
REMARK  2 active torsions:
REMARK  status: ('A' for Active; 'I' for Inactive)
REMARK    1  A    between atoms: N1_1  and  C1_4
REMARK    2  A    between atoms: N4_11  and  N5_12
ROOT
HETATM    1  C1  UNL     1      49.383  37.608  28.288  1.00  0.00     0.175 A
HETATM    2  N2  UNL     1      50.187  38.666  28.457  1.00  0.00    -0.289 N
ATOM      3  H2  UNL     1      50.002  39.333  29.206  1.00  0.00     0.172 HD
HETATM    4  C2  UNL     1      51.240  38.848  27.638  1.00  0.00     0.342 A
HETATM    5  O1  UNL     1      51.975  39.863  27.835  1.00  0.00    -0.245 OA
HETATM    6  N3  UNL     1      51.521  37.994  26.640  1.00  0.00    -0.227 N
ATOM      7  H3  UNL     1      52.328  38.161  26.038  1.00  0.00     0.194 HD
HETATM    8  N4  UNL     1      50.744  36.924  26.434  1.00  0.00    -0.157 N
HETATM    9  C3  UNL     1      49.686  36.744  27.259  1.00  0.00     0.325 A
HETATM   10  O2  UNL     1      48.914  35.738  27.104  1.00  0.00    -0.261 OA
ENDROOT
BRANCH   1  11
HETATM   11  N1  UNL     1      48.352  37.396  29.060  1.00  0.00    -0.381 N
ATOM     12  H12 UNL     1      48.427  36.792  29.879  1.00  0.00     0.157 HD
ATOM     13  H11 UNL     1      47.444  37.822  28.875  1.00  0.00     0.157 HD
ENDBRANCH   1  11
BRANCH   8  14
HETATM   14  N5  UNL     1      51.007  36.017  25.405  1.00  0.00    -0.321 N
ATOM     15  H52 UNL     1      50.621  36.160  24.472  1.00  0.00     0.179 HD
ATOM     16  H51 UNL     1      51.587  35.191  25.557  1.00  0.00     0.179 HD
ENDBRANCH   8  14
TORSDOF 2
ENDMDL