MODEL 3
REMARK VINA RESULT: -5.390704279      1.337      2.554
REMARK  2 active torsions:
REMARK  status: ('A' for Active; 'I' for Inactive)
REMARK    1  A    between atoms: N1_1  and  C1_4
REMARK    2  A    between atoms: N6_14  and  O1_15
ROOT
HETATM    1  C1  UNL     1      50.263  38.149  28.304  1.00  0.00     0.134 A
HETATM    2  N2  UNL     1      51.208  39.120  28.437  1.00  0.00    -0.337 N
ATOM      3  H2  UNL     1      51.177  39.803  29.194  1.00  0.00     0.168 HD
HETATM    4  C2  UNL     1      52.183  39.125  27.514  1.00  0.00     0.183 A
HETATM    5  N3  UNL     1      52.242  38.235  26.509  1.00  0.00    -0.336 N
ATOM      6  H3  UNL     1      53.008  38.290  25.838  1.00  0.00     0.168 HD
HETATM    7  C3  UNL     1      51.315  37.274  26.372  1.00  0.00     0.154 A
HETATM    8  N4  UNL     1      51.101  36.265  25.503  1.00  0.00    -0.265 N
ATOM      9  H4  UNL     1      51.699  36.052  24.705  1.00  0.00     0.186 HD
HETATM   10  N5  UNL     1      50.011  35.591  25.824  1.00  0.00     0.008 NA
HETATM   11  N6  UNL     1      49.535  36.181  26.905  1.00  0.00    -0.140 N
HETATM   12  C4  UNL     1      50.289  37.219  27.291  1.00  0.00     0.167 A
ENDROOT
BRANCH   1  13
HETATM   13  N1  UNL     1      49.340  38.131  29.167  1.00  0.00    -0.383 N
ATOM     14  H12 UNL     1      48.613  37.417  29.131  1.00  0.00     0.157 HD
ATOM     15  H11 UNL     1      49.365  38.858  29.882  1.00  0.00     0.157 HD
ENDBRANCH   1  13
BRANCH  11  16
HETATM   16  O1  UNL     1      48.398  35.759  27.540  1.00  0.00    -0.269 OA
ATOM     17  H1  UNL     1      47.593  36.265  27.544  1.00  0.00     0.246 HD
ENDBRANCH  11  16
TORSDOF 2
ENDMDL