MODEL 1
REMARK VINA RESULT: -4.796852723      0.000      0.000
REMARK  4 active torsions:
REMARK  status: ('A' for Active; 'I' for Inactive)
REMARK    1  A    between atoms: N1_1  and  N2_4
REMARK    2  A    between atoms: N2_4  and  C1_6
REMARK    3  A    between atoms: C2_15  and  N7_16
REMARK    4  A    between atoms: N7_16  and  N8_18
ROOT
HETATM    1  C1  UNL     1      50.519  37.596  27.870  1.00  0.00     0.183 A
HETATM    2  N3  UNL     1      50.416  36.950  26.686  1.00  0.00    -0.266 N
ATOM      3  H3  UNL     1      49.692  36.243  26.553  1.00  0.00     0.190 HD
HETATM    4  N4  UNL     1      51.251  37.233  25.701  1.00  0.00    -0.226 N
ATOM      5  H4  UNL     1      51.184  36.752  24.804  1.00  0.00     0.210 HD
HETATM    6  N5  UNL     1      52.174  38.153  25.908  1.00  0.00    -0.226 N
ATOM      7  H5  UNL     1      52.816  38.369  25.145  1.00  0.00     0.210 HD
HETATM    8  N6  UNL     1      52.313  38.803  27.027  1.00  0.00    -0.266 N
ATOM      9  H6  UNL     1      53.051  39.502  27.120  1.00  0.00     0.190 HD
HETATM   10  C2  UNL     1      51.502  38.559  28.052  1.00  0.00     0.183 A
ENDROOT
BRANCH   1  11
HETATM   11  N2  UNL     1      49.697  37.291  28.782  1.00  0.00    -0.288 N
ATOM     12  H2  UNL     1      50.090  37.122  29.708  1.00  0.00     0.188 HD
BRANCH  11  13
HETATM   13  N1  UNL     1      48.329  37.161  28.662  1.00  0.00    -0.343 N
ATOM     14  H12 UNL     1      47.840  37.991  28.329  1.00  0.00     0.176 HD
ATOM     15  H11 UNL     1      47.768  36.335  28.869  1.00  0.00     0.176 HD
ENDBRANCH  11  13
ENDBRANCH   1  11
BRANCH  10  16
HETATM   16  N7  UNL     1      51.557  39.141  29.190  1.00  0.00    -0.288 N
ATOM     17  H7  UNL     1      50.902  39.908  29.345  1.00  0.00     0.188 HD
BRANCH  16  18
HETATM   18  N8  UNL     1      52.404  38.839  30.218  1.00  0.00    -0.343 N
ATOM     19  H82 UNL     1      53.279  39.361  30.235  1.00  0.00     0.176 HD
ATOM     20  H81 UNL     1      52.244  38.153  30.955  1.00  0.00     0.176 HD
ENDBRANCH  16  18
ENDBRANCH  10  16
TORSDOF 4
ENDMDL