MODEL 5
REMARK VINA RESULT: -4.618146844      1.740      1.777
REMARK  1 active torsions:
REMARK  status: ('A' for Active; 'I' for Inactive)
REMARK    1  A    between atoms: C2_3  and  N2_4
ROOT
HETATM    1  C1  UNL     1      51.159  37.743  25.215  1.00  0.00     0.180 C
HETATM    2  N1  UNL     1      50.956  38.001  26.618  1.00  0.00    -0.137 N
HETATM    3  C2  UNL     1      51.642  37.279  27.514  1.00  0.00     0.685 A
HETATM    4  N3  UNL     1      51.467  37.502  28.846  1.00  0.00    -0.141 N
ATOM      5  H3  UNL     1      51.995  36.944  29.517  1.00  0.00     0.189 HD
HETATM    6  C3  UNL     1      50.613  38.443  29.302  1.00  0.00     0.342 A
HETATM    7  O1  UNL     1      50.454  38.649  30.536  1.00  0.00    -0.246 OA
HETATM    8  N4  UNL     1      49.932  39.160  28.395  1.00  0.00    -0.259 N
ATOM      9  H4  UNL     1      49.278  39.880  28.704  1.00  0.00     0.175 HD
HETATM   10  C4  UNL     1      50.110  38.932  27.065  1.00  0.00     0.344 A
HETATM   11  O2  UNL     1      49.466  39.611  26.223  1.00  0.00    -0.246 OA
ENDROOT
BRANCH   3  12
HETATM   12  N2  UNL     1      52.461  36.376  27.102  1.00  0.00    -0.234 N
ATOM     13  H22 UNL     1      52.438  36.055  26.135  1.00  0.00     0.174 HD
ATOM     14  H21 UNL     1      53.140  35.981  27.755  1.00  0.00     0.174 HD
ENDBRANCH   3  12
TORSDOF 1
ENDMDL