MODEL 4
REMARK VINA RESULT: -4.772908731      1.420      3.053
REMARK  2 active torsions:
REMARK  status: ('A' for Active; 'I' for Inactive)
REMARK    1  A    between atoms: C2_3  and  N2_4
REMARK    2  A    between atoms: C3_9  and  N4_10
ROOT
HETATM    1  C1  UNL     1      52.691  38.032  27.148  1.00  0.00     0.198 C
HETATM    2  N1  UNL     1      51.427  37.751  27.814  1.00  0.00    -0.124 N
HETATM    3  C2  UNL     1      51.183  38.288  29.008  1.00  0.00     0.694 A
HETATM    4  N3  UNL     1      50.030  38.076  29.693  1.00  0.00    -0.170 N
ATOM      5  H3  UNL     1      49.879  38.506  30.606  1.00  0.00     0.186 HD
HETATM    6  C3  UNL     1      49.093  37.287  29.140  1.00  0.00     0.185 A
HETATM    7  C4  UNL     1      49.344  36.737  27.917  1.00  0.00     0.306 A
HETATM    8  O1  UNL     1      48.439  35.992  27.414  1.00  0.00    -0.262 OA
HETATM    9  N5  UNL     1      50.500  36.974  27.273  1.00  0.00    -0.243 N
HETATM   10  C5  UNL     1      50.757  36.388  25.979  1.00  0.00     0.182 C
ENDROOT
BRANCH   3  11
HETATM   11  N2  UNL     1      52.070  39.045  29.550  1.00  0.00    -0.233 N
ATOM     12  H22 UNL     1      51.808  39.557  30.392  1.00  0.00     0.174 HD
ATOM     13  H21 UNL     1      52.995  39.109  29.125  1.00  0.00     0.174 HD
ENDBRANCH   3  11
BRANCH   6  14
HETATM   14  N4  UNL     1      47.969  37.042  29.740  1.00  0.00    -0.380 N
ATOM     15  H42 UNL     1      47.450  36.194  29.515  1.00  0.00     0.157 HD
ATOM     16  H41 UNL     1      47.585  37.680  30.437  1.00  0.00     0.157 HD
ENDBRANCH   6  14
TORSDOF 2
ENDMDL