MODEL 4
REMARK VINA RESULT: -5.138612579      1.212      2.567
REMARK  2 active torsions:
REMARK  status: ('A' for Active; 'I' for Inactive)
REMARK    1  A    between atoms: N1_1  and  N2_4
REMARK    2  A    between atoms: N2_4  and  C1_6
ROOT
HETATM    1  C1  UNL     1      50.854  38.438  27.063  1.00  0.00     0.704 A
HETATM    2  N3  UNL     1      50.828  39.089  28.230  1.00  0.00    -0.139 N
ATOM      3  H3  UNL     1      51.451  39.887  28.359  1.00  0.00     0.189 HD
HETATM    4  C2  UNL     1      50.015  38.735  29.243  1.00  0.00     0.342 A
HETATM    5  O1  UNL     1      50.002  39.360  30.337  1.00  0.00    -0.246 OA
HETATM    6  N4  UNL     1      49.198  37.684  29.067  1.00  0.00    -0.260 N
ATOM      7  H4  UNL     1      48.571  37.393  29.816  1.00  0.00     0.175 HD
HETATM    8  C3  UNL     1      49.212  37.023  27.911  1.00  0.00     0.342 A
HETATM    9  O2  UNL     1      48.448  36.040  27.745  1.00  0.00    -0.246 OA
HETATM   10  N5  UNL     1      50.039  37.393  26.896  1.00  0.00    -0.139 N
ATOM     11  H5  UNL     1      50.037  36.877  26.017  1.00  0.00     0.189 HD
ENDROOT
BRANCH   1  12
HETATM   12  N2  UNL     1      51.634  38.796  26.126  1.00  0.00    -0.138 N
ATOM     13  H2  UNL     1      52.499  39.267  26.387  1.00  0.00     0.205 HD
BRANCH  12  14
HETATM   14  N1  UNL     1      51.395  38.593  24.775  1.00  0.00    -0.331 N
ATOM     15  H12 UNL     1      51.966  37.884  24.315  1.00  0.00     0.177 HD
ATOM     16  H11 UNL     1      50.701  39.095  24.223  1.00  0.00     0.177 HD
ENDBRANCH  12  14
ENDBRANCH   1  12
TORSDOF 2
ENDMDL