MODEL 5
REMARK VINA RESULT: -9.122039670      4.690     12.942
REMARK  17 active torsions:
REMARK  status: ('A' for Active; 'I' for Inactive)
REMARK    1  A    between atoms: N1_1  and  C1_4
REMARK    2  A    between atoms: C2_7  and  N3_8
REMARK    3  A    between atoms: C4_10  and  N4_11
REMARK    4  A    between atoms: C5_15  and  S1_16
REMARK    5  A    between atoms: S1_16  and  N5_19
REMARK    6  A    between atoms: N5_19  and  C6_21
REMARK    7  A    between atoms: C6_21  and  C7_22
REMARK    8  A    between atoms: C7_22  and  O3_23
REMARK    9  A    between atoms: O3_23  and  C8_24
REMARK   10  A    between atoms: C13_34  and  N8_35
REMARK   11  A    between atoms: N8_35  and  C14_37
REMARK   12  A    between atoms: C15_38  and  N9_39
REMARK   13  A    between atoms: C18_45  and  S2_46
REMARK   14  A    between atoms: S2_46  and  N10_49
REMARK   15  A    between atoms: N10_49  and  N11_50
REMARK   16  A    between atoms: N10_49  and  N12_53
REMARK   17  A    between atoms: C19_56  and  O7_57
ROOT
HETATM    1  C1  UNL     1      18.471  44.068 101.618  1.00  0.00     0.705 A
HETATM    2  N2  UNL     1      18.209  42.937 102.291  1.00  0.00    -0.022 N
ATOM      3  H2  UNL     1      17.858  42.971 103.247  1.00  0.00     0.203 HD
HETATM    4  C2  UNL     1      18.421  41.749 101.676  1.00  0.00     0.709 A
HETATM    5  N7  UNL     1      18.878  41.755 100.437  1.00  0.00    -0.021 N
ATOM      6  H7  UNL     1      19.034  40.854  99.985  1.00  0.00     0.203 HD
HETATM    7  C13 UNL     1      19.158  42.884  99.717  1.00  0.00     0.707 A
HETATM    8  N13 UNL     1      18.940  44.048 100.348  1.00  0.00    -0.022 N
ATOM      9  H13 UNL     1      19.128  44.926  99.866  1.00  0.00     0.203 HD
ENDROOT
BRANCH   4  10
HETATM   10  N3  UNL     1      18.165  40.516 102.330  1.00  0.00    -0.213 N
HETATM   11  C3  UNL     1      17.000  39.694 102.182  1.00  0.00     0.175 C
HETATM   12  C4  UNL     1      17.043  38.719 103.373  1.00  0.00     0.223 C
HETATM   13  C5  UNL     1      18.109  39.314 104.272  1.00  0.00     0.179 C
HETATM   14  C12 UNL     1      19.061  39.889 103.272  1.00  0.00     0.165 C
BRANCH  12  15
HETATM   15  N4  UNL     1      15.741  38.701 104.037  1.00  0.00    -0.072 N
ATOM     16  H43 UNL     1      14.971  38.818 103.378  1.00  0.00     0.274 HD
ATOM     17  H42 UNL     1      15.498  37.773 104.383  1.00  0.00     0.274 HD
ATOM     18  H41 UNL     1      15.726  39.404 104.776  1.00  0.00     0.274 HD
ENDBRANCH  12  15
BRANCH  13  19
HETATM   19  S1  UNL     1      18.796  38.235 105.451  1.00  0.00     0.234 S
HETATM   20  O1  UNL     1      19.691  39.103 106.358  1.00  0.00    -0.205 OA
HETATM   21  O2  UNL     1      19.770  37.324 104.679  1.00  0.00    -0.205 OA
BRANCH  19  22
HETATM   22  N5  UNL     1      17.747  37.333 106.380  1.00  0.00    -0.317 N
ATOM     23  H5  UNL     1      17.179  36.608 105.942  1.00  0.00     0.172 HD
BRANCH  22  24
HETATM   24  C6  UNL     1      17.640  37.565 107.761  1.00  0.00     0.158 C
BRANCH  24  25
HETATM   25  C7  UNL     1      16.161  37.686 108.191  1.00  0.00     0.188 C
BRANCH  25  26
HETATM   26  O3  UNL     1      16.107  37.526 109.560  1.00  0.00    -0.382 OA
BRANCH  26  27
HETATM   27  C8  UNL     1      15.153  36.667 110.024  1.00  0.00     0.148 C
HETATM   28  C9  UNL     1      14.940  35.465 109.097  1.00  0.00     0.155 C
HETATM   29  N6  UNL     1      14.216  34.579 110.014  1.00  0.00    -0.359 N
HETATM   30  C10 UNL     1      14.629  34.839 111.343  1.00  0.00     0.220 C
ATOM     31  H6  UNL     1      13.523  33.883 109.737  1.00  0.00     0.162 HD
HETATM   32  O4  UNL     1      14.205  34.235 112.352  1.00  0.00    -0.274 OA
HETATM   33  C11 UNL     1      15.624  35.933 111.293  1.00  0.00     0.136 C
ENDBRANCH  26  27
ENDBRANCH  25  26
ENDBRANCH  24  25
ENDBRANCH  22  24
ENDBRANCH  19  22
ENDBRANCH  13  19
ENDBRANCH   4  10
BRANCH   1  34
HETATM   34  N1  UNL     1      18.260  45.188 102.225  1.00  0.00    -0.234 N
ATOM     35  H12 UNL     1      19.004  45.878 102.320  1.00  0.00     0.174 HD
ATOM     36  H11 UNL     1      17.326  45.353 102.601  1.00  0.00     0.174 HD
ENDBRANCH   1  34
BRANCH   7  37
HETATM   37  N8  UNL     1      19.580  42.716  98.568  1.00  0.00    -0.216 N
ATOM     38  H8  UNL     1      18.820  42.440  97.945  1.00  0.00     0.178 HD
BRANCH  37  39
HETATM   39  C14 UNL     1      20.783  42.789  97.865  1.00  0.00     0.159 C
HETATM   40  C15 UNL     1      21.356  41.530  97.335  1.00  0.00     0.209 C
HETATM   41  C16 UNL     1      21.491  41.628  95.824  1.00  0.00     0.036 C
HETATM   42  C17 UNL     1      22.370  42.789  95.438  1.00  0.00     0.026 C
HETATM   43  C18 UNL     1      21.947  44.091  96.045  1.00  0.00     0.158 C
HETATM   44  C19 UNL     1      20.717  43.914  96.863  1.00  0.00     0.163 C
BRANCH  40  45
HETATM   45  N9  UNL     1      20.655  40.327  97.648  1.00  0.00    -0.073 N
ATOM     46  H93 UNL     1      21.248  39.723  98.219  1.00  0.00     0.274 HD
ATOM     47  H92 UNL     1      19.905  40.529  98.309  1.00  0.00     0.274 HD
ATOM     48  H91 UNL     1      20.283  39.796  96.861  1.00  0.00     0.274 HD
ENDBRANCH  40  45
BRANCH  43  49
HETATM   49  S2  UNL     1      23.252  44.878  96.937  1.00  0.00     0.252 S
HETATM   50  O5  UNL     1      24.561  44.275  96.477  1.00  0.00    -0.208 OA
HETATM   51  O6  UNL     1      23.069  44.790  98.412  1.00  0.00    -0.208 OA
BRANCH  49  52
HETATM   52  N10 UNL     1      23.260  46.571  96.517  1.00  0.00    -0.035 NA
BRANCH  52  53
HETATM   53  N11 UNL     1      24.249  46.885  95.610  1.00  0.00    -0.332 NA
ATOM     54 2H11 UNL     1      24.938  46.147  95.459  1.00  0.00     0.173 HD
ATOM     55 1H11 UNL     1      23.874  47.228  94.726  1.00  0.00     0.173 HD
ENDBRANCH  52  53
BRANCH  52  56
HETATM   56  N12 UNL     1      23.240  47.371  97.651  1.00  0.00    -0.332 NA
ATOM     57 2H12 UNL     1      23.595  48.317  97.511  1.00  0.00     0.173 HD
ATOM     58 1H12 UNL     1      23.681  46.903  98.443  1.00  0.00     0.173 HD
ENDBRANCH  52  56
ENDBRANCH  49  52
ENDBRANCH  43  49
BRANCH  44  59
HETATM   59  O7  UNL     1      20.540  45.087  97.649  1.00  0.00    -0.392 OA
ATOM     60  H7  UNL     1      21.162  45.711  97.293  1.00  0.00     0.210 HD
ENDBRANCH  44  59
ENDBRANCH  37  39
ENDBRANCH   7  37
TORSDOF 17
ENDMDL