MODEL 4
REMARK VINA RESULT: -9.073514415      1.152      1.648
REMARK  13 active torsions:
REMARK  status: ('A' for Active; 'I' for Inactive)
REMARK    1  A    between atoms: C2_2  and  C3_3
REMARK    2  A    between atoms: C2_2  and  N2_7
REMARK    3  A    between atoms: C3_3  and  C4_4
REMARK       I    between atoms: N2_7  and  C5_9
REMARK    4  A    between atoms: C5_9  and  C6_11
REMARK    5  A    between atoms: C6_11  and  N3_12
REMARK    6  A    between atoms: C6_11  and  C21_52
REMARK       I    between atoms: N3_12  and  C7_14
REMARK    7  A    between atoms: C7_14  and  C8_16
REMARK    8  A    between atoms: C10_20  and  C11_21
REMARK    9  A    between atoms: C17_34  and  N6_35
REMARK   10  A    between atoms: N8_44  and  C20_45
REMARK   11  A    between atoms: C20_45  and  O10_46
REMARK   12  A    between atoms: N9_48  and  O11_50
REMARK       I    between atoms: C21_52  and  N10_54
REMARK   13  A    between atoms: N10_54  and  N11_56
ROOT
HETATM    1  C8  UNL     1      17.631  36.601 106.885  1.00  0.00     0.281 C
HETATM    2  C9  UNL     1      16.664  37.437 107.658  1.00  0.00     0.292 C
HETATM    3  O4  UNL     1      15.786  38.070 107.019  1.00  0.00    -0.262 OA
HETATM    4  O5  UNL     1      16.676  37.561 109.033  1.00  0.00    -0.303 OA
HETATM    5  C10 UNL     1      16.787  36.551 109.982  1.00  0.00     0.245 C
HETATM    6  C12 UNL     1      15.827  36.800 111.152  1.00  0.00     0.220 C
HETATM    7  O7  UNL     1      15.554  35.644 111.890  1.00  0.00    -0.317 OA
HETATM    8  C13 UNL     1      14.474  34.836 111.607  1.00  0.00     0.276 C
HETATM    9  O8  UNL     1      13.875  34.262 112.539  1.00  0.00    -0.263 OA
HETATM   10  C14 UNL     1      14.053  34.668 110.229  1.00  0.00     0.233 C
HETATM   11  N5  UNL     1      12.717  34.238 110.031  1.00  0.00    -0.352 N
ATOM     12  H5  UNL     1      12.200  33.848 110.819  1.00  0.00     0.162 HD
HETATM   13  C15 UNL     1      12.084  34.332 108.775  1.00  0.00     0.220 C
HETATM   14  O9  UNL     1      11.326  33.396 108.371  1.00  0.00    -0.274 OA
HETATM   15  C16 UNL     1      12.264  35.488 107.892  1.00  0.00     0.137 C
HETATM   16  C17 UNL     1      12.211  35.180 106.418  1.00  0.00     0.217 C
HETATM   17  C18 UNL     1      13.529  34.722 105.849  1.00  0.00     0.267 C
HETATM   18  N7  UNL     1      14.657  35.305 106.548  1.00  0.00    -0.057 N
ATOM     19  H71 UNL     1      14.975  34.727 107.325  1.00  0.00     0.279 HD
ATOM     20  H72 UNL     1      14.398  36.132 107.084  1.00  0.00     0.279 HD
HETATM   21  C19 UNL     1      15.692  35.568 105.605  1.00  0.00     0.361 C
HETATM   22  N8  UNL     1      17.027  35.536 106.177  1.00  0.00    -0.299 N
ENDROOT
BRANCH   1  23
HETATM   23  C7  UNL     1      18.514  37.440 106.050  1.00  0.00     0.251 C
HETATM   24  N3  UNL     1      18.078  38.232 104.963  1.00  0.00    -0.338 N
ATOM     25  H3  UNL     1      17.090  38.254 104.711  1.00  0.00     0.163 HD
HETATM   26  O3  UNL     1      19.750  37.430 106.353  1.00  0.00    -0.271 OA
BRANCH  24  27
HETATM   27  C6  UNL     1      19.060  39.033 104.187  1.00  0.00     0.271 C
BRANCH  27  28
HETATM   28  C5  UNL     1      18.310  40.057 103.419  1.00  0.00     0.250 C
HETATM   29  N2  UNL     1      18.664  41.408 103.365  1.00  0.00    -0.354 N
ATOM     30  H2  UNL     1      19.480  41.734 103.882  1.00  0.00     0.162 HD
HETATM   31  O2  UNL     1      17.271  39.726 102.755  1.00  0.00    -0.271 OA
BRANCH  29  32
HETATM   32  C2  UNL     1      17.889  42.360 102.584  1.00  0.00     0.088 C
HETATM   33  C1  UNL     1      16.747  42.959 103.355  1.00  0.00     0.032 C
BRANCH  32  34
HETATM   34  C3  UNL     1      18.775  43.424 101.950  1.00  0.00     0.124 C
BRANCH  34  35
HETATM   35  C4  UNL     1      19.825  43.881 102.870  1.00  0.00     0.233 C
HETATM   36  N1  UNL     1      20.962  43.065 103.088  1.00  0.00    -0.062 NA
HETATM   37  O1  UNL     1      19.718  44.974 103.451  1.00  0.00    -0.277 OA
ENDBRANCH  34  35
ENDBRANCH  32  34
ENDBRANCH  29  32
ENDBRANCH  27  28
BRANCH  27  38
HETATM   38  C21 UNL     1      19.735  38.112 103.232  1.00  0.00     0.267 C
HETATM   39  O12 UNL     1      21.014  38.110 103.143  1.00  0.00    -0.269 OA
HETATM   40  N10 UNL     1      19.024  37.235 102.406  1.00  0.00    -0.274 N
ATOM     41  H10 UNL     1      18.005  37.206 102.434  1.00  0.00     0.189 HD
BRANCH  40  42
HETATM   42  N11 UNL     1      19.748  36.383 101.525  1.00  0.00    -0.343 N
ATOM     43 2H11 UNL     1      20.541  35.847 101.879  1.00  0.00     0.176 HD
ATOM     44 1H11 UNL     1      19.458  36.323 100.548  1.00  0.00     0.176 HD
ENDBRANCH  40  42
ENDBRANCH  27  38
ENDBRANCH  24  27
ENDBRANCH   1  23
BRANCH  22  45
HETATM   45  C20 UNL     1      17.732  34.328 106.004  1.00  0.00     0.241 C
HETATM   46  N9  UNL     1      18.355  33.927 104.988  1.00  0.00    -0.233 N
ATOM     47  H9  UNL     1      18.793  33.012 105.094  1.00  0.00     0.198 HD
BRANCH  45  48
HETATM   48  O10 UNL     1      17.752  33.445 107.114  1.00  0.00    -0.331 OA
ATOM     49  H10 UNL     1      18.562  32.970 107.261  1.00  0.00     0.221 HD
ENDBRANCH  45  48
BRANCH  46  50
HETATM   50  O11 UNL     1      18.540  34.493 103.797  1.00  0.00    -0.287 OA
ATOM     51  H11 UNL     1      19.281  34.969 103.442  1.00  0.00     0.244 HD
ENDBRANCH  46  50
ENDBRANCH  22  45
BRANCH   5  52
HETATM   52  C11 UNL     1      18.150  36.527 110.620  1.00  0.00     0.262 C
HETATM   53  N4  UNL     1      18.370  37.147 111.877  1.00  0.00    -0.060 NA
HETATM   54  O6  UNL     1      19.123  35.963 110.065  1.00  0.00    -0.274 OA
ENDBRANCH   5  52
BRANCH  16  55
HETATM   55  N6  UNL     1      11.839  36.425 105.741  1.00  0.00    -0.073 N
ATOM     56  H63 UNL     1      12.268  36.527 104.821  1.00  0.00     0.274 HD
ATOM     57  H62 UNL     1      10.867  36.441 105.432  1.00  0.00     0.274 HD
ATOM     58  H61 UNL     1      12.070  37.187 106.379  1.00  0.00     0.274 HD
ENDBRANCH  16  55
TORSDOF 13
ENDMDL