MODEL 5
REMARK VINA RESULT: -8.432615193      2.945      4.304
REMARK  17 active torsions:
REMARK  status: ('A' for Active; 'I' for Inactive)
REMARK    1  A    between atoms: N2_3  and  N3_5
REMARK    2  A    between atoms: N3_5  and  N4_6
REMARK    3  A    between atoms: N3_5  and  C2_9
REMARK    4  A    between atoms: C2_9  and  O1_10
REMARK    5  A    between atoms: C2_9  and  C3_12
REMARK    6  A    between atoms: C4_15  and  N6_16
REMARK    7  A    between atoms: N6_16  and  C5_18
REMARK    8  A    between atoms: C6_21  and  C7_22
REMARK    9  A    between atoms: C8_23  and  C9_24
REMARK   10  A    between atoms: C9_24  and  O2_25
REMARK   11  A    between atoms: C10_29  and  N9_30
REMARK   12  A    between atoms: N11_36  and  S1_37
REMARK   13  A    between atoms: S1_37  and  N12_40
REMARK   14  A    between atoms: C12_42  and  C13_43
REMARK       I    between atoms: C13_43  and  N13_45
REMARK   15  A    between atoms: N13_45  and  C14_47
REMARK   16  A    between atoms: C14_47  and  C15_48
REMARK       I    between atoms: C15_48  and  N14_50
REMARK   17  A    between atoms: N14_50  and  N15_52
ROOT
HETATM    1  N1  UNL     1      18.316  38.980  98.242  1.00  0.00    -0.170 NA
HETATM    2  C1  UNL     1      17.835  38.034  98.689  1.00  0.00     0.199 C
HETATM    3  N2  UNL     1      17.246  36.916  99.228  1.00  0.00    -0.213 N
ATOM      4  H2  UNL     1      16.340  36.621  98.864  1.00  0.00     0.201 HD
ENDROOT
BRANCH   3   5
HETATM    5  N3  UNL     1      17.850  36.133 100.290  1.00  0.00    -0.167 N
BRANCH   5   6
HETATM    6  N4  UNL     1      17.416  34.827 100.269  1.00  0.00    -0.321 N
ATOM      7  H42 UNL     1      16.482  34.421 100.322  1.00  0.00     0.179 HD
ATOM      8  H41 UNL     1      18.184  34.178 100.102  1.00  0.00     0.179 HD
ENDBRANCH   5   6
BRANCH   5   9
HETATM    9  C2  UNL     1      18.653  36.811 101.163  1.00  0.00     0.225 C
BRANCH   9  10
HETATM   10  O1  UNL     1      19.916  36.326 101.079  1.00  0.00    -0.341 OA
ATOM     11  H1  UNL     1      20.403  36.831 100.438  1.00  0.00     0.219 HD
ENDBRANCH   9  10
BRANCH   9  12
HETATM   12  C3  UNL     1      18.611  37.864 102.128  1.00  0.00     0.179 A
HETATM   13  N5  UNL     1      19.458  38.985 101.992  1.00  0.00    -0.322 N
HETATM   14  C4  UNL     1      19.310  39.816 102.989  1.00  0.00     0.139 A
ATOM     15  H5  UNL     1      20.104  39.127 101.214  1.00  0.00     0.169 HD
HETATM   16  C11 UNL     1      18.363  39.257 103.804  1.00  0.00     0.161 A
HETATM   17  N11 UNL     1      17.951  38.058 103.255  1.00  0.00    -0.211 N
BRANCH  14  18
HETATM   18  N6  UNL     1      19.919  41.067 103.206  1.00  0.00    -0.174 N
ATOM     19  H6  UNL     1      20.608  41.115 103.956  1.00  0.00     0.186 HD
BRANCH  18  20
HETATM   20  C5  UNL     1      19.697  42.150 102.560  1.00  0.00     0.700 A
HETATM   21  N7  UNL     1      19.453  43.316 103.189  1.00  0.00    -0.167 N
HETATM   22  C6  UNL     1      19.220  44.457 102.526  1.00  0.00     0.191 A
ATOM     23  H7  UNL     1      19.445  43.330 104.209  1.00  0.00     0.186 HD
HETATM   24  N8  UNL     1      19.228  44.446 101.186  1.00  0.00    -0.168 N
HETATM   25  C10 UNL     1      19.468  43.295 100.510  1.00  0.00     0.692 A
ATOM     26  H8  UNL     1      19.051  45.309 100.671  1.00  0.00     0.186 HD
HETATM   27  N10 UNL     1      19.696  42.183 101.216  1.00  0.00    -0.022 N
ATOM     28  H10 UNL     1      19.878  41.316 100.710  1.00  0.00     0.203 HD
BRANCH  22  29
HETATM   29  C7  UNL     1      18.962  45.692 103.198  1.00  0.00    -0.027 C
HETATM   30  C8  UNL     1      18.726  46.716 103.772  1.00  0.00    -0.072 C
BRANCH  30  31
HETATM   31  C9  UNL     1      18.414  47.946 104.475  1.00  0.00     0.258 C
BRANCH  31  32
HETATM   32  O2  UNL     1      17.169  48.456 104.091  1.00  0.00    -0.389 OA
ATOM     33  H2  UNL     1      16.561  48.478 104.820  1.00  0.00     0.210 HD
ENDBRANCH  31  32
ENDBRANCH  30  31
ENDBRANCH  22  29
BRANCH  25  34
HETATM   34  N9  UNL     1      19.469  43.315  99.223  1.00  0.00    -0.234 N
ATOM     35  H92 UNL     1      18.701  43.703  98.676  1.00  0.00     0.174 HD
ATOM     36  H91 UNL     1      20.269  42.928  98.723  1.00  0.00     0.174 HD
ENDBRANCH  25  34
ENDBRANCH  18  20
ENDBRANCH  14  18
BRANCH  17  37
HETATM   37  S1  UNL     1      16.895  37.029 104.147  1.00  0.00     0.330 S
HETATM   38  O3  UNL     1      16.258  37.970 105.258  1.00  0.00    -0.182 OA
HETATM   39  O4  UNL     1      15.621  36.699 103.384  1.00  0.00    -0.182 OA
BRANCH  37  40
HETATM   40  N12 UNL     1      17.563  35.782 104.993  1.00  0.00    -0.273 N
HETATM   41  C12 UNL     1      17.582  34.450 104.740  1.00  0.00     0.175 C
ATOM     42  H12 UNL     1      18.043  36.059 105.850  1.00  0.00     0.179 HD
BRANCH  41  43
HETATM   43  C13 UNL     1      18.330  33.761 105.858  1.00  0.00     0.257 C
HETATM   44  O5  UNL     1      18.552  32.540 105.752  1.00  0.00    -0.267 OA
HETATM   45  N13 UNL     1      18.737  34.537 106.966  1.00  0.00    -0.348 N
ATOM     46  H13 UNL     1      18.535  35.535 107.021  1.00  0.00     0.163 HD
BRANCH  45  47
HETATM   47  C14 UNL     1      19.455  33.853 108.020  1.00  0.00     0.227 C
BRANCH  47  48
HETATM   48  C15 UNL     1      19.434  34.646 109.263  1.00  0.00     0.249 C
HETATM   49  O6  UNL     1      20.399  35.365 109.666  1.00  0.00    -0.270 OA
HETATM   50  N14 UNL     1      18.280  34.651 110.112  1.00  0.00    -0.286 N
ATOM     51  H14 UNL     1      17.476  34.083 109.845  1.00  0.00     0.184 HD
BRANCH  50  52
HETATM   52  N15 UNL     1      18.205  35.393 111.278  1.00  0.00    -0.201 NA
HETATM   53  C16 UNL     1      17.355  36.573 111.100  1.00  0.00     0.144 C
HETATM   54  C17 UNL     1      16.737  36.282 112.436  1.00  0.00     0.140 C
HETATM   55  N16 UNL     1      15.300  36.088 112.405  1.00  0.00    -0.334 N
HETATM   56  C19 UNL     1      17.341  34.923 112.311  1.00  0.00     0.205 C
HETATM   57  C18 UNL     1      15.057  34.705 112.206  1.00  0.00     0.317 C
ATOM     58  H16 UNL     1      14.592  36.815 112.507  1.00  0.00     0.164 HD
HETATM   59  O7  UNL     1      13.943  34.118 112.314  1.00  0.00    -0.247 OA
HETATM   60  N17 UNL     1      16.270  34.047 111.858  1.00  0.00    -0.323 N
ATOM     61  H17 UNL     1      16.368  33.148 111.388  1.00  0.00     0.166 HD
ENDBRANCH  50  52
ENDBRANCH  47  48
ENDBRANCH  45  47
ENDBRANCH  41  43
ENDBRANCH  37  40
ENDBRANCH  17  37
ENDBRANCH   9  12
ENDBRANCH   5   9
ENDBRANCH   3   5
TORSDOF 17
ENDMDL