MODEL 5
REMARK VINA RESULT: -7.543974062      5.550      7.998
REMARK  16 active torsions:
REMARK  status: ('A' for Active; 'I' for Inactive)
REMARK    1  A    between atoms: C1_2  and  C2_4
REMARK    2  A    between atoms: C2_4  and  N2_5
REMARK    3  A    between atoms: C2_4  and  C3_9
REMARK    4  A    between atoms: C3_9  and  O3_11
REMARK    5  A    between atoms: O3_11  and  C4_12
REMARK    6  A    between atoms: C4_12  and  C5_13
REMARK    7  A    between atoms: C5_13  and  O4_14
REMARK    8  A    between atoms: C5_13  and  C6_16
REMARK    9  A    between atoms: C6_16  and  N3_17
REMARK   10  A    between atoms: C6_16  and  C7_21
REMARK   11  A    between atoms: C8_24  and  O6_25
REMARK   12  A    between atoms: C9_27  and  N5_28
REMARK   13  A    between atoms: N7_35  and  C12_36
REMARK   14  A    between atoms: C12_36  and  C13_37
REMARK   15  A    between atoms: C12_36  and  C19_47
REMARK       I    between atoms: C13_37  and  N8_39
REMARK   16  A    between atoms: C17_43  and  C18_44
ROOT
HETATM    1  C4  UNL     1      14.521  35.762 109.653  1.00  0.00     0.147 C
HETATM    2  C8  UNL     1      15.952  35.642 110.155  1.00  0.00     0.190 C
HETATM    3  C9  UNL     1      16.854  35.749 108.947  1.00  0.00     0.236 C
HETATM    4  C10 UNL     1      16.065  36.451 107.883  1.00  0.00     0.134 A
HETATM    5  C11 UNL     1      14.596  36.366 108.276  1.00  0.00     0.155 A
HETATM    6  N6  UNL     1      14.506  35.490 107.152  1.00  0.00    -0.154 NA
HETATM    7  N7  UNL     1      15.812  35.654 106.766  1.00  0.00    -0.209 NA
ENDROOT
BRANCH   1   8
HETATM    8  O3  UNL     1      13.862  36.620 110.562  1.00  0.00    -0.301 OA
BRANCH   8   9
HETATM    9  C3  UNL     1      14.478  37.471 111.432  1.00  0.00     0.299 C
HETATM   10  O2  UNL     1      15.190  38.401 110.993  1.00  0.00    -0.262 OA
BRANCH   9  11
HETATM   11  C2  UNL     1      14.347  37.355 112.917  1.00  0.00     0.370 C
BRANCH  11  12
HETATM   12  C1  UNL     1      15.749  37.225 113.436  1.00  0.00     0.271 C
HETATM   13  N1  UNL     1      16.412  35.979 113.543  1.00  0.00    -0.060 NA
HETATM   14  O1  UNL     1      16.419  38.244 113.811  1.00  0.00    -0.274 OA
ENDBRANCH  11  12
BRANCH  11  15
HETATM   15  N2  UNL     1      13.806  38.585 113.455  1.00  0.00    -0.058 N
ATOM     16  H23 UNL     1      14.483  39.112 114.006  1.00  0.00     0.275 HD
ATOM     17  H22 UNL     1      13.637  39.294 112.741  1.00  0.00     0.275 HD
ATOM     18  H21 UNL     1      12.967  38.339 113.981  1.00  0.00     0.275 HD
ENDBRANCH  11  15
ENDBRANCH   9  11
ENDBRANCH   8   9
ENDBRANCH   1   8
BRANCH   1  19
HETATM   19  C5  UNL     1      13.924  34.405 109.681  1.00  0.00     0.197 C
BRANCH  19  20
HETATM   20  O4  UNL     1      13.798  33.969 110.998  1.00  0.00    -0.390 OA
ATOM     21  H4  UNL     1      13.444  33.087 111.014  1.00  0.00     0.210 HD
ENDBRANCH  19  20
BRANCH  19  22
HETATM   22  C6  UNL     1      12.620  34.188 108.991  1.00  0.00     0.303 C
BRANCH  22  23
HETATM   23  N3  UNL     1      12.945  33.185 107.928  1.00  0.00    -0.064 N
ATOM     24  H33 UNL     1      13.565  32.434 108.232  1.00  0.00     0.275 HD
ATOM     25  H32 UNL     1      12.167  32.581 107.666  1.00  0.00     0.275 HD
ATOM     26  H31 UNL     1      13.314  33.753 107.166  1.00  0.00     0.275 HD
ENDBRANCH  22  23
BRANCH  22  27
HETATM   27  C7  UNL     1      11.577  33.530 109.799  1.00  0.00     0.264 C
HETATM   28  N4  UNL     1      10.844  34.242 110.784  1.00  0.00    -0.060 NA
HETATM   29  O5  UNL     1      11.279  32.323 109.666  1.00  0.00    -0.274 OA
ENDBRANCH  22  27
ENDBRANCH  19  22
ENDBRANCH   1  19
BRANCH   2  30
HETATM   30  O6  UNL     1      16.185  34.479 110.868  1.00  0.00    -0.390 OA
ATOM     31  H6  UNL     1      16.975  34.514 111.394  1.00  0.00     0.210 HD
ENDBRANCH   2  30
BRANCH   3  32
HETATM   32  N5  UNL     1      17.226  34.395 108.581  1.00  0.00    -0.071 N
ATOM     33  H53 UNL     1      18.233  34.267 108.484  1.00  0.00     0.274 HD
ATOM     34  H52 UNL     1      17.083  33.722 109.334  1.00  0.00     0.274 HD
ATOM     35  H51 UNL     1      16.707  34.166 107.733  1.00  0.00     0.274 HD
ENDBRANCH   3  32
BRANCH   7  36
HETATM   36  C12 UNL     1      16.142  35.972 105.436  1.00  0.00     0.201 C
BRANCH  36  37
HETATM   37  C13 UNL     1      17.572  36.130 105.164  1.00  0.00     0.242 C
HETATM   38  O7  UNL     1      18.411  35.316 105.715  1.00  0.00    -0.271 OA
HETATM   39  N8  UNL     1      18.167  37.107 104.341  1.00  0.00    -0.338 N
HETATM   40  C14 UNL     1      19.593  37.242 104.000  1.00  0.00     0.127 C
HETATM   41  C17 UNL     1      17.551  38.227 103.680  1.00  0.00     0.176 C
HETATM   42  C15 UNL     1      19.643  37.940 102.669  1.00  0.00     0.022 C
HETATM   43  C16 UNL     1      18.216  38.286 102.295  1.00  0.00     0.036 C
BRANCH  41  44
HETATM   44  C18 UNL     1      17.859  39.491 104.420  1.00  0.00     0.254 C
HETATM   45  N9  UNL     1      18.092  40.695 103.703  1.00  0.00    -0.060 NA
HETATM   46  O8  UNL     1      17.918  39.513 105.668  1.00  0.00    -0.275 OA
ENDBRANCH  41  44
ENDBRANCH  36  37
BRANCH  36  47
HETATM   47  C19 UNL     1      15.423  35.016 104.508  1.00  0.00     0.172 C
HETATM   48  N10 UNL     1      15.536  35.343 103.118  1.00  0.00    -0.377 N
HETATM   49  C20 UNL     1      16.284  34.496 102.318  1.00  0.00     0.022 C
ATOM     50  H10 UNL     1      15.082  36.170 102.731  1.00  0.00     0.160 HD
HETATM   51  C21 UNL     1      16.266  34.558 100.970  1.00  0.00     0.082 C
HETATM   52  C22 UNL     1      17.117  33.498 103.023  1.00  0.00     0.133 C
HETATM   53  S1  UNL     1      15.266  35.750 100.087  1.00  0.00    -0.063 SA
HETATM   54  S2  UNL     1      16.093  33.333 104.549  1.00  0.00    -0.136 SA
ENDBRANCH  36  47
ENDBRANCH   7  36
TORSDOF 16
ENDMDL