MODEL 2
REMARK VINA RESULT: -10.868985331      3.760     10.982
REMARK  10 active torsions:
REMARK  status: ('A' for Active; 'I' for Inactive)
REMARK    1  A    between atoms: C4_10  and  C5_11
REMARK    2  A    between atoms: C7_15  and  N5_16
REMARK    3  A    between atoms: N7_23  and  C9_24
REMARK    4  A    between atoms: C9_24  and  C10_25
REMARK       I    between atoms: C10_25  and  N8_27
REMARK    5  A    between atoms: N8_27  and  C11_29
REMARK    6  A    between atoms: C11_29  and  C12_30
REMARK       I    between atoms: C12_30  and  N9_32
REMARK    7  A    between atoms: N9_32  and  C13_34
REMARK    8  A    between atoms: C15_37  and  N10_38
REMARK    9  A    between atoms: C17_43  and  C18_44
REMARK   10  A    between atoms: C20_48  and  O8_49
ROOT
HETATM    1  C1  UNL     1      15.314  36.399 113.438  1.00  0.00     0.164 C
HETATM    2  N1  UNL     1      15.453  35.935 112.062  1.00  0.00    -0.270 N
HETATM    3  C2  UNL     1      14.717  34.855 111.682  1.00  0.00     0.330 A
HETATM    4  O1  UNL     1      13.912  34.284 112.484  1.00  0.00    -0.246 OA
HETATM    5  N2  UNL     1      14.866  34.410 110.435  1.00  0.00    -0.293 N
ATOM      6  H2  UNL     1      14.322  33.601 110.132  1.00  0.00     0.172 HD
HETATM    7  C3  UNL     1      15.715  34.996 109.556  1.00  0.00     0.132 A
HETATM    8  N3  UNL     1      15.862  34.513 108.322  1.00  0.00    -0.326 N
ATOM      9  H3  UNL     1      15.300  33.704 108.058  1.00  0.00     0.169 HD
HETATM   10  C4  UNL     1      16.717  35.029 107.382  1.00  0.00     0.129 A
HETATM   11  N7  UNL     1      17.436  36.086 107.747  1.00  0.00    -0.289 N
HETATM   12  C21 UNL     1      17.313  36.618 109.013  1.00  0.00     0.269 A
HETATM   13  O9  UNL     1      18.005  37.634 109.344  1.00  0.00    -0.267 OA
HETATM   14  C22 UNL     1      16.466  36.093 109.923  1.00  0.00     0.144 A
HETATM   15  C23 UNL     1      16.306  36.550 111.221  1.00  0.00     0.270 A
HETATM   16  O10 UNL     1      16.976  37.552 111.588  1.00  0.00    -0.267 OA
ENDROOT
BRANCH  11  17
HETATM   17  C9  UNL     1      18.364  36.727 106.895  1.00  0.00     0.236 C
BRANCH  17  18
HETATM   18  C10 UNL     1      17.850  38.036 106.407  1.00  0.00     0.236 C
HETATM   19  O3  UNL     1      18.695  39.011 106.347  1.00  0.00    -0.272 OA
HETATM   20  N8  UNL     1      16.534  38.312 106.004  1.00  0.00    -0.351 N
ATOM     21  H8  UNL     1      15.815  37.590 106.030  1.00  0.00     0.163 HD
BRANCH  20  22
HETATM   22  C11 UNL     1      16.229  39.653 105.549  1.00  0.00     0.225 C
BRANCH  22  23
HETATM   23  C12 UNL     1      16.105  39.773 104.101  1.00  0.00     0.236 C
HETATM   24  O4  UNL     1      15.529  40.855 103.685  1.00  0.00    -0.272 OA
HETATM   25  N9  UNL     1      16.530  38.886 103.114  1.00  0.00    -0.346 N
ATOM     26  H9  UNL     1      17.002  38.023 103.384  1.00  0.00     0.163 HD
BRANCH  25  27
HETATM   27  C13 UNL     1      16.309  39.173 101.700  1.00  0.00     0.185 C
HETATM   28  C14 UNL     1      17.504  38.672 100.954  1.00  0.00     0.175 C
HETATM   29  O5  UNL     1      18.502  39.353 100.881  1.00  0.00    -0.293 OA
HETATM   30  C15 UNL     1      17.538  37.339 100.273  1.00  0.00     0.170 C
HETATM   31  C17 UNL     1      16.195  36.892  99.797  1.00  0.00     0.119 C
HETATM   32  C19 UNL     1      15.089  37.874  99.925  1.00  0.00     0.052 C
HETATM   33  C20 UNL     1      15.020  38.643 101.202  1.00  0.00     0.149 C
BRANCH  30  34
HETATM   34  N10 UNL     1      18.513  37.333  99.199  1.00  0.00    -0.354 N
HETATM   35  C16 UNL     1      19.628  36.729  99.282  1.00  0.00     0.197 C
HETATM   36  N11 UNL     1      20.003  36.008 100.443  1.00  0.00    -0.067 NA
HETATM   37  N12 UNL     1      20.530  36.769  98.189  1.00  0.00    -0.067 NA
ATOM     38  H10 UNL     1      18.294  37.836  98.338  1.00  0.00     0.162 HD
ENDBRANCH  30  34
BRANCH  31  39
HETATM   39  C18 UNL     1      15.873  35.572 100.419  1.00  0.00     0.179 C
HETATM   40  O6  UNL     1      14.797  35.322 101.002  1.00  0.00    -0.648 OA
HETATM   41  O7  UNL     1      16.860  34.599 100.319  1.00  0.00    -0.648 OA
ENDBRANCH  31  39
BRANCH  33  42
HETATM   42  O8  UNL     1      14.184  39.758 100.954  1.00  0.00    -0.393 OA
ATOM     43  H8  UNL     1      13.316  39.529 101.267  1.00  0.00     0.210 HD
ENDBRANCH  33  42
ENDBRANCH  25  27
ENDBRANCH  22  23
ENDBRANCH  20  22
ENDBRANCH  17  18
ENDBRANCH  11  17
BRANCH  10  44
HETATM   44  C5  UNL     1      16.684  34.397 106.073  1.00  0.00     0.093 A
HETATM   45  C6  UNL     1      15.692  34.804 105.165  1.00  0.00     0.127 A
HETATM   46  N4  UNL     1      15.533  34.246 103.961  1.00  0.00    -0.201 N
HETATM   47  C7  UNL     1      16.338  33.238 103.553  1.00  0.00     0.678 A
ATOM     48  H4  UNL     1      14.796  34.584 103.342  1.00  0.00     0.183 HD
HETATM   49  N6  UNL     1      17.291  32.830 104.403  1.00  0.00    -0.156 N
HETATM   50  C8  UNL     1      17.485  33.375 105.641  1.00  0.00     0.275 A
ATOM     51  H6  UNL     1      17.905  32.070 104.110  1.00  0.00     0.187 HD
HETATM   52  O2  UNL     1      18.409  32.889 106.334  1.00  0.00    -0.267 OA
BRANCH  47  53
HETATM   53  N5  UNL     1      16.193  32.693 102.384  1.00  0.00    -0.234 N
ATOM     54  H52 UNL     1      16.612  33.102 101.548  1.00  0.00     0.174 HD
ATOM     55  H51 UNL     1      15.650  31.839 102.264  1.00  0.00     0.174 HD
ENDBRANCH  47  53
ENDBRANCH  10  44
TORSDOF 10
ENDMDL