MODEL 2
REMARK VINA RESULT: -8.865667698      2.398      3.182
REMARK  12 active torsions:
REMARK  status: ('A' for Active; 'I' for Inactive)
REMARK    1  A    between atoms: C2_2  and  N1_3
REMARK       I    between atoms: N1_3  and  C3_5
REMARK    2  A    between atoms: C3_5  and  C4_7
REMARK    3  A    between atoms: C6_10  and  N3_11
REMARK    4  A    between atoms: C6_10  and  C7_15
REMARK       I    between atoms: C7_15  and  N4_17
REMARK    5  A    between atoms: N4_17  and  N5_18
REMARK    6  A    between atoms: N5_18  and  N6_20
REMARK    7  A    between atoms: C9_25  and  S2_26
REMARK    8  A    between atoms: N7_30  and  N8_31
REMARK       I    between atoms: N8_31  and  C10_33
REMARK    9  A    between atoms: C10_33  and  C11_35
REMARK       I    between atoms: N9_36  and  C12_38
REMARK   10  A    between atoms: C12_38  and  C13_40
REMARK   11  A    between atoms: C13_40  and  N10_41
REMARK   12  A    between atoms: C19_51  and  O10_52
ROOT
HETATM    1  C4  UNL     1      16.737  35.624 103.385  1.00  0.00     0.172 C
HETATM    2  C5  UNL     1      18.191  36.185 103.199  1.00  0.00     0.147 C
HETATM    3  N2  UNL     1      18.181  37.395 104.007  1.00  0.00    -0.320 N
HETATM    4  C6  UNL     1      18.883  38.477 103.634  1.00  0.00     0.343 C
HETATM    5  S1  UNL     1      20.454  38.320 104.583  1.00  0.00    -0.092 SA
HETATM    6  C8  UNL     1      19.604  37.344 105.945  1.00  0.00     0.154 C
HETATM    7  C9  UNL     1      18.269  37.199 105.470  1.00  0.00     0.260 C
HETATM    8  N7  UNL     1      17.766  35.747 105.676  1.00  0.00    -0.223 N
HETATM    9  C19 UNL     1      16.798  35.466 104.759  1.00  0.00     0.151 C
ENDROOT
BRANCH   8  10
HETATM   10  N8  UNL     1      18.378  34.929 106.524  1.00  0.00    -0.258 N
HETATM   11  C10 UNL     1      18.618  33.574 106.822  1.00  0.00     0.275 C
HETATM   12  O6  UNL     1      18.356  32.575 106.257  1.00  0.00    -0.265 OA
ATOM     13  H8  UNL     1      18.856  35.496 107.224  1.00  0.00     0.190 HD
BRANCH  11  14
HETATM   14  C11 UNL     1      19.358  33.369 108.153  1.00  0.00     0.166 C
HETATM   15  N9  UNL     1      18.973  33.924 109.315  1.00  0.00    -0.330 N
HETATM   16  C12 UNL     1      18.700  35.078 109.994  1.00  0.00     0.240 C
ATOM     17  H9  UNL     1      18.820  33.156 109.970  1.00  0.00     0.168 HD
HETATM   18  O7  UNL     1      18.719  36.264 109.606  1.00  0.00    -0.271 OA
BRANCH  16  19
HETATM   19  C13 UNL     1      18.311  34.935 111.525  1.00  0.00     0.236 C
BRANCH  19  20
HETATM   20  N10 UNL     1      17.168  35.720 111.733  1.00  0.00    -0.300 N
HETATM   21  C14 UNL     1      16.152  35.860 110.859  1.00  0.00     0.108 A
HETATM   22  C15 UNL     1      14.967  36.509 111.219  1.00  0.00     0.022 A
HETATM   23  C16 UNL     1      13.838  36.558 110.224  1.00  0.00     0.056 C
HETATM   24  C17 UNL     1      14.854  37.028 112.466  1.00  0.00     0.256 A
HETATM   25  O8  UNL     1      13.804  37.664 112.803  1.00  0.00    -0.267 OA
HETATM   26  N11 UNL     1      15.864  36.891 113.324  1.00  0.00    -0.275 N
HETATM   27  C18 UNL     1      16.994  36.247 112.969  1.00  0.00     0.329 A
ATOM     28  H11 UNL     1      15.782  37.279 114.264  1.00  0.00     0.173 HD
HETATM   29  O9  UNL     1      17.891  36.169 113.811  1.00  0.00    -0.246 OA
ENDBRANCH  19  20
ENDBRANCH  16  19
ENDBRANCH  11  14
ENDBRANCH   8  10
BRANCH   7  30
HETATM   30  S2  UNL     1      17.055  38.163 106.267  1.00  0.00     0.155 S
HETATM   31  O3  UNL     1      15.929  38.617 105.339  1.00  0.00    -0.592 OA
HETATM   32  O4  UNL     1      17.649  39.307 107.053  1.00  0.00    -0.592 OA
HETATM   33  O5  UNL     1      16.256  37.274 107.522  1.00  0.00    -0.592 OA
ENDBRANCH   7  30
BRANCH   9  34
HETATM   34  O10 UNL     1      15.604  34.950 105.302  1.00  0.00    -0.347 OA
ATOM     35  H10 UNL     1      14.832  35.420 105.009  1.00  0.00     0.219 HD
ENDBRANCH   9  34
BRANCH   1  36
HETATM   36  C3  UNL     1      16.338  34.707 102.403  1.00  0.00     0.234 C
HETATM   37  N1  UNL     1      15.786  33.392 102.768  1.00  0.00    -0.340 N
ATOM     38  H1  UNL     1      15.704  33.127 103.749  1.00  0.00     0.167 HD
HETATM   39  O1  UNL     1      16.401  34.917 101.203  1.00  0.00    -0.272 OA
BRANCH  37  40
HETATM   40  C2  UNL     1      15.371  32.501 101.761  1.00  0.00     0.059 C
HETATM   41  C1  UNL     1      14.962  31.118 102.176  1.00  0.00     0.055 C
ENDBRANCH  37  40
ENDBRANCH   1  36
BRANCH   4  42
HETATM   42  N3  UNL     1      18.283  39.791 104.021  1.00  0.00    -0.032 N
ATOM     43  H33 UNL     1      17.865  39.727 104.949  1.00  0.00     0.279 HD
ATOM     44  H32 UNL     1      19.019  40.472 104.202  1.00  0.00     0.279 HD
ATOM     45  H31 UNL     1      17.607  40.172 103.358  1.00  0.00     0.279 HD
ENDBRANCH   4  42
BRANCH   4  46
HETATM   46  C7  UNL     1      19.181  38.769 102.188  1.00  0.00     0.381 C
HETATM   47  O2  UNL     1      18.946  38.489 101.181  1.00  0.00    -0.249 OA
HETATM   48  N4  UNL     1      20.188  39.913 102.384  1.00  0.00    -0.266 NA
BRANCH  48  49
HETATM   49  N5  UNL     1      20.994  40.827 102.531  1.00  0.00    -0.179 N
ATOM     50  H5  UNL     1      21.977  40.579 102.643  1.00  0.00     0.223 HD
BRANCH  49  51
HETATM   51  N6  UNL     1      20.658  42.205 102.555  1.00  0.00    -0.320 N
ATOM     52  H62 UNL     1      21.299  42.840 102.081  1.00  0.00     0.179 HD
ATOM     53  H61 UNL     1      19.831  42.592 103.009  1.00  0.00     0.179 HD
ENDBRANCH  49  51
ENDBRANCH  48  49
ENDBRANCH   4  46
TORSDOF 12
ENDMDL