MODEL 4
REMARK VINA RESULT: -8.867732251      2.601      4.657
REMARK  15 active torsions:
REMARK  status: ('A' for Active; 'I' for Inactive)
REMARK    1  A    between atoms: N1_1  and  N2_4
REMARK    2  A    between atoms: N2_4  and  N3_6
REMARK    3  A    between atoms: N3_6  and  C1_8
REMARK    4  A    between atoms: C4_14  and  C5_15
REMARK    5  A    between atoms: C5_15  and  N5_16
REMARK    6  A    between atoms: N5_16  and  C6_18
REMARK    7  A    between atoms: C9_26  and  N8_27
REMARK    8  A    between atoms: N10_33  and  N11_34
REMARK    9  A    between atoms: N12_39  and  C12_40
REMARK   10  A    between atoms: N14_44  and  C14_45
REMARK   11  A    between atoms: C14_45  and  C15_46
REMARK   12  A    between atoms: C15_46  and  N15_47
REMARK       I    between atoms: N15_47  and  C16_49
REMARK   13  A    between atoms: C17_52  and  S1_53
REMARK   14  A    between atoms: S1_53  and  C18_56
REMARK   15  A    between atoms: N18_58  and  N19_60
ROOT
HETATM    1  C1  UNL     1      15.543  39.309 102.062  1.00  0.00     0.126 C
HETATM    2  C2  UNL     1      14.160  38.713 102.178  1.00  0.00     0.310 C
HETATM    3  N4  UNL     1      13.670  39.283 103.459  1.00  0.00    -0.066 N
ATOM      4  H41 UNL     1      12.658  39.222 103.558  1.00  0.00     0.277 HD
ATOM      5  H42 UNL     1      13.748  40.299 103.496  1.00  0.00     0.277 HD
HETATM    6  C3  UNL     1      14.365  38.641 104.507  1.00  0.00     0.263 C
HETATM    7  C4  UNL     1      15.875  38.918 104.436  1.00  0.00     0.155 C
HETATM    8  N12 UNL     1      16.211  39.680 103.267  1.00  0.00    -0.319 N
ENDROOT
BRANCH   7   9
HETATM    9  C5  UNL     1      16.497  37.527 104.443  1.00  0.00     0.090 C
BRANCH   9  10
HETATM   10  N5  UNL     1      17.224  37.341 105.632  1.00  0.00    -0.349 N
ATOM     11  H5  UNL     1      17.420  38.215 106.119  1.00  0.00     0.166 HD
BRANCH  10  12
HETATM   12  C6  UNL     1      17.686  36.334 106.230  1.00  0.00     0.177 A
HETATM   13  N6  UNL     1      17.935  35.144 105.673  1.00  0.00    -0.330 N
HETATM   14  C7  UNL     1      18.429  34.126 106.403  1.00  0.00     0.150 A
ATOM     15  H6  UNL     1      17.747  35.004 104.680  1.00  0.00     0.168 HD
HETATM   16  C8  UNL     1      18.694  32.892 105.844  1.00  0.00     0.290 A
HETATM   17  C10 UNL     1      18.701  34.251 107.747  1.00  0.00     0.177 A
HETATM   18  O1  UNL     1      18.452  32.756 104.615  1.00  0.00    -0.265 OA
HETATM   19  N7  UNL     1      19.187  31.840 106.521  1.00  0.00    -0.154 N
HETATM   20  C9  UNL     1      19.437  32.020 107.842  1.00  0.00     0.680 A
ATOM     21  H7  UNL     1      19.365  30.947 106.061  1.00  0.00     0.187 HD
HETATM   22  N9  UNL     1      19.194  33.209 108.435  1.00  0.00    -0.172 N
ATOM     23  H9  UNL     1      19.391  33.318 109.430  1.00  0.00     0.186 HD
HETATM   24  N10 UNL     1      18.451  35.452 108.313  1.00  0.00    -0.204 N
HETATM   25  C11 UNL     1      17.963  36.465 107.599  1.00  0.00     0.312 A
HETATM   26  O2  UNL     1      17.740  37.586 108.172  1.00  0.00    -0.262 OA
BRANCH  20  27
HETATM   27  N8  UNL     1      19.912  31.019 108.512  1.00  0.00    -0.234 N
ATOM     28  H82 UNL     1      20.789  30.571 108.245  1.00  0.00     0.174 HD
ATOM     29  H81 UNL     1      19.381  30.689 109.318  1.00  0.00     0.174 HD
ENDBRANCH  20  27
BRANCH  24  30
HETATM   30  N11 UNL     1      18.719  35.596 109.679  1.00  0.00    -0.334 N
ATOM     31 2H11 UNL     1      18.441  34.878 110.348  1.00  0.00     0.177 HD
ATOM     32 1H11 UNL     1      19.203  36.442 109.981  1.00  0.00     0.177 HD
ENDBRANCH  24  30
ENDBRANCH  10  12
ENDBRANCH   9  10
ENDBRANCH   7   9
BRANCH   8  33
HETATM   33  C12 UNL     1      17.059  40.790 103.265  1.00  0.00     0.094 A
HETATM   34  C13 UNL     1      16.468  42.102 103.282  1.00  0.00     0.140 A
HETATM   35  N13 UNL     1      17.460  42.971 103.203  1.00  0.00    -0.306 N
HETATM   36  N14 UNL     1      18.623  42.326 103.138  1.00  0.00    -0.278 N
ATOM     37  H13 UNL     1      17.350  43.985 103.194  1.00  0.00     0.186 HD
HETATM   38  C17 UNL     1      18.409  40.976 103.179  1.00  0.00     0.181 A
BRANCH  36  39
HETATM   39  C14 UNL     1      19.899  42.974 102.964  1.00  0.00     0.170 C
BRANCH  39  40
HETATM   40  C15 UNL     1      19.733  44.302 102.228  1.00  0.00     0.145 C
BRANCH  40  41
HETATM   41  N15 UNL     1      19.961  45.445 103.064  1.00  0.00    -0.344 N
HETATM   42  C16 UNL     1      18.968  46.277 103.632  1.00  0.00     0.328 C
HETATM   43  N16 UNL     1      19.311  47.389 104.451  1.00  0.00    -0.040 NA
HETATM   44  O3  UNL     1      17.738  46.045 103.419  1.00  0.00    -0.251 OA
ATOM     45  H15 UNL     1      20.933  45.681 103.268  1.00  0.00     0.163 HD
ENDBRANCH  40  41
ENDBRANCH  39  40
ENDBRANCH  36  39
BRANCH  38  46
HETATM   46  S1  UNL     1      19.654  39.798 103.190  1.00  0.00     0.256 S
HETATM   47  O4  UNL     1      19.809  39.098 104.547  1.00  0.00    -0.213 OA
HETATM   48  O5  UNL     1      21.030  40.318 102.887  1.00  0.00    -0.213 OA
BRANCH  46  49
HETATM   49  C18 UNL     1      19.392  38.487 102.056  1.00  0.00     0.238 C
HETATM   50  N17 UNL     1      19.067  38.693 100.693  1.00  0.00    -0.068 NA
HETATM   51  N18 UNL     1      19.500  37.225 102.396  1.00  0.00    -0.217 N
ATOM     52  H18 UNL     1      19.746  37.007 103.362  1.00  0.00     0.195 HD
BRANCH  51  53
HETATM   53  N19 UNL     1      19.298  36.169 101.518  1.00  0.00    -0.037 N
HETATM   54  O6  UNL     1      18.219  35.506 101.530  1.00  0.00    -0.516 OA
HETATM   55  O7  UNL     1      20.223  35.768 100.593  1.00  0.00    -0.516 OA
ENDBRANCH  51  53
ENDBRANCH  46  49
ENDBRANCH  38  46
ENDBRANCH   8  33
BRANCH   1  56
HETATM   56  N3  UNL     1      16.058  39.490 100.936  1.00  0.00    -0.273 N
ATOM     57  H3  UNL     1      16.616  40.325 100.759  1.00  0.00     0.190 HD
BRANCH  56  58
HETATM   58  N2  UNL     1      15.869  38.548  99.924  1.00  0.00    -0.248 N
ATOM     59  H2  UNL     1      15.162  38.729  99.212  1.00  0.00     0.207 HD
BRANCH  58  60
HETATM   60  N1  UNL     1      16.551  37.461  99.855  1.00  0.00    -0.331 N
ATOM     61  H12 UNL     1      17.297  37.326 100.537  1.00  0.00     0.178 HD
ATOM     62  H11 UNL     1      16.372  36.744  99.152  1.00  0.00     0.178 HD
ENDBRANCH  58  60
ENDBRANCH  56  58
ENDBRANCH   1  56
TORSDOF 15
ENDMDL