MODEL 5
REMARK VINA RESULT: -8.439148750      2.893      8.898
REMARK  11 active torsions:
REMARK  status: ('A' for Active; 'I' for Inactive)
REMARK    1  A    between atoms: N1_1  and  C1_5
REMARK    2  A    between atoms: C1_5  and  C2_6
REMARK    3  A    between atoms: C2_6  and  S1_7
REMARK    4  A    between atoms: C2_6  and  C19_49
REMARK    5  A    between atoms: S1_7  and  S2_8
REMARK    6  A    between atoms: S2_8  and  C3_9
REMARK    7  A    between atoms: C5_14  and  C6_15
REMARK    8  A    between atoms: C5_14  and  C7_17
REMARK    9  A    between atoms: C9_24  and  O6_25
REMARK   10  A    between atoms: O6_25  and  C10_26
REMARK   11  A    between atoms: C18_46  and  O11_47
ROOT
HETATM    1  C3  UNL     1      15.720  35.939 106.237  1.00  0.00     0.188 C
HETATM    2  C4  UNL     1      15.847  34.534 106.565  1.00  0.00     0.238 C
HETATM    3  O1  UNL     1      14.799  33.814 106.358  1.00  0.00    -0.272 OA
HETATM    4  N2  UNL     1      16.915  33.758 107.083  1.00  0.00    -0.319 N
ATOM      5  H2  UNL     1      16.633  32.968 107.663  1.00  0.00     0.166 HD
HETATM    6  C5  UNL     1      18.327  33.914 106.915  1.00  0.00     0.254 C
HETATM    7  N3  UNL     1      18.581  34.508 105.618  1.00  0.00    -0.318 N
ATOM      8  H3  UNL     1      19.433  34.198 105.149  1.00  0.00     0.166 HD
HETATM    9  C8  UNL     1      17.805  35.462 104.911  1.00  0.00     0.251 C
HETATM   10  O5  UNL     1      17.992  35.414 103.666  1.00  0.00    -0.271 OA
HETATM   11  C9  UNL     1      16.849  36.473 105.355  1.00  0.00     0.238 C
ENDROOT
BRANCH  11  12
HETATM   12  O6  UNL     1      16.371  37.169 104.250  1.00  0.00    -0.356 OA
BRANCH  12  13
HETATM   13  C10 UNL     1      16.208  38.532 104.462  1.00  0.00     0.262 C
HETATM   14  C11 UNL     1      15.477  39.179 103.340  1.00  0.00     0.251 C
HETATM   15  O7  UNL     1      14.500  39.948 103.628  1.00  0.00    -0.270 OA
HETATM   16  N4  UNL     1      15.770  39.014 101.981  1.00  0.00    -0.350 N
HETATM   17  C12 UNL     1      16.712  38.006 101.479  1.00  0.00     0.225 C
ATOM     18  H4  UNL     1      15.306  39.623 101.307  1.00  0.00     0.163 HD
HETATM   19  C13 UNL     1      16.972  38.178 100.032  1.00  0.00     0.235 C
HETATM   20  O8  UNL     1      16.544  37.267  99.274  1.00  0.00    -0.272 OA
HETATM   21  N5  UNL     1      17.646  39.259  99.441  1.00  0.00    -0.351 N
HETATM   22  C14 UNL     1      18.087  40.467 100.106  1.00  0.00     0.225 C
ATOM     23  H5  UNL     1      17.845  39.186  98.444  1.00  0.00     0.163 HD
HETATM   24  C15 UNL     1      19.553  40.515 100.340  1.00  0.00     0.235 C
HETATM   25  O9  UNL     1      20.282  40.231  99.353  1.00  0.00    -0.272 OA
HETATM   26  N6  UNL     1      20.158  40.856 101.582  1.00  0.00    -0.351 N
HETATM   27  C16 UNL     1      19.726  40.384 102.879  1.00  0.00     0.225 C
ATOM     28  H6  UNL     1      20.961  41.484 101.556  1.00  0.00     0.163 HD
HETATM   29  C17 UNL     1      18.587  41.121 103.424  1.00  0.00     0.237 C
HETATM   30  O10 UNL     1      18.553  42.367 103.287  1.00  0.00    -0.272 OA
HETATM   31  N7  UNL     1      17.479  40.526 104.121  1.00  0.00    -0.331 N
HETATM   32  C18 UNL     1      17.526  39.227 104.708  1.00  0.00     0.258 C
ATOM     33  H7  UNL     1      16.614  41.061 104.199  1.00  0.00     0.165 HD
BRANCH  32  34
HETATM   34  O11 UNL     1      17.739  39.426 106.094  1.00  0.00    -0.374 OA
ATOM     35  H11 UNL     1      18.652  39.618 106.271  1.00  0.00     0.212 HD
ENDBRANCH  32  34
ENDBRANCH  12  13
ENDBRANCH  11  12
BRANCH   1  36
HETATM   36  S2  UNL     1      15.491  37.107 107.553  1.00  0.00    -0.079 SA
BRANCH  36  37
HETATM   37  S1  UNL     1      14.929  36.229 109.351  1.00  0.00    -0.079 SA
BRANCH  37  38
HETATM   38  C2  UNL     1      16.288  35.591 110.274  1.00  0.00     0.184 C
BRANCH  38  39
HETATM   39  C1  UNL     1      16.007  34.582 111.321  1.00  0.00     0.256 C
BRANCH  39  40
HETATM   40  N1  UNL     1      17.282  34.028 111.791  1.00  0.00    -0.078 N
ATOM     41  H13 UNL     1      17.328  33.014 111.690  1.00  0.00     0.274 HD
ATOM     42  H12 UNL     1      18.062  34.265 111.178  1.00  0.00     0.274 HD
ATOM     43  H11 UNL     1      17.435  34.332 112.753  1.00  0.00     0.274 HD
ENDBRANCH  39  40
ENDBRANCH  38  39
BRANCH  38  44
HETATM   44  C19 UNL     1      16.982  36.747 110.927  1.00  0.00     0.189 C
HETATM   45  O12 UNL     1      17.877  37.352 110.329  1.00  0.00    -0.647 OA
HETATM   46  O13 UNL     1      16.603  37.111 112.192  1.00  0.00    -0.647 OA
ENDBRANCH  38  44
ENDBRANCH  37  38
ENDBRANCH  36  37
ENDBRANCH   1  36
BRANCH   6  47
HETATM   47  C6  UNL     1      19.004  32.573 106.951  1.00  0.00     0.296 C
HETATM   48  O2  UNL     1      19.133  31.959 105.934  1.00  0.00    -0.302 OA
ENDBRANCH   6  47
BRANCH   6  49
HETATM   49  C7  UNL     1      18.956  34.679 108.010  1.00  0.00     0.232 C
HETATM   50  O3  UNL     1      19.112  34.140 109.114  1.00  0.00    -0.644 OA
HETATM   51  O4  UNL     1      19.358  35.972 107.803  1.00  0.00    -0.644 OA
ENDBRANCH   6  49
TORSDOF 11
ENDMDL