MODEL 1
REMARK VINA RESULT: -8.749124200      0.000      0.000
REMARK  16 active torsions:
REMARK  status: ('A' for Active; 'I' for Inactive)
REMARK    1  A    between atoms: N1_5  and  C4_6
REMARK    2  A    between atoms: C5_8  and  N2_9
REMARK    3  A    between atoms: N2_9  and  C6_11
REMARK    4  A    between atoms: C7_14  and  S1_15
REMARK    5  A    between atoms: S1_15  and  N4_18
REMARK    6  A    between atoms: N5_21  and  C10_22
REMARK    7  A    between atoms: C10_22  and  C11_23
REMARK    8  A    between atoms: C11_23  and  O5_24
REMARK    9  A    between atoms: C11_23  and  C12_26
REMARK   10  A    between atoms: C12_26  and  N6_27
REMARK   11  A    between atoms: N6_27  and  C13_29
REMARK   12  A    between atoms: C14_34  and  N9_35
REMARK   13  A    between atoms: N9_35  and  C15_37
REMARK   14  A    between atoms: C15_37  and  C16_38
REMARK   15  A    between atoms: C16_38  and  O6_39
REMARK   16  A    between atoms: C18_52  and  O8_53
ROOT
HETATM    1  C6  UNL     1      18.916  37.066 103.721  1.00  0.00     0.687 A
HETATM    2  N3  UNL     1      18.792  37.955 102.674  1.00  0.00    -0.164 N
ATOM      3  H3  UNL     1      18.410  37.610 101.794  1.00  0.00     0.186 HD
HETATM    4  C7  UNL     1      19.145  39.244 102.746  1.00  0.00     0.238 A
HETATM    5  N11 UNL     1      19.641  39.646 103.925  1.00  0.00    -0.283 N
ATOM      6  H11 UNL     1      19.924  40.621 104.031  1.00  0.00     0.172 HD
HETATM    7  C17 UNL     1      19.781  38.817 104.970  1.00  0.00     0.340 A
HETATM    8  O7  UNL     1      20.246  39.200 106.072  1.00  0.00    -0.246 OA
HETATM    9  N12 UNL     1      19.421  37.535 104.869  1.00  0.00    -0.141 N
ATOM     10  H12 UNL     1      19.530  36.911 105.668  1.00  0.00     0.189 HD
ENDROOT
BRANCH   4  11
HETATM   11  S1  UNL     1      18.953  40.300 101.351  1.00  0.00     0.293 S
HETATM   12  O3  UNL     1      18.650  39.494 100.132  1.00  0.00    -0.201 OA
HETATM   13  O4  UNL     1      20.269  41.033 101.167  1.00  0.00    -0.201 OA
BRANCH  11  14
HETATM   14  N4  UNL     1      17.729  41.465 101.654  1.00  0.00    -0.110 NA
HETATM   15  C8  UNL     1      16.490  40.866 102.137  1.00  0.00     0.154 A
HETATM   16  C9  UNL     1      16.769  41.470 103.520  1.00  0.00     0.161 A
HETATM   17  N5  UNL     1      17.869  42.046 102.883  1.00  0.00    -0.304 N
BRANCH  17  18
HETATM   18  C10 UNL     1      18.380  43.314 103.088  1.00  0.00     0.139 C
BRANCH  18  19
HETATM   19  C11 UNL     1      19.848  43.550 103.070  1.00  0.00     0.078 C
BRANCH  19  20
HETATM   20  O5  UNL     1      20.637  42.477 103.419  1.00  0.00    -0.362 OA
ATOM     21  H5  UNL     1      21.308  42.232 102.793  1.00  0.00     0.217 HD
ENDBRANCH  19  20
BRANCH  19  22
HETATM   22  C12 UNL     1      20.344  44.334 101.879  1.00  0.00     0.203 C
BRANCH  22  23
HETATM   23  N6  UNL     1      19.440  44.178 100.740  1.00  0.00    -0.218 N
ATOM     24  H6  UNL     1      18.433  44.135 100.889  1.00  0.00     0.178 HD
BRANCH  23  25
HETATM   25  C13 UNL     1      19.926  44.093  99.530  1.00  0.00     0.708 A
HETATM   26  N7  UNL     1      20.251  45.100  98.691  1.00  0.00    -0.117 N
HETATM   27  N8  UNL     1      20.714  44.634  97.545  1.00  0.00    -0.117 N
ATOM     28  H7  UNL     1      20.151  46.091  98.912  1.00  0.00     0.206 HD
HETATM   29  C14 UNL     1      20.683  43.288  97.662  1.00  0.00     0.707 A
ATOM     30  H8  UNL     1      21.029  45.176  96.741  1.00  0.00     0.206 HD
HETATM   31  N10 UNL     1      20.200  42.971  98.880  1.00  0.00    -0.020 N
ATOM     32  H10 UNL     1      20.067  42.026  99.240  1.00  0.00     0.203 HD
BRANCH  29  33
HETATM   33  N9  UNL     1      21.072  42.466  96.716  1.00  0.00    -0.222 N
ATOM     34  H9  UNL     1      21.799  42.758  96.062  1.00  0.00     0.177 HD
BRANCH  33  35
HETATM   35  C15 UNL     1      20.482  41.151  96.591  1.00  0.00     0.164 C
BRANCH  35  36
HETATM   36  C16 UNL     1      21.414  40.155  97.241  1.00  0.00     0.184 C
BRANCH  36  37
HETATM   37  O6  UNL     1      21.166  40.055  98.613  1.00  0.00    -0.399 OA
ATOM     38  H6  UNL     1      21.977  40.037  99.107  1.00  0.00     0.209 HD
ENDBRANCH  36  37
ENDBRANCH  35  36
ENDBRANCH  33  35
ENDBRANCH  29  33
ENDBRANCH  23  25
ENDBRANCH  22  23
ENDBRANCH  19  22
ENDBRANCH  18  19
ENDBRANCH  17  18
ENDBRANCH  11  14
ENDBRANCH   4  11
BRANCH   1  39
HETATM   39  N2  UNL     1      18.541  35.868 103.519  1.00  0.00    -0.174 N
ATOM     40  H2  UNL     1      17.851  35.542 104.197  1.00  0.00     0.182 HD
BRANCH  39  41
HETATM   41  C5  UNL     1      18.870  34.915 102.575  1.00  0.00     0.448 C
HETATM   42  O2  UNL     1      19.802  35.335 101.641  1.00  0.00    -0.313 OA
HETATM   43  C4  UNL     1      19.775  34.454 100.571  1.00  0.00     0.292 C
HETATM   44  C18 UNL     1      18.480  33.682 100.723  1.00  0.00     0.373 C
HETATM   45  N13 UNL     1      17.745  34.417 101.759  1.00  0.00     0.000 N
ATOM     46 2H13 UNL     1      17.036  33.883 102.261  1.00  0.00     0.285 HD
ATOM     47 1H13 UNL     1      17.094  35.126 101.421  1.00  0.00     0.285 HD
BRANCH  43  48
HETATM   48  N1  UNL     1      19.884  35.067  99.278  1.00  0.00    -0.278 N
HETATM   49  C3  UNL     1      19.530  36.343  99.032  1.00  0.00     0.104 A
HETATM   50  C2  UNL     1      19.617  36.933  97.813  1.00  0.00     0.092 A
HETATM   51  C1  UNL     1      20.095  36.199  96.762  1.00  0.00     0.250 A
HETATM   52  O1  UNL     1      20.204  36.669  95.622  1.00  0.00    -0.268 OA
HETATM   53  N14 UNL     1      20.452  34.914  97.012  1.00  0.00    -0.275 N
HETATM   54  C19 UNL     1      20.353  34.359  98.229  1.00  0.00     0.331 A
ATOM     55  H14 UNL     1      20.809  34.347  96.244  1.00  0.00     0.173 HD
HETATM   56  O9  UNL     1      20.712  33.143  98.379  1.00  0.00    -0.246 OA
ENDBRANCH  43  48
BRANCH  44  57
HETATM   57  O8  UNL     1      17.789  33.704  99.533  1.00  0.00    -0.366 OA
ATOM     58  H8  UNL     1      17.645  32.814  99.233  1.00  0.00     0.212 HD
ENDBRANCH  44  57
ENDBRANCH  39  41
ENDBRANCH   1  39
TORSDOF 16
ENDMDL