MODEL 4
REMARK VINA RESULT: -9.427299387      1.317      2.108
REMARK  14 active torsions:
REMARK  status: ('A' for Active; 'I' for Inactive)
REMARK    1  A    between atoms: C2_2  and  S1_3
REMARK    2  A    between atoms: S1_3  and  N1_6
REMARK    3  A    between atoms: N1_6  and  C3_8
REMARK    4  A    between atoms: C3_8  and  C4_9
REMARK    5  A    between atoms: C3_8  and  C5_14
REMARK    6  A    between atoms: C4_9  and  N2_10
REMARK       I    between atoms: C5_14  and  N3_16
REMARK    7  A    between atoms: N3_16  and  N4_18
REMARK       I    between atoms: N4_18  and  C6_20
REMARK    8  A    between atoms: C6_20  and  C7_22
REMARK       I    between atoms: C7_22  and  N5_24
REMARK    9  A    between atoms: N5_24  and  C8_26
REMARK   10  A    between atoms: C14_36  and  N7_37
REMARK   11  A    between atoms: C15_42  and  N9_43
REMARK   12  A    between atoms: C17_48  and  O8_49
REMARK   13  A    between atoms: N11_51  and  C18_52
REMARK   14  A    between atoms: C18_52  and  C19_53
ROOT
HETATM    1  C8  UNL     1      17.575  38.969 103.762  1.00  0.00     0.179 C
HETATM    2  C9  UNL     1      18.686  39.924 103.528  1.00  0.00     0.070 C
HETATM    3  C10 UNL     1      18.874  40.502 102.197  1.00  0.00     0.186 C
HETATM    4  C11 UNL     1      19.251  39.462 101.185  1.00  0.00     0.287 C
HETATM    5  O6  UNL     1      19.249  38.265 101.475  1.00  0.00    -0.263 OA
HETATM    6  O7  UNL     1      19.622  39.769  99.875  1.00  0.00    -0.271 OA
HETATM    7  C12 UNL     1      19.745  41.037  99.271  1.00  0.00     0.147 A
HETATM    8  C13 UNL     1      19.252  42.236  99.754  1.00  0.00     0.082 A
HETATM    9  N6  UNL     1      19.473  43.345  99.034  1.00  0.00    -0.191 N
ATOM     10  H6  UNL     1      19.114  44.235  99.381  1.00  0.00     0.184 HD
HETATM   11  C14 UNL     1      20.153  43.330  97.864  1.00  0.00     0.677 A
HETATM   12  N8  UNL     1      20.645  42.157  97.372  1.00  0.00    -0.174 N
ATOM     13  H8  UNL     1      21.158  42.133  96.491  1.00  0.00     0.186 HD
HETATM   14  C15 UNL     1      20.435  41.033  98.081  1.00  0.00     0.151 A
HETATM   15  C16 UNL     1      18.486  42.550 100.983  1.00  0.00     0.182 C
HETATM   16  N10 UNL     1      17.947  41.352 101.612  1.00  0.00    -0.352 N
HETATM   17  C17 UNL     1      16.676  41.587 102.147  1.00  0.00     0.330 C
HETATM   18  N11 UNL     1      15.884  40.395 102.370  1.00  0.00    -0.299 N
HETATM   19  C20 UNL     1      16.273  39.322 103.208  1.00  0.00     0.246 C
HETATM   20  O10 UNL     1      15.333  38.552 103.520  1.00  0.00    -0.271 OA
ENDROOT
BRANCH   1  21
HETATM   21  N5  UNL     1      17.406  38.871 105.208  1.00  0.00    -0.340 N
HETATM   22  C7  UNL     1      17.626  37.666 105.932  1.00  0.00     0.311 C
HETATM   23  O5  UNL     1      17.983  36.622 105.312  1.00  0.00    -0.262 OA
ATOM     24  H5  UNL     1      17.117  39.703 105.723  1.00  0.00     0.163 HD
BRANCH  22  25
HETATM   25  C6  UNL     1      17.459  37.576 107.367  1.00  0.00     0.327 C
HETATM   26  N4  UNL     1      16.941  36.430 107.984  1.00  0.00    -0.259 N
ATOM     27  H4  UNL     1      16.677  35.642 107.393  1.00  0.00     0.190 HD
HETATM   28  O4  UNL     1      17.800  38.585 108.072  1.00  0.00    -0.261 OA
BRANCH  26  29
HETATM   29  N3  UNL     1      16.766  36.305 109.371  1.00  0.00    -0.265 N
HETATM   30  C5  UNL     1      15.588  36.631 110.034  1.00  0.00     0.261 C
HETATM   31  O3  UNL     1      14.588  37.058 109.462  1.00  0.00    -0.269 OA
ATOM     32  H3  UNL     1      17.548  35.954 109.924  1.00  0.00     0.190 HD
BRANCH  30  33
HETATM   33  C3  UNL     1      15.525  36.448 111.548  1.00  0.00     0.211 C
BRANCH  33  34
HETATM   34  N1  UNL     1      15.583  35.055 111.854  1.00  0.00    -0.304 N
ATOM     35  H1  UNL     1      14.751  34.465 111.820  1.00  0.00     0.173 HD
BRANCH  34  36
HETATM   36  S1  UNL     1      17.097  34.431 112.275  1.00  0.00     0.227 S
HETATM   37  O1  UNL     1      17.986  34.200 111.074  1.00  0.00    -0.206 OA
HETATM   38  O2  UNL     1      16.958  33.046 112.913  1.00  0.00    -0.206 OA
BRANCH  36  39
HETATM   39  C2  UNL     1      17.900  35.432 113.482  1.00  0.00     0.158 C
HETATM   40  C1  UNL     1      19.159  36.078 112.973  1.00  0.00     0.023 C
ENDBRANCH  36  39
ENDBRANCH  34  36
ENDBRANCH  33  34
BRANCH  33  41
HETATM   41  C4  UNL     1      14.361  37.193 112.085  1.00  0.00     0.264 C
BRANCH  41  42
HETATM   42  N2  UNL     1      14.530  38.602 112.241  1.00  0.00    -0.077 N
ATOM     43  H23 UNL     1      13.617  39.053 112.306  1.00  0.00     0.274 HD
ATOM     44  H22 UNL     1      14.902  38.803 113.169  1.00  0.00     0.274 HD
ATOM     45  H21 UNL     1      15.095  39.070 111.534  1.00  0.00     0.274 HD
ENDBRANCH  41  42
ENDBRANCH  33  41
ENDBRANCH  30  33
ENDBRANCH  26  29
ENDBRANCH  22  25
ENDBRANCH   1  21
BRANCH  18  46
HETATM   46  C18 UNL     1      14.611  40.224 101.725  1.00  0.00     0.229 C
BRANCH  46  47
HETATM   47  C19 UNL     1      13.533  41.047 102.280  1.00  0.00     0.249 C
HETATM   48  N12 UNL     1      12.808  40.640 103.427  1.00  0.00    -0.061 NA
HETATM   49  O9  UNL     1      13.228  42.138 101.743  1.00  0.00    -0.275 OA
ENDBRANCH  46  47
ENDBRANCH  18  46
BRANCH  17  50
HETATM   50  O8  UNL     1      16.674  42.439 103.272  1.00  0.00    -0.359 OA
ATOM     51  H8  UNL     1      16.311  43.301 103.105  1.00  0.00     0.214 HD
ENDBRANCH  17  50
BRANCH  14  52
HETATM   52  N9  UNL     1      20.883  39.909  97.652  1.00  0.00    -0.383 N
ATOM     53  H92 UNL     1      20.846  39.084  98.249  1.00  0.00     0.157 HD
ATOM     54  H91 UNL     1      21.269  39.880  96.709  1.00  0.00     0.157 HD
ENDBRANCH  14  52
BRANCH  11  55
HETATM   55  N7  UNL     1      20.375  44.385  97.157  1.00  0.00    -0.234 N
ATOM     56  H72 UNL     1      20.490  45.258  97.671  1.00  0.00     0.174 HD
ATOM     57  H71 UNL     1      20.437  44.376  96.139  1.00  0.00     0.174 HD
ENDBRANCH  11  55
TORSDOF 14
ENDMDL