MODEL 5
REMARK VINA RESULT: -7.536108653      2.150      5.543
REMARK  1 active torsions:
REMARK  status: ('A' for Active; 'I' for Inactive)
REMARK    1  A    between atoms: O1_1  and  C1_3
ROOT
HETATM    1  C1  UNL     1      13.668 -44.320 -14.104  1.00  0.00     0.091 C
HETATM    2  C2  UNL     1      12.560 -43.707 -13.354  1.00  0.00     0.043 C
HETATM    3  C3  UNL     1      12.706 -42.196 -13.420  1.00  0.00     0.029 C
HETATM    4  C4  UNL     1      13.682 -41.717 -14.425  1.00  0.00     0.168 C
HETATM    5  O2  UNL     1      13.768 -42.418 -15.588  1.00  0.00    -0.383 OA
HETATM    6  C5  UNL     1      13.622 -43.761 -15.531  1.00  0.00     0.156 C
HETATM    7  C6  UNL     1      14.713 -44.572 -16.160  1.00  0.00     0.036 C
HETATM    8  C7  UNL     1      14.445 -45.954 -15.620  1.00  0.00     0.015 C
HETATM    9  C8  UNL     1      13.651 -45.767 -14.325  1.00  0.00    -0.006 C
HETATM   10  C9  UNL     1      14.443 -46.466 -13.216  1.00  0.00     0.013 C
HETATM   11  C10 UNL     1      13.571 -47.547 -12.677  1.00  0.00     0.010 C
HETATM   12  C11 UNL     1      12.500 -47.808 -13.728  1.00  0.00    -0.040 C
HETATM   13  C12 UNL     1      11.260 -48.226 -13.021  1.00  0.00     0.009 C
HETATM   14  C13 UNL     1      10.178 -48.757 -13.875  1.00  0.00     0.001 C
HETATM   15  C14 UNL     1      10.580 -49.512 -15.075  1.00  0.00     0.000 C
HETATM   16  C15 UNL     1      11.906 -49.177 -15.653  1.00  0.00     0.001 C
HETATM   17  C16 UNL     1      12.974 -48.871 -14.658  1.00  0.00     0.009 C
HETATM   18  C17 UNL     1      12.354 -46.452 -14.405  1.00  0.00     0.022 C
ENDROOT
BRANCH   1  19
HETATM   19  O1  UNL     1      14.917 -43.973 -13.564  1.00  0.00    -0.386 OA
ATOM     20  H1  UNL     1      15.315 -44.699 -13.100  1.00  0.00     0.210 HD
ENDBRANCH   1  19
TORSDOF 1
ENDMDL