MODEL 1
REMARK VINA RESULT: -7.604986999      0.000      0.000
REMARK  0 active torsions:
REMARK  status: ('A' for Active; 'I' for Inactive)
ROOT
HETATM    1  C1  UNL     1      14.278 -50.174 -10.403  1.00  0.00     0.043 C
HETATM    2  C2  UNL     1      13.225 -49.697 -11.328  1.00  0.00    -0.083 C
HETATM    3  C3  UNL     1      11.913 -50.391 -11.347  1.00  0.00     0.043 C
HETATM    4  C4  UNL     1      13.450 -48.674 -12.121  1.00  0.00    -0.047 C
HETATM    5  C5  UNL     1      14.726 -47.914 -12.178  1.00  0.00     0.268 C
HETATM    6  N1  UNL     1      14.372 -46.604 -12.680  1.00  0.00    -0.062 N
ATOM      7  H11 UNL     1      15.151 -46.110 -13.115  1.00  0.00     0.278 HD
ATOM      8  H12 UNL     1      14.190 -45.920 -11.944  1.00  0.00     0.278 HD
HETATM    9  C6  UNL     1      13.233 -46.812 -13.581  1.00  0.00     0.133 C
HETATM   10  C7  UNL     1      13.794 -46.924 -14.978  1.00  0.00     0.042 C
HETATM   11  C8  UNL     1      14.715 -45.730 -15.177  1.00  0.00     0.040 C
HETATM   12  C9  UNL     1      13.911 -44.430 -15.151  1.00  0.00     0.061 C
HETATM   13  C10 UNL     1      13.872 -43.936 -16.584  1.00  0.00     0.038 C
HETATM   14  C11 UNL     1      13.232 -42.596 -16.646  1.00  0.00     0.005 C
HETATM   15  C12 UNL     1      13.588 -41.670 -15.537  1.00  0.00     0.026 C
HETATM   16  C13 UNL     1      14.173 -42.264 -14.334  1.00  0.00     0.168 C
HETATM   17  O1  UNL     1      14.592 -43.552 -14.370  1.00  0.00    -0.380 OA
HETATM   18  C14 UNL     1      12.498 -44.696 -14.721  1.00  0.00     0.040 C
HETATM   19  C15 UNL     1      12.390 -45.581 -13.514  1.00  0.00     0.042 C
HETATM   20  C16 UNL     1      12.534 -48.044 -13.115  1.00  0.00     0.048 C
HETATM   21  C17 UNL     1      12.149 -48.994 -14.197  1.00  0.00     0.017 C
ENDROOT
TORSDOF 0
ENDMDL