MODEL 2
REMARK VINA RESULT: -6.210347909      2.120      2.605
REMARK  5 active torsions:
REMARK  status: ('A' for Active; 'I' for Inactive)
REMARK    1  A    between atoms: C4_5  and  C5_6
REMARK    2  A    between atoms: C5_6  and  C6_7
REMARK    3  A    between atoms: C6_7  and  C7_8
REMARK       I    between atoms: C7_8  and  N1_10
REMARK    4  A    between atoms: N1_10  and  C8_12
REMARK    5  A    between atoms: C8_12  and  C11_15
ROOT
HETATM    1  C7  UNL     1      12.757 -45.982 -16.243  1.00  0.00     0.297 C
HETATM    2  O1  UNL     1      13.143 -45.837 -17.413  1.00  0.00    -0.258 OA
HETATM    3  N1  UNL     1      13.113 -45.104 -15.210  1.00  0.00    -0.341 N
ATOM      4  H1  UNL     1      12.749 -45.334 -14.285  1.00  0.00     0.164 HD
ENDROOT
BRANCH   1   5
HETATM    5  C6  UNL     1      11.892 -47.130 -15.961  1.00  0.00    -0.000 C
BRANCH   5   6
HETATM    6  C5  UNL     1      11.190 -48.076 -15.712  1.00  0.00    -0.056 C
BRANCH   6   7
HETATM    7  C4  UNL     1      10.337 -49.238 -15.380  1.00  0.00     0.031 A
HETATM    8  C3  UNL     1      10.632 -49.985 -14.271  1.00  0.00     0.071 A
HETATM    9  S1  UNL     1       9.427 -51.189 -14.266  1.00  0.00    -0.105 SA
HETATM   10  C2  UNL     1       8.574 -50.725 -15.664  1.00  0.00    -0.014 A
HETATM   11  C1  UNL     1       7.346 -51.360 -16.289  1.00  0.00     0.057 C
HETATM   12  C15 UNL     1       9.257 -49.629 -16.107  1.00  0.00    -0.030 A
HETATM   13  C16 UNL     1       8.797 -48.902 -17.368  1.00  0.00     0.050 C
ENDBRANCH   6   7
ENDBRANCH   5   6
ENDBRANCH   1   5
BRANCH   3  14
HETATM   14  C8  UNL     1      13.924 -43.925 -15.287  1.00  0.00     0.033 C
HETATM   15  C9  UNL     1      14.514 -43.777 -13.848  1.00  0.00     0.039 C
HETATM   16  C10 UNL     1      15.029 -44.129 -16.262  1.00  0.00     0.039 C
BRANCH  14  17
HETATM   17  C11 UNL     1      13.181 -42.658 -15.539  1.00  0.00    -0.027 C
HETATM   18  C12 UNL     1      11.841 -42.668 -14.781  1.00  0.00     0.017 C
HETATM   19  C13 UNL     1      12.946 -42.283 -16.952  1.00  0.00     0.017 C
HETATM   20  C14 UNL     1      13.972 -41.528 -14.827  1.00  0.00     0.017 C
ENDBRANCH  14  17
ENDBRANCH   3  14
TORSDOF 5
ENDMDL