MODEL 4
REMARK VINA RESULT: -5.669485548      4.033      7.507
REMARK  0 active torsions:
REMARK  status: ('A' for Active; 'I' for Inactive)
ROOT
HETATM    1  O1  UNL     1       7.209 -49.555 -15.060  1.00  0.00    -0.269 OA
HETATM    2  C1  UNL     1       8.261 -49.688 -14.364  1.00  0.00     0.240 C
HETATM    3  C2  UNL     1       8.156 -49.397 -12.939  1.00  0.00     0.070 C
HETATM    4  C3  UNL     1       8.518 -50.205 -11.960  1.00  0.00    -0.021 C
HETATM    5  C4  UNL     1       9.098 -51.558 -12.116  1.00  0.00     0.027 C
HETATM    6  C5  UNL     1      10.123 -51.749 -11.032  1.00  0.00     0.004 C
HETATM    7  C6  UNL     1      11.532 -51.604 -11.557  1.00  0.00     0.000 C
HETATM    8  C7  UNL     1      12.238 -50.390 -10.962  1.00  0.00     0.000 C
HETATM    9  C8  UNL     1      13.715 -50.574 -11.232  1.00  0.00     0.000 C
HETATM   10  C9  UNL     1      14.567 -49.451 -10.766  1.00  0.00     0.002 C
HETATM   11  C10 UNL     1      14.745 -48.315 -11.684  1.00  0.00     0.026 C
HETATM   12  C11 UNL     1      13.729 -48.192 -12.774  1.00  0.00     0.167 C
HETATM   13  O2  UNL     1      14.215 -47.498 -13.897  1.00  0.00    -0.391 OA
HETATM   14  C12 UNL     1      14.079 -48.252 -15.062  1.00  0.00     0.167 C
HETATM   15  C13 UNL     1      13.266 -47.521 -16.105  1.00  0.00     0.026 C
HETATM   16  C14 UNL     1      11.815 -47.441 -15.762  1.00  0.00     0.004 C
HETATM   17  C15 UNL     1      11.058 -48.707 -16.126  1.00  0.00     0.020 C
HETATM   18  C16 UNL     1      10.744 -49.525 -14.893  1.00  0.00     0.123 C
HETATM   19  N1  UNL     1       9.427 -50.104 -15.050  1.00  0.00    -0.358 N
ATOM     20  H1  UNL     1       9.331 -50.877 -15.710  1.00  0.00     0.162 HD
ENDROOT
TORSDOF 0
ENDMDL