MODEL 1
REMARK VINA RESULT: -7.614144816      0.000      0.000
REMARK  3 active torsions:
REMARK  status: ('A' for Active; 'I' for Inactive)
REMARK    1  A    between atoms: N1_1  and  C1_5
REMARK    2  A    between atoms: C1_5  and  C2_6
REMARK    3  A    between atoms: C3_7  and  C4_8
ROOT
HETATM    1  C4  UNL     1      13.827 -46.062 -16.575  1.00  0.00     0.067 C
HETATM    2  C5  UNL     1      13.956 -45.070 -15.719  1.00  0.00    -0.067 C
HETATM    3  C6  UNL     1      14.357 -43.775 -16.266  1.00  0.00     0.039 C
HETATM    4  C7  UNL     1      13.880 -42.612 -15.408  1.00  0.00    -0.010 C
HETATM    5  C8  UNL     1      12.416 -42.723 -15.085  1.00  0.00     0.009 C
HETATM    6  C9  UNL     1      12.103 -43.529 -13.875  1.00  0.00    -0.013 C
HETATM    7  C10 UNL     1      12.947 -43.100 -12.696  1.00  0.00     0.009 C
HETATM    8  C11 UNL     1      14.388 -43.373 -13.066  1.00  0.00    -0.013 C
HETATM    9  C12 UNL     1      14.755 -42.474 -14.198  1.00  0.00     0.009 C
HETATM   10  C13 UNL     1      14.648 -44.811 -13.351  1.00  0.00     0.013 C
HETATM   11  C14 UNL     1      13.667 -45.435 -14.314  1.00  0.00     0.016 C
HETATM   12  C15 UNL     1      12.245 -45.005 -14.034  1.00  0.00     0.013 C
ENDROOT
BRANCH   1  13
HETATM   13  C3  UNL     1      13.442 -47.392 -16.198  1.00  0.00    -0.076 C
HETATM   14  C2  UNL     1      13.118 -48.505 -15.864  1.00  0.00    -0.063 C
BRANCH  14  15
HETATM   15  C1  UNL     1      12.716 -49.846 -15.438  1.00  0.00     0.186 C
HETATM   16  C16 UNL     1      12.758 -49.946 -13.914  1.00  0.00     0.052 C
HETATM   17  C17 UNL     1      11.687 -50.990 -13.664  1.00  0.00     0.003 C
HETATM   18  C18 UNL     1      10.552 -50.452 -14.526  1.00  0.00     0.003 C
HETATM   19  C19 UNL     1      11.262 -50.098 -15.797  1.00  0.00     0.052 C
BRANCH  15  20
HETATM   20  N1  UNL     1      13.591 -50.864 -15.949  1.00  0.00    -0.059 N
ATOM     21  H13 UNL     1      14.239 -50.482 -16.638  1.00  0.00     0.276 HD
ATOM     22  H12 UNL     1      14.264 -51.161 -15.242  1.00  0.00     0.276 HD
ATOM     23  H11 UNL     1      13.078 -51.660 -16.326  1.00  0.00     0.276 HD
ENDBRANCH  15  20
ENDBRANCH  14  15
ENDBRANCH   1  13
TORSDOF 3
ENDMDL