MODEL 4
REMARK VINA RESULT: -7.611652627      1.254      3.205
REMARK  1 active torsions:
REMARK  status: ('A' for Active; 'I' for Inactive)
REMARK    1  A    between atoms: O1_1  and  C1_3
ROOT
HETATM    1  C1  UNL     1      12.063 -47.871 -14.069  1.00  0.00     0.151 C
HETATM    2  C2  UNL     1      13.411 -48.435 -13.800  1.00  0.00     0.151 C
HETATM    3  C3  UNL     1      14.225 -48.669 -15.080  1.00  0.00     0.037 C
HETATM    4  C4  UNL     1      14.862 -47.295 -15.254  1.00  0.00     0.035 C
HETATM    5  C5  UNL     1      14.378 -46.479 -14.043  1.00  0.00     0.128 C
HETATM    6  O2  UNL     1      14.206 -47.549 -13.127  1.00  0.00    -0.378 OA
HETATM    7  C6  UNL     1      13.137 -45.764 -14.383  1.00  0.00     0.041 C
HETATM    8  C7  UNL     1      11.948 -46.383 -13.655  1.00  0.00     0.025 C
HETATM    9  C8  UNL     1      11.760 -46.312 -12.241  1.00  0.00     0.009 C
HETATM   10  C9  UNL     1      10.972 -45.185 -11.560  1.00  0.00     0.012 C
HETATM   11  C10 UNL     1      11.608 -43.788 -11.857  1.00  0.00     0.081 C
HETATM   12  C11 UNL     1      12.421 -43.956 -12.998  1.00  0.00    -0.173 C
HETATM   13  C12 UNL     1      13.219 -44.226 -14.123  1.00  0.00     0.018 C
HETATM   14  C13 UNL     1      12.785 -43.484 -15.408  1.00  0.00     0.022 C
HETATM   15  C14 UNL     1      12.382 -42.098 -14.926  1.00  0.00     0.002 C
HETATM   16  C15 UNL     1      13.509 -41.554 -14.117  1.00  0.00     0.000 C
HETATM   17  C16 UNL     1      14.799 -42.307 -14.271  1.00  0.00     0.002 C
HETATM   18  C17 UNL     1      14.668 -43.785 -13.983  1.00  0.00     0.022 C
ENDROOT
BRANCH   1  19
HETATM   19  O1  UNL     1      11.926 -47.814 -15.478  1.00  0.00    -0.393 OA
ATOM     20  H1  UNL     1      12.544 -48.442 -15.834  1.00  0.00     0.210 HD
ENDBRANCH   1  19
TORSDOF 1
ENDMDL