MODEL 3
REMARK VINA RESULT: -7.812076073      1.859      3.293
REMARK  1 active torsions:
REMARK  status: ('A' for Active; 'I' for Inactive)
REMARK    1  A    between atoms: O1_1  and  C1_3
ROOT
HETATM    1  C1  UNL     1      14.770 -47.617 -14.873  1.00  0.00     0.061 C
HETATM    2  C2  UNL     1      13.632 -48.372 -15.450  1.00  0.00     0.042 C
HETATM    3  C3  UNL     1      12.281 -47.770 -15.253  1.00  0.00    -0.009 C
HETATM    4  C4  UNL     1      11.902 -46.723 -16.236  1.00  0.00     0.005 C
HETATM    5  C5  UNL     1      12.968 -45.809 -16.680  1.00  0.00     0.005 C
HETATM    6  C6  UNL     1      13.923 -45.365 -15.601  1.00  0.00    -0.002 C
HETATM    7  C7  UNL     1      15.083 -46.337 -15.610  1.00  0.00     0.043 C
HETATM    8  C8  UNL     1      13.211 -45.226 -14.331  1.00  0.00     0.065 C
HETATM    9  C9  UNL     1      13.657 -44.177 -13.386  1.00  0.00     0.103 C
HETATM   10  C10 UNL     1      14.659 -43.211 -13.837  1.00  0.00     0.042 C
HETATM   11  C11 UNL     1      13.889 -42.060 -14.432  1.00  0.00     0.003 C
HETATM   12  C12 UNL     1      12.711 -41.944 -13.463  1.00  0.00     0.003 C
HETATM   13  C13 UNL     1      12.509 -43.307 -12.881  1.00  0.00     0.042 C
HETATM   14  O2  UNL     1      14.064 -44.940 -12.268  1.00  0.00    -0.228 OA
HETATM   15  O3  UNL     1      13.079 -45.842 -12.186  1.00  0.00    -0.228 OA
HETATM   16  C14 UNL     1      13.204 -46.446 -13.448  1.00  0.00     0.106 C
HETATM   17  C15 UNL     1      12.052 -47.303 -13.813  1.00  0.00     0.046 C
HETATM   18  C16 UNL     1      14.500 -47.199 -13.439  1.00  0.00     0.079 C
ENDROOT
BRANCH   1  19
HETATM   19  O1  UNL     1      15.911 -48.418 -14.948  1.00  0.00    -0.390 OA
ATOM     20  H1  UNL     1      15.934 -48.823 -15.807  1.00  0.00     0.210 HD
ENDBRANCH   1  19
TORSDOF 1
ENDMDL