MODEL 5
REMARK VINA RESULT: -7.907195811      1.527      3.539
REMARK  1 active torsions:
REMARK  status: ('A' for Active; 'I' for Inactive)
REMARK    1  A    between atoms: C5_7  and  O3_8
ROOT
HETATM    1  C1  UNL     1      14.785 -47.786 -14.676  1.00  0.00     0.043 C
HETATM    2  C2  UNL     1      13.482 -47.322 -15.264  1.00  0.00     0.163 C
HETATM    3  O1  UNL     1      13.417 -47.444 -16.609  1.00  0.00    -0.235 OA
HETATM    4  O2  UNL     1      13.695 -46.451 -17.345  1.00  0.00    -0.233 OA
HETATM    5  C3  UNL     1      13.086 -45.248 -17.006  1.00  0.00     0.191 C
HETATM    6  C4  UNL     1      13.375 -44.207 -18.012  1.00  0.00     0.046 C
HETATM    7  C5  UNL     1      13.657 -44.918 -15.610  1.00  0.00     0.096 C
HETATM    8  C6  UNL     1      13.387 -43.505 -15.190  1.00  0.00     0.023 C
HETATM    9  C7  UNL     1      14.621 -42.773 -14.742  1.00  0.00     0.008 C
HETATM   10  C8  UNL     1      15.063 -42.851 -13.372  1.00  0.00     0.005 C
HETATM   11  C9  UNL     1      14.390 -43.777 -12.403  1.00  0.00    -0.014 C
HETATM   12  C10 UNL     1      13.056 -43.162 -12.082  1.00  0.00     0.009 C
HETATM   13  C11 UNL     1      12.038 -43.668 -13.027  1.00  0.00    -0.013 C
HETATM   14  C12 UNL     1      11.909 -45.133 -12.756  1.00  0.00     0.010 C
HETATM   15  C13 UNL     1      13.170 -45.820 -13.284  1.00  0.00    -0.004 C
HETATM   16  C14 UNL     1      14.398 -45.202 -12.739  1.00  0.00     0.010 C
HETATM   17  C15 UNL     1      13.038 -45.954 -14.746  1.00  0.00     0.059 C
HETATM   18  C16 UNL     1      12.168 -43.266 -14.428  1.00  0.00     0.012 C
ENDROOT
BRANCH   7  19
HETATM   19  O3  UNL     1      15.045 -45.104 -15.820  1.00  0.00    -0.386 OA
ATOM     20  H3  UNL     1      15.324 -45.428 -14.972  1.00  0.00     0.210 HD
ENDBRANCH   7  19
TORSDOF 1
ENDMDL