MODEL 5
REMARK VINA RESULT: -6.431101989      1.526      2.254
REMARK  0 active torsions:
REMARK  status: ('A' for Active; 'I' for Inactive)
ROOT
HETATM    1  C1  UNL     1      12.123 -43.442 -14.471  1.00  0.00     0.171 C
HETATM    2  N1  UNL     1      13.099 -44.429 -14.409  1.00  0.00    -0.330 N
HETATM    3  N2  UNL     1      14.144 -44.442 -15.228  1.00  0.00    -0.329 N
ATOM      4  H2  UNL     1      14.864 -43.723 -15.150  1.00  0.00     0.180 HD
HETATM    5  C2  UNL     1      14.256 -45.459 -16.210  1.00  0.00     0.042 C
HETATM    6  C3  UNL     1      13.316 -45.201 -17.376  1.00  0.00     0.040 C
HETATM    7  C4  UNL     1      15.669 -45.412 -16.777  1.00  0.00     0.040 C
HETATM    8  C5  UNL     1      13.913 -46.818 -15.661  1.00  0.00     0.022 C
HETATM    9  C6  UNL     1      14.972 -47.409 -14.787  1.00  0.00     0.012 C
HETATM   10  C7  UNL     1      14.446 -48.060 -13.562  1.00  0.00    -0.013 C
HETATM   11  C8  UNL     1      13.152 -48.785 -13.712  1.00  0.00     0.014 C
HETATM   12  C9  UNL     1      12.118 -48.015 -14.438  1.00  0.00    -0.041 C
HETATM   13  C10 UNL     1      11.824 -48.773 -15.745  1.00  0.00     0.015 C
HETATM   14  C11 UNL     1      10.801 -47.903 -13.731  1.00  0.00     0.015 C
HETATM   15  C12 UNL     1      12.664 -46.685 -14.833  1.00  0.00     0.025 C
HETATM   16  C13 UNL     1      12.743 -45.665 -13.752  1.00  0.00     0.114 C
HETATM   17  C14 UNL     1      13.545 -45.900 -12.570  1.00  0.00    -0.025 C
HETATM   18  C15 UNL     1      14.501 -44.697 -12.375  1.00  0.00     0.017 C
HETATM   19  C16 UNL     1      12.680 -45.774 -11.292  1.00  0.00     0.017 C
HETATM   20  C17 UNL     1      14.360 -47.106 -12.409  1.00  0.00     0.015 C
ENDROOT
TORSDOF 0
ENDMDL