MODEL 5
REMARK VINA RESULT: -8.461662364      1.775      5.178
REMARK  0 active torsions:
REMARK  status: ('A' for Active; 'I' for Inactive)
ROOT
HETATM    1  C1  UNL     1      13.920  75.412   6.381  1.00  0.00    -0.031 C
HETATM    2  C2  UNL     1      14.436  76.009   5.319  1.00  0.00    -0.031 C
HETATM    3  C3  UNL     1      14.630  77.442   5.111  1.00  0.00     0.027 C
HETATM    4  C4  UNL     1      15.772  78.078   5.822  1.00  0.00     0.004 C
HETATM    5  C5  UNL     1      17.123  77.509   5.558  1.00  0.00     0.001 C
HETATM    6  C6  UNL     1      17.620  76.509   6.544  1.00  0.00     0.009 C
HETATM    7  C7  UNL     1      18.692  76.990   7.465  1.00  0.00     0.037 C
HETATM    8  C8  UNL     1      19.227  75.825   8.268  1.00  0.00     0.085 C
HETATM    9  C9  UNL     1      20.553  76.310   8.816  1.00  0.00     0.025 C
HETATM   10  C10 UNL     1      20.319  77.427   9.763  1.00  0.00     0.004 C
HETATM   11  C11 UNL     1      19.312  78.436   9.396  1.00  0.00     0.032 C
HETATM   12  C12 UNL     1      18.205  77.974   8.502  1.00  0.00     0.130 C
HETATM   13  O1  UNL     1      17.172  77.379   9.176  1.00  0.00    -0.361 OA
HETATM   14  C13 UNL     1      17.449  76.242   9.867  1.00  0.00     0.217 C
HETATM   15  C14 UNL     1      16.141  75.517  10.140  1.00  0.00     0.053 C
HETATM   16  C15 UNL     1      14.934  76.278   9.625  1.00  0.00     0.004 C
HETATM   17  C16 UNL     1      13.967  75.410   8.861  1.00  0.00     0.004 C
HETATM   18  C17 UNL     1      13.424  76.098   7.606  1.00  0.00     0.027 C
HETATM   19  N1  UNL     1      18.344  75.326   9.246  1.00  0.00    -0.392 N
ATOM     20  H1  UNL     1      18.345  74.338   9.501  1.00  0.00     0.156 HD
ENDROOT
TORSDOF 0
ENDMDL