MODEL 2
REMARK VINA RESULT: -8.141656726      1.663      2.377
REMARK  1 active torsions:
REMARK  status: ('A' for Active; 'I' for Inactive)
REMARK    1  A    between atoms: C2_2  and  O1_3
ROOT
HETATM    1  C1  UNL     1      13.585  75.482   7.592  1.00  0.00     0.046 C
HETATM    2  C2  UNL     1      14.801  76.372   7.876  1.00  0.00     0.062 C
HETATM    3  C3  UNL     1      15.521  75.867   9.118  1.00  0.00     0.039 C
HETATM    4  C4  UNL     1      16.739  76.712   9.297  1.00  0.00     0.014 C
HETATM    5  C5  UNL     1      17.941  75.831   9.292  1.00  0.00    -0.025 C
HETATM    6  C6  UNL     1      17.903  74.919   8.100  1.00  0.00     0.084 C
HETATM    7  S1  UNL     1      17.163  75.552   6.649  1.00  0.00    -0.165 SA
HETATM    8  C7  UNL     1      15.705  76.482   6.697  1.00  0.00     0.111 C
HETATM    9  C8  UNL     1      19.182  76.680   9.342  1.00  0.00    -0.004 C
HETATM   10  C9  UNL     1      20.444  75.857   9.513  1.00  0.00     0.010 C
HETATM   11  C10 UNL     1      20.333  74.985  10.732  1.00  0.00    -0.013 C
HETATM   12  C11 UNL     1      20.219  75.875  11.956  1.00  0.00     0.009 C
HETATM   13  C12 UNL     1      18.943  76.715  11.828  1.00  0.00    -0.013 C
HETATM   14  C13 UNL     1      19.083  77.552  10.589  1.00  0.00     0.010 C
HETATM   15  C14 UNL     1      17.793  75.765  11.795  1.00  0.00     0.010 C
HETATM   16  C15 UNL     1      17.883  74.951  10.529  1.00  0.00    -0.004 C
HETATM   17  C16 UNL     1      19.137  74.087  10.631  1.00  0.00     0.010 C
ENDROOT
BRANCH   2  18
HETATM   18  O1  UNL     1      14.269  77.611   8.241  1.00  0.00    -0.389 OA
ATOM     19  H1  UNL     1      13.629  77.814   7.567  1.00  0.00     0.210 HD
ENDBRANCH   2  18
TORSDOF 1
ENDMDL