MODEL 5
REMARK VINA RESULT: -6.499541421      5.138      7.670
REMARK  1 active torsions:
REMARK  status: ('A' for Active; 'I' for Inactive)
REMARK    1  A    between atoms: C3_3  and  O1_4
ROOT
HETATM    1  C1  UNL     1      12.292  76.729   1.562  1.00  0.00     0.100 C
HETATM    2  C2  UNL     1      13.449  76.831   1.961  1.00  0.00    -0.140 C
HETATM    3  C3  UNL     1      14.825  76.983   2.427  1.00  0.00     0.197 C
HETATM    4  C4  UNL     1      14.833  78.057   3.471  1.00  0.00     0.061 C
HETATM    5  C5  UNL     1      15.803  77.874   4.568  1.00  0.00     0.004 C
HETATM    6  C6  UNL     1      15.162  78.282   5.901  1.00  0.00     0.000 C
HETATM    7  C7  UNL     1      15.656  77.388   7.016  1.00  0.00     0.000 C
HETATM    8  C8  UNL     1      14.505  77.026   7.935  1.00  0.00     0.000 C
HETATM    9  C9  UNL     1      14.444  75.511   8.128  1.00  0.00     0.000 C
HETATM   10  C10 UNL     1      13.036  74.991   8.097  1.00  0.00     0.000 C
HETATM   11  C11 UNL     1      12.640  74.660   6.659  1.00  0.00     0.000 C
HETATM   12  C12 UNL     1      13.242  73.344   6.283  1.00  0.00     0.000 C
HETATM   13  C13 UNL     1      12.633  72.704   5.078  1.00  0.00     0.002 C
HETATM   14  C14 UNL     1      12.454  73.639   3.919  1.00  0.00     0.027 C
HETATM   15  C15 UNL     1      13.712  73.798   3.090  1.00  0.00     0.178 C
HETATM   16  O2  UNL     1      14.577  74.774   3.557  1.00  0.00    -0.318 OA
HETATM   17  C16 UNL     1      15.354  75.685   2.925  1.00  0.00     0.305 C
HETATM   18  O3  UNL     1      16.615  75.550   2.682  1.00  0.00    -0.261 OA
ENDROOT
BRANCH   3  19
HETATM   19  O1  UNL     1      15.547  77.434   1.295  1.00  0.00    -0.369 OA
ATOM     20  H1  UNL     1      16.238  77.982   1.648  1.00  0.00     0.212 HD
ENDBRANCH   3  19
TORSDOF 1
ENDMDL