MODEL 1
REMARK VINA RESULT: -6.677001881      0.000      0.000
REMARK  1 active torsions:
REMARK  status: ('A' for Active; 'I' for Inactive)
REMARK    1  A    between atoms: N1_7  and  C6_8
ROOT
HETATM    1  C1  UNL     1      15.096  77.654   5.292  1.00  0.00     0.056 C
HETATM    2  C2  UNL     1      15.992  77.464   6.498  1.00  0.00    -0.018 A
HETATM    3  C3  UNL     1      17.272  77.868   6.646  1.00  0.00     0.029 A
HETATM    4  C4  UNL     1      17.898  77.591   7.826  1.00  0.00     0.015 A
HETATM    5  C5  UNL     1      17.171  76.919   8.768  1.00  0.00     0.091 A
HETATM    6  S1  UNL     1      15.650  76.704   7.972  1.00  0.00    -0.076 SA
HETATM    7  N1  UNL     1      17.693  76.551  10.061  1.00  0.00    -0.308 N
HETATM    8  C10 UNL     1      19.046  76.909  10.368  1.00  0.00     0.181 A
HETATM    9  S2  UNL     1      19.645  76.506  11.787  1.00  0.00    -0.040 SA
HETATM   10  N2  UNL     1      19.755  77.591   9.385  1.00  0.00    -0.337 N
HETATM   11  C11 UNL     1      21.148  77.931   9.750  1.00  0.00     0.158 C
HETATM   12  C12 UNL     1      19.339  77.995   8.118  1.00  0.00     0.107 A
ENDROOT
BRANCH   7  13
HETATM   13  C6  UNL     1      16.893  75.864  10.988  1.00  0.00     0.029 C
HETATM   14  C7  UNL     1      16.922  74.370  10.583  1.00  0.00     0.038 C
HETATM   15  C8  UNL     1      15.429  76.219  10.969  1.00  0.00     0.038 C
HETATM   16  C9  UNL     1      17.344  75.866  12.423  1.00  0.00     0.038 C
ENDBRANCH   7  13
TORSDOF 1
ENDMDL