MODEL 5
REMARK VINA RESULT: -7.708753490      2.863      5.564
REMARK  1 active torsions:
REMARK  status: ('A' for Active; 'I' for Inactive)
REMARK    1  A    between atoms: C5_6  and  O2_7
ROOT
HETATM    1  C1  UNL     1      21.299  74.231  10.726  1.00  0.00     0.046 C
HETATM    2  C2  UNL     1      20.205  75.325  10.714  1.00  0.00     0.060 C
HETATM    3  C3  UNL     1      20.519  76.325   9.698  1.00  0.00     0.072 C
HETATM    4  C4  UNL     1      20.627  77.216  10.893  1.00  0.00     0.154 C
HETATM    5  O1  UNL     1      20.463  76.169  11.764  1.00  0.00    -0.372 OA
HETATM    6  C5  UNL     1      19.559  78.218  11.055  1.00  0.00     0.147 C
HETATM    7  C6  UNL     1      18.198  77.807  10.620  1.00  0.00     0.039 C
HETATM    8  C7  UNL     1      17.597  76.685  11.390  1.00  0.00    -0.007 C
HETATM    9  C8  UNL     1      16.151  77.008  11.798  1.00  0.00     0.005 C
HETATM   10  C9  UNL     1      15.194  76.232  10.950  1.00  0.00     0.005 C
HETATM   11  C10 UNL     1      15.682  76.224   9.512  1.00  0.00    -0.010 C
HETATM   12  C11 UNL     1      14.512  75.810   8.678  1.00  0.00     0.005 C
HETATM   13  C12 UNL     1      14.932  75.121   7.407  1.00  0.00     0.000 C
HETATM   14  C13 UNL     1      15.624  73.850   7.819  1.00  0.00     0.000 C
HETATM   15  C14 UNL     1      16.718  74.039   8.801  1.00  0.00     0.005 C
HETATM   16  C15 UNL     1      16.933  75.422   9.317  1.00  0.00    -0.006 C
HETATM   17  C16 UNL     1      17.640  75.352  10.676  1.00  0.00    -0.003 C
HETATM   18  C17 UNL     1      18.905  74.641  10.700  1.00  0.00     0.043 C
ENDROOT
BRANCH   6  19
HETATM   19  O2  UNL     1      19.866  79.428  10.399  1.00  0.00    -0.393 OA
ATOM     20  H2  UNL     1      19.448  80.174  10.813  1.00  0.00     0.210 HD
ENDBRANCH   6  19
TORSDOF 1
ENDMDL