MODEL 4
REMARK VINA RESULT: -8.270047317      1.468      1.872
REMARK  1 active torsions:
REMARK  status: ('A' for Active; 'I' for Inactive)
REMARK    1  A    between atoms: O1_1  and  C1_3
ROOT
HETATM    1  C1  UNL     1      19.884  76.612   8.597  1.00  0.00     0.124 C
HETATM    2  C2  UNL     1      18.585  76.070   8.177  1.00  0.00     0.040 C
HETATM    3  C3  UNL     1      17.430  76.526   9.011  1.00  0.00     0.031 C
HETATM    4  C4  UNL     1      16.088  76.155   8.509  1.00  0.00    -0.034 C
HETATM    5  C5  UNL     1      16.036  75.194   7.374  1.00  0.00     0.010 C
HETATM    6  C6  UNL     1      15.120  75.621   6.245  1.00  0.00     0.001 C
HETATM    7  C7  UNL     1      13.783  75.964   6.875  1.00  0.00     0.000 C
HETATM    8  C8  UNL     1      14.005  77.263   7.582  1.00  0.00     0.001 C
HETATM    9  C9  UNL     1      15.255  77.393   8.327  1.00  0.00     0.010 C
HETATM   10  C10 UNL     1      15.455  75.424   9.710  1.00  0.00     0.013 C
HETATM   11  C11 UNL     1      16.107  76.058  10.884  1.00  0.00     0.039 C
HETATM   12  C12 UNL     1      17.583  76.064  10.434  1.00  0.00     0.065 C
HETATM   13  C13 UNL     1      18.060  74.656  10.538  1.00  0.00     0.038 C
HETATM   14  C14 UNL     1      19.508  74.435  10.621  1.00  0.00     0.004 C
HETATM   15  C15 UNL     1      20.374  75.601  10.853  1.00  0.00     0.009 C
HETATM   16  C16 UNL     1      20.164  76.807  10.028  1.00  0.00     0.038 C
HETATM   17  C17 UNL     1      19.197  77.712  10.752  1.00  0.00     0.176 C
HETATM   18  O2  UNL     1      18.192  76.956  11.264  1.00  0.00    -0.379 OA
ENDROOT
BRANCH   1  19
HETATM   19  O1  UNL     1      20.895  75.764   8.086  1.00  0.00    -0.395 OA
ATOM     20  H1  UNL     1      20.477  74.979   7.752  1.00  0.00     0.210 HD
ENDBRANCH   1  19
TORSDOF 1
ENDMDL