MODEL 5
REMARK VINA RESULT: -7.540466695      1.714      5.236
REMARK  2 active torsions:
REMARK  status: ('A' for Active; 'I' for Inactive)
REMARK    1  A    between atoms: C8_8  and  C9_9
REMARK    2  A    between atoms: C9_9  and  O1_10
ROOT
HETATM    1  C1  UNL     1      20.941  75.391  10.340  1.00  0.00     0.039 C
HETATM    2  C2  UNL     1      20.789  76.502   9.327  1.00  0.00     0.118 C
HETATM    3  C3  UNL     1      20.532  77.800  10.075  1.00  0.00     0.032 C
HETATM    4  C4  UNL     1      19.073  77.989  10.178  1.00  0.00     0.006 C
HETATM    5  C5  UNL     1      18.258  76.808   9.709  1.00  0.00     0.038 C
HETATM    6  C6  UNL     1      18.636  76.343   8.331  1.00  0.00     0.062 C
HETATM    7  C7  UNL     1      18.179  74.955   8.026  1.00  0.00     0.045 C
HETATM    8  C8  UNL     1      16.854  74.700   7.514  1.00  0.00     0.017 C
HETATM    9  C10 UNL     1      16.140  75.660   6.671  1.00  0.00     0.001 C
HETATM   10  C11 UNL     1      16.822  76.096   5.409  1.00  0.00     0.006 C
HETATM   11  C12 UNL     1      16.844  77.636   5.449  1.00  0.00     0.006 C
HETATM   12  C13 UNL     1      16.960  77.775   6.995  1.00  0.00    -0.003 C
HETATM   13  C14 UNL     1      18.318  77.376   7.306  1.00  0.00     0.043 C
HETATM   14  C15 UNL     1      15.787  76.963   7.324  1.00  0.00    -0.033 A
HETATM   15  C16 UNL     1      14.496  77.596   6.691  1.00  0.00     0.011 A
HETATM   16  C17 UNL     1      14.614  77.236   8.087  1.00  0.00     0.011 A
HETATM   17  O2  UNL     1      20.036  76.259   8.270  1.00  0.00    -0.375 OA
ENDROOT
BRANCH   8  18
HETATM   18  C9  UNL     1      15.889  74.354   8.671  1.00  0.00     0.169 C
BRANCH  18  19
HETATM   19  O1  UNL     1      16.669  73.846   9.710  1.00  0.00    -0.400 OA
ATOM     20  H1  UNL     1      16.124  73.233  10.189  1.00  0.00     0.209 HD
ENDBRANCH  18  19
ENDBRANCH   8  18
TORSDOF 2
ENDMDL