MODEL 5
REMARK VINA RESULT: -8.251660096      1.773      3.283
REMARK  0 active torsions:
REMARK  status: ('A' for Active; 'I' for Inactive)
ROOT
HETATM    1  N1  UNL     1      16.462  76.767   5.334  1.00  0.00    -0.405 N
ATOM      2  H11 UNL     1      15.512  76.579   5.015  1.00  0.00     0.155 HD
ATOM      3  H12 UNL     1      16.987  76.944   4.477  1.00  0.00     0.155 HD
HETATM    4  C1  UNL     1      16.867  76.773   6.522  1.00  0.00    -0.011 C
HETATM    5  C2  UNL     1      18.254  77.048   6.988  1.00  0.00     0.059 C
HETATM    6  C3  UNL     1      17.961  78.025   8.131  1.00  0.00     0.026 C
HETATM    7  C4  UNL     1      19.044  78.065   9.150  1.00  0.00     0.278 C
HETATM    8  N2  UNL     1      18.868  76.988  10.062  1.00  0.00     0.093 N
HETATM    9  C5  UNL     1      19.189  77.272  11.423  1.00  0.00     0.273 C
HETATM   10  C6  UNL     1      18.957  75.989  12.223  1.00  0.00     0.030 C
HETATM   11  C7  UNL     1      17.480  75.700  12.206  1.00  0.00     0.004 C
HETATM   12  C8  UNL     1      16.796  76.630  11.245  1.00  0.00     0.036 C
HETATM   13  C9  UNL     1      17.507  76.474   9.893  1.00  0.00     0.228 C
HETATM   14  C10 UNL     1      16.845  77.252   8.841  1.00  0.00     0.039 C
HETATM   15  C11 UNL     1      16.088  76.511   7.792  1.00  0.00     0.004 C
HETATM   16  C12 UNL     1      14.734  77.109   7.692  1.00  0.00     0.016 C
HETATM   17  C13 UNL     1      13.731  76.382   6.893  1.00  0.00     0.001 C
HETATM   18  C14 UNL     1      13.155  75.260   7.734  1.00  0.00     0.000 C
HETATM   19  C15 UNL     1      13.910  73.983   7.584  1.00  0.00     0.000 C
HETATM   20  C16 UNL     1      15.339  74.211   7.088  1.00  0.00     0.001 C
HETATM   21  C17 UNL     1      16.140  75.046   8.030  1.00  0.00     0.016 C
ENDROOT
TORSDOF 0
ENDMDL