MODEL 3
REMARK VINA RESULT: -7.953928596      2.865      5.497
REMARK  0 active torsions:
REMARK  status: ('A' for Active; 'I' for Inactive)
ROOT
HETATM    1  C1  UNL     1      17.407  75.909  12.142  1.00  0.00     0.010 C
HETATM    2  C2  UNL     1      17.994  75.736  10.736  1.00  0.00    -0.017 C
HETATM    3  C3  UNL     1      16.882  75.315   9.842  1.00  0.00     0.010 C
HETATM    4  C4  UNL     1      16.571  76.311   8.746  1.00  0.00     0.003 C
HETATM    5  C5  UNL     1      17.839  76.648   8.011  1.00  0.00    -0.002 C
HETATM    6  C6  UNL     1      17.639  77.408   6.745  1.00  0.00     0.008 C
HETATM    7  C7  UNL     1      16.369  77.251   6.038  1.00  0.00     0.032 C
HETATM    8  C8  UNL     1      15.200  76.734   6.819  1.00  0.00     0.036 C
HETATM    9  C9  UNL     1      14.484  77.873   7.519  1.00  0.00     0.039 C
HETATM   10  N1  UNL     1      14.224  76.115   5.933  1.00  0.00    -0.377 N
ATOM     11  H1  UNL     1      13.360  76.603   5.697  1.00  0.00     0.161 HD
HETATM   12  C10 UNL     1      14.462  74.950   5.451  1.00  0.00     0.172 C
HETATM   13  N2  UNL     1      15.035  74.083   6.142  1.00  0.00    -0.386 N
ATOM     14  H2  UNL     1      14.772  73.102   6.054  1.00  0.00     0.160 HD
HETATM   15  C11 UNL     1      16.094  74.483   7.084  1.00  0.00     0.132 C
HETATM   16  C12 UNL     1      15.592  75.674   7.821  1.00  0.00     0.001 C
HETATM   17  C13 UNL     1      14.366  75.275   8.602  1.00  0.00     0.020 C
HETATM   18  C14 UNL     1      18.883  77.231   8.917  1.00  0.00    -0.043 C
HETATM   19  C15 UNL     1      19.036  78.745   8.745  1.00  0.00     0.015 C
HETATM   20  C16 UNL     1      20.269  76.658   8.582  1.00  0.00     0.015 C
HETATM   21  C17 UNL     1      18.657  77.002  10.368  1.00  0.00     0.013 C
ENDROOT
TORSDOF 0
ENDMDL