MODEL 1
REMARK VINA RESULT: -7.396426185      0.000      0.000
REMARK  0 active torsions:
REMARK  status: ('A' for Active; 'I' for Inactive)
ROOT
HETATM    1  O1  UNL     1      18.759  72.376   2.613  1.00  0.00    -0.274 OA
HETATM    2  C1  UNL     1      17.774  73.142   2.519  1.00  0.00     0.219 C
HETATM    3  C2  UNL     1      17.169  73.615   3.784  1.00  0.00     0.103 C
HETATM    4  C3  UNL     1      17.598  72.806   4.964  1.00  0.00     0.009 C
HETATM    5  C4  UNL     1      16.819  73.324   6.175  1.00  0.00     0.000 C
HETATM    6  C5  UNL     1      17.457  74.579   6.715  1.00  0.00     0.000 C
HETATM    7  C6  UNL     1      16.512  75.419   7.516  1.00  0.00     0.000 C
HETATM    8  C7  UNL     1      15.517  76.174   6.676  1.00  0.00     0.000 C
HETATM    9  C8  UNL     1      16.132  77.271   5.861  1.00  0.00     0.000 C
HETATM   10  C9  UNL     1      15.033  78.166   5.337  1.00  0.00     0.000 C
HETATM   11  C10 UNL     1      14.549  77.718   3.964  1.00  0.00     0.000 C
HETATM   12  C11 UNL     1      15.233  78.521   2.901  1.00  0.00     0.002 C
HETATM   13  C12 UNL     1      16.126  77.700   2.014  1.00  0.00     0.032 C
HETATM   14  C13 UNL     1      15.455  76.475   1.462  1.00  0.00     0.124 C
HETATM   15  C14 UNL     1      15.505  76.368  -0.022  1.00  0.00     0.036 C
HETATM   16  C15 UNL     1      16.065  74.994  -0.272  1.00  0.00     0.056 C
HETATM   17  C16 UNL     1      16.104  74.368   1.080  1.00  0.00     0.223 C
HETATM   18  N1  UNL     1      17.273  73.529   1.257  1.00  0.00    -0.335 N
ATOM     19  H1  UNL     1      17.760  73.200   0.424  1.00  0.00     0.165 HD
HETATM   20  O2  UNL     1      16.009  75.367   2.022  1.00  0.00    -0.361 OA
ENDROOT
TORSDOF 0
ENDMDL