MODEL 1
REMARK VINA RESULT: -9.408940595      0.000      0.000
REMARK  10 active torsions:
REMARK  status: ('A' for Active; 'I' for Inactive)
REMARK    1  A    between atoms: C12_12  and  C13_13
REMARK    2  A    between atoms: C13_13  and  N1_14
REMARK    3  A    between atoms: N1_14  and  C14_16
REMARK    4  A    between atoms: C16_22  and  C17_23
REMARK       I    between atoms: C17_23  and  N4_25
REMARK    5  A    between atoms: N4_25  and  C18_27
REMARK    6  A    between atoms: C18_27  and  C19_28
REMARK    7  A    between atoms: N5_31  and  C22_32
REMARK    8  A    between atoms: C22_32  and  C23_33
REMARK    9  A    between atoms: C23_33  and  N6_34
REMARK   10  A    between atoms: N6_34  and  C24_36
ROOT
HETATM    1  C14 UNL     1       5.808   0.377  14.794  1.00  0.00     0.147 A
HETATM    2  N2  UNL     1       5.142   0.412  15.954  1.00  0.00    -0.283 N
ATOM      3  H2  UNL     1       5.156   1.192  16.611  1.00  0.00     0.188 HD
HETATM    4  N3  UNL     1       4.455  -0.726  16.128  1.00  0.00    -0.294 N
ATOM      5  H3  UNL     1       3.871  -0.935  16.938  1.00  0.00     0.187 HD
HETATM    6  C15 UNL     1       4.642  -1.557  15.081  1.00  0.00     0.113 A
HETATM    7  C16 UNL     1       4.405  -2.748  14.467  1.00  0.00     0.146 A
HETATM    8  N7  UNL     1       5.098  -2.768  13.285  1.00  0.00    -0.293 N
ATOM      9  H7  UNL     1       5.110  -3.535  12.612  1.00  0.00     0.187 HD
HETATM   10  N8  UNL     1       5.742  -1.636  13.168  1.00  0.00    -0.294 N
ATOM     11  H8  UNL     1       6.338  -1.384  12.381  1.00  0.00     0.187 HD
HETATM   12  C27 UNL     1       5.506  -0.848  14.234  1.00  0.00     0.124 A
ENDROOT
BRANCH   1  13
HETATM   13  N1  UNL     1       6.580   1.294  14.311  1.00  0.00    -0.373 N
ATOM     14  H1  UNL     1       6.981   1.997  14.933  1.00  0.00     0.161 HD
BRANCH  13  15
HETATM   15  C13 UNL     1       6.886   1.333  12.879  1.00  0.00     0.128 C
BRANCH  15  16
HETATM   16  C12 UNL     1       6.075   2.323  12.147  1.00  0.00     0.042 C
HETATM   17  C10 UNL     1       6.760   3.148  11.111  1.00  0.00     0.162 C
HETATM   18  C9  UNL     1       7.828   2.329  10.425  1.00  0.00     0.042 C
HETATM   19  C11 UNL     1       7.468   4.281  11.826  1.00  0.00     0.049 C
HETATM   20  N9  UNL     1       5.840   3.737  10.168  1.00  0.00     0.103 N
HETATM   21  C8  UNL     1       8.437   3.017   9.228  1.00  0.00     0.010 C
HETATM   22  C7  UNL     1       7.359   3.549   8.364  1.00  0.00     0.027 C
HETATM   23  C2  UNL     1       7.279   3.012   6.976  1.00  0.00    -0.042 C
HETATM   24  C6  UNL     1       5.977   3.128   8.894  1.00  0.00     0.229 C
HETATM   25  C1  UNL     1       7.129   1.528   6.903  1.00  0.00     0.015 C
HETATM   26  C3  UNL     1       8.416   3.454   6.092  1.00  0.00     0.015 C
HETATM   27  C4  UNL     1       5.940   3.614   6.520  1.00  0.00     0.011 C
HETATM   28  C5  UNL     1       5.105   3.676   7.808  1.00  0.00     0.037 C
HETATM   29  C30 UNL     1       4.529   3.977  10.640  1.00  0.00     0.274 C
HETATM   30  C29 UNL     1       3.845   2.730  11.067  1.00  0.00     0.031 C
HETATM   31  C28 UNL     1       4.779   1.718  11.622  1.00  0.00     0.010 C
ENDBRANCH  15  16
ENDBRANCH  13  15
ENDBRANCH   1  13
BRANCH   7  32
HETATM   32  C17 UNL     1       3.569  -3.836  14.929  1.00  0.00     0.272 C
HETATM   33  O1  UNL     1       2.950  -4.542  14.062  1.00  0.00    -0.266 OA
HETATM   34  N4  UNL     1       3.416  -4.139  16.297  1.00  0.00    -0.355 N
ATOM     35  H4  UNL     1       3.896  -3.514  16.944  1.00  0.00     0.162 HD
BRANCH  34  36
HETATM   36  C18 UNL     1       2.680  -5.204  16.898  1.00  0.00     0.127 C
BRANCH  36  37
HETATM   37  C19 UNL     1       3.373  -6.414  17.354  1.00  0.00     0.007 C
HETATM   38  C20 UNL     1       4.163  -6.097  18.621  1.00  0.00     0.036 C
HETATM   39  C21 UNL     1       4.941  -7.300  19.094  1.00  0.00     0.273 C
HETATM   40  N5  UNL     1       5.670  -7.969  18.060  1.00  0.00     0.090 N
HETATM   41  C25 UNL     1       4.731  -8.453  17.070  1.00  0.00     0.273 C
HETATM   42  C26 UNL     1       4.161  -7.168  16.386  1.00  0.00     0.036 C
BRANCH  40  43
HETATM   43  C22 UNL     1       6.443  -9.051  18.576  1.00  0.00     0.292 C
BRANCH  43  44
HETATM   44  C23 UNL     1       7.926  -8.931  18.294  1.00  0.00     0.152 C
BRANCH  44  45
HETATM   45  N6  UNL     1       8.384  -7.684  18.896  1.00  0.00    -0.367 N
ATOM     46  H6  UNL     1       8.437  -7.609  19.911  1.00  0.00     0.161 HD
BRANCH  45  47
HETATM   47  C24 UNL     1       8.760  -6.567  18.092  1.00  0.00     0.348 C
HETATM   48  O2  UNL     1       9.454  -5.671  18.625  1.00  0.00    -0.284 OA
ENDBRANCH  45  47
ENDBRANCH  44  45
ENDBRANCH  43  44
ENDBRANCH  40  43
ENDBRANCH  36  37
ENDBRANCH  34  36
ENDBRANCH   7  32
TORSDOF 10
ENDMDL