MODEL 2
REMARK VINA RESULT: -10.296893810      2.636      5.010
REMARK  12 active torsions:
REMARK  status: ('A' for Active; 'I' for Inactive)
REMARK    1  A    between atoms: C2_2  and  C3_3
REMARK    2  A    between atoms: C3_3  and  N1_4
REMARK    3  A    between atoms: N1_4  and  C4_6
REMARK    4  A    between atoms: C5_9  and  N3_10
REMARK    5  A    between atoms: N3_10  and  C6_12
REMARK    6  A    between atoms: C6_12  and  C7_13
REMARK    7  A    between atoms: C7_13  and  C8_14
REMARK    8  A    between atoms: C16_26  and  N6_27
REMARK    9  A    between atoms: N6_27  and  C17_29
REMARK   10  A    between atoms: C17_29  and  C18_30
REMARK   11  A    between atoms: C21_33  and  C22_34
REMARK       I    between atoms: N8_39  and  C25_40
REMARK       I    between atoms: C25_40  and  N9_42
REMARK   12  A    between atoms: N9_42  and  C26_44
ROOT
HETATM    1  C4  UNL     1       4.367  -7.156  16.061  1.00  0.00     0.707 A
HETATM    2  N2  UNL     1       5.290  -7.674  16.869  1.00  0.00    -0.022 N
ATOM      3  H2  UNL     1       5.511  -8.668  16.814  1.00  0.00     0.203 HD
HETATM    4  C5  UNL     1       5.945  -6.885  17.773  1.00  0.00     0.707 A
HETATM    5  N5  UNL     1       5.624  -5.585  17.813  1.00  0.00    -0.022 N
ATOM      6  H5  UNL     1       6.108  -4.989  18.484  1.00  0.00     0.203 HD
HETATM    7  C16 UNL     1       4.700  -5.024  17.018  1.00  0.00     0.707 A
HETATM    8  N12 UNL     1       4.076  -5.850  16.134  1.00  0.00    -0.022 N
ATOM      9  H12 UNL     1       3.367  -5.463  15.511  1.00  0.00     0.203 HD
ENDROOT
BRANCH   7  10
HETATM   10  N6  UNL     1       4.399  -3.763  17.064  1.00  0.00    -0.221 N
ATOM     11  H6  UNL     1       4.987  -3.144  17.621  1.00  0.00     0.178 HD
BRANCH  10  12
HETATM   12  C17 UNL     1       3.273  -3.196  16.370  1.00  0.00     0.176 C
BRANCH  12  13
HETATM   13  C18 UNL     1       3.814  -2.350  15.251  1.00  0.00    -0.040 A
HETATM   14  C19 UNL     1       3.622  -2.676  13.931  1.00  0.00     0.010 A
HETATM   15  C20 UNL     1       4.154  -1.858  12.926  1.00  0.00     0.014 A
HETATM   16  C21 UNL     1       4.858  -0.739  13.231  1.00  0.00    -0.007 A
HETATM   17  C30 UNL     1       5.048  -0.419  14.609  1.00  0.00     0.014 A
HETATM   18  C31 UNL     1       4.534  -1.214  15.559  1.00  0.00     0.010 A
BRANCH  16  19
HETATM   19  C22 UNL     1       5.360   0.239  12.277  1.00  0.00     0.070 A
HETATM   20  C23 UNL     1       6.696   0.120  11.788  1.00  0.00     0.119 A
HETATM   21  N7  UNL     1       6.970   1.132  10.972  1.00  0.00    -0.359 N
HETATM   22  C24 UNL     1       5.893   1.906  10.903  1.00  0.00     0.193 A
ATOM     23  H7  UNL     1       7.852   1.287  10.485  1.00  0.00     0.166 HD
HETATM   24  N8  UNL     1       4.900   1.344  11.720  1.00  0.00    -0.258 N
HETATM   25  C25 UNL     1       3.662   1.981  11.908  1.00  0.00     0.333 C
HETATM   26  O1  UNL     1       2.736   1.624  12.611  1.00  0.00    -0.246 OA
HETATM   27  N9  UNL     1       3.412   3.222  11.193  1.00  0.00    -0.293 N
ATOM     28  H9  UNL     1       3.844   4.093  11.500  1.00  0.00     0.172 HD
BRANCH  27  29
HETATM   29  C26 UNL     1       2.630   3.203  10.158  1.00  0.00     0.125 A
HETATM   30  C27 UNL     1       2.754   3.993   9.035  1.00  0.00     0.076 A
HETATM   31  C28 UNL     1       1.710   3.657   8.169  1.00  0.00     0.025 A
HETATM   32  C29 UNL     1       1.506   4.292   6.858  1.00  0.00     0.070 C
HETATM   33  N10 UNL     1       0.999   2.693   8.781  1.00  0.00    -0.304 N
HETATM   34  N11 UNL     1       1.553   2.436   9.952  1.00  0.00    -0.285 N
ATOM     35  H10 UNL     1       0.169   2.236   8.403  1.00  0.00     0.186 HD
ATOM     36  H11 UNL     1       1.205   1.741  10.614  1.00  0.00     0.188 HD
ENDBRANCH  27  29
ENDBRANCH  16  19
ENDBRANCH  12  13
ENDBRANCH  10  12
ENDBRANCH   7  10
BRANCH   4  37
HETATM   37  N3  UNL     1       6.810  -7.459  18.503  1.00  0.00    -0.225 N
ATOM     38  H3  UNL     1       6.460  -8.200  19.110  1.00  0.00     0.177 HD
BRANCH  37  39
HETATM   39  C6  UNL     1       8.214  -7.195  18.581  1.00  0.00     0.142 C
BRANCH  39  40
HETATM   40  C7  UNL     1       8.747  -7.067  17.164  1.00  0.00     0.061 C
BRANCH  40  41
HETATM   41  C8  UNL     1       9.231  -5.690  16.892  1.00  0.00    -0.029 A
HETATM   42  C9  UNL     1      10.306  -5.042  17.479  1.00  0.00     0.096 A
HETATM   43  N4  UNL     1      10.409  -3.813  16.958  1.00  0.00    -0.365 N
HETATM   44  C10 UNL     1       9.449  -3.597  16.040  1.00  0.00     0.042 A
ATOM     45  H4  UNL     1      11.120  -3.131  17.221  1.00  0.00     0.165 HD
HETATM   46  C11 UNL     1       9.140  -2.506  15.239  1.00  0.00     0.030 A
HETATM   47  C15 UNL     1       8.710  -4.765  15.994  1.00  0.00    -0.002 A
HETATM   48  C12 UNL     1       8.072  -2.569  14.369  1.00  0.00     0.002 A
HETATM   49  C13 UNL     1       7.338  -3.735  14.325  1.00  0.00     0.001 A
HETATM   50  C14 UNL     1       7.659  -4.820  15.133  1.00  0.00     0.014 A
ENDBRANCH  40  41
ENDBRANCH  39  40
ENDBRANCH  37  39
ENDBRANCH   4  37
BRANCH   1  51
HETATM   51  N1  UNL     1       3.751  -7.883  15.218  1.00  0.00    -0.222 N
ATOM     52  H1  UNL     1       3.378  -7.455  14.370  1.00  0.00     0.178 HD
BRANCH  51  53
HETATM   53  C3  UNL     1       3.567  -9.295  15.430  1.00  0.00     0.164 C
BRANCH  53  54
HETATM   54  C2  UNL     1       3.654  -9.985  14.120  1.00  0.00    -0.017 C
HETATM   55  C1  UNL     1       4.055 -11.251  14.103  1.00  0.00     0.008 C
ENDBRANCH  53  54
ENDBRANCH  51  53
ENDBRANCH   1  51
TORSDOF 12
ENDMDL