MODEL 1
REMARK VINA RESULT: -9.228887944      0.000      0.000
REMARK  10 active torsions:
REMARK  status: ('A' for Active; 'I' for Inactive)
REMARK    1  A    between atoms: C4_5  and  N2_6
REMARK    2  A    between atoms: N2_6  and  C5_8
REMARK    3  A    between atoms: N3_11  and  C8_12
REMARK    4  A    between atoms: C8_12  and  C9_13
REMARK    5  A    between atoms: C9_13  and  C10_14
REMARK    6  A    between atoms: C10_14  and  C11_15
REMARK    7  A    between atoms: N5_23  and  C17_24
REMARK    8  A    between atoms: C17_24  and  C18_25
REMARK    9  A    between atoms: C20_28  and  N6_29
REMARK   10  A    between atoms: C27_42  and  C28_43
ROOT
HETATM    1  C11 UNL     1       8.546  -3.159  15.418  1.00  0.00    -0.057 A
HETATM    2  C12 UNL     1       9.364  -3.793  14.516  1.00  0.00     0.009 A
HETATM    3  C13 UNL     1       9.624  -5.135  14.694  1.00  0.00     0.031 A
HETATM    4  C14 UNL     1       9.076  -5.845  15.759  1.00  0.00     0.043 A
HETATM    5  N4  UNL     1       9.355  -7.173  15.905  1.00  0.00    -0.353 N
ATOM      6  H4  UNL     1       9.967  -7.623  15.224  1.00  0.00     0.166 HD
HETATM    7  C15 UNL     1       8.857  -7.908  16.910  1.00  0.00     0.078 A
HETATM    8  C16 UNL     1       8.925  -9.215  17.345  1.00  0.00     0.142 A
HETATM    9  N5  UNL     1       8.170  -9.345  18.469  1.00  0.00    -0.295 N
HETATM   10  N8  UNL     1       7.628  -8.173  18.759  1.00  0.00    -0.296 N
ATOM     11  H8  UNL     1       7.016  -8.005  19.558  1.00  0.00     0.187 HD
HETATM   12  C21 UNL     1       7.986  -7.235  17.870  1.00  0.00     0.077 A
HETATM   13  C22 UNL     1       7.728  -5.889  17.688  1.00  0.00     0.047 A
HETATM   14  C23 UNL     1       8.260  -5.159  16.637  1.00  0.00    -0.007 A
HETATM   15  C24 UNL     1       7.989  -3.812  16.473  1.00  0.00     0.021 A
ENDROOT
BRANCH   1  16
HETATM   16  C10 UNL     1       8.260  -1.712  15.234  1.00  0.00     0.040 C
BRANCH  16  17
HETATM   17  C9  UNL     1       7.325  -1.468  14.081  1.00  0.00     0.025 C
BRANCH  17  18
HETATM   18  C8  UNL     1       5.955  -1.042  14.531  1.00  0.00     0.128 C
BRANCH  18  19
HETATM   19  N3  UNL     1       5.143  -2.139  15.032  1.00  0.00    -0.366 N
HETATM   20  C7  UNL     1       4.600  -2.121  16.263  1.00  0.00     0.092 A
HETATM   21  C6  UNL     1       3.829  -3.124  16.794  1.00  0.00     0.046 A
HETATM   22  C5  UNL     1       3.575  -4.246  16.030  1.00  0.00     0.035 A
HETATM   23  C26 UNL     1       4.121  -4.281  14.773  1.00  0.00     0.046 A
HETATM   24  C25 UNL     1       4.885  -3.240  14.304  1.00  0.00     0.092 A
BRANCH  22  25
HETATM   25  N2  UNL     1       2.722  -5.292  16.510  1.00  0.00    -0.355 N
ATOM     26  H2  UNL     1       1.821  -5.056  16.927  1.00  0.00     0.166 HD
BRANCH  25  27
HETATM   27  C4  UNL     1       3.110  -6.635  16.415  1.00  0.00     0.052 A
HETATM   28  C3  UNL     1       3.017  -7.334  15.193  1.00  0.00     0.048 A
HETATM   29  C2  UNL     1       3.484  -8.609  15.109  1.00  0.00     0.094 A
HETATM   30  N1  UNL     1       4.041  -9.263  16.130  1.00  0.00    -0.349 N
HETATM   31  C1  UNL     1       4.522 -10.636  15.962  1.00  0.00     0.156 C
HETATM   32  C29 UNL     1       4.142  -8.621  17.301  1.00  0.00     0.135 A
HETATM   33  C27 UNL     1       3.680  -7.302  17.469  1.00  0.00     0.097 A
HETATM   34  N10 UNL     1       4.731  -9.295  18.404  1.00  0.00    -0.081 NA
BRANCH  33  35
HETATM   35  C28 UNL     1       3.797  -6.735  18.781  1.00  0.00     0.270 C
HETATM   36  N9  UNL     1       2.656  -6.503  19.619  1.00  0.00    -0.057 NA
HETATM   37  O1  UNL     1       4.874  -6.401  19.296  1.00  0.00    -0.271 OA
ENDBRANCH  33  35
ENDBRANCH  25  27
ENDBRANCH  22  25
ENDBRANCH  18  19
ENDBRANCH  17  18
ENDBRANCH  16  17
ENDBRANCH   1  16
BRANCH   9  38
HETATM   38  C17 UNL     1       8.030 -10.602  19.177  1.00  0.00     0.205 C
BRANCH  38  39
HETATM   39  C18 UNL     1       9.267 -10.759  20.068  1.00  0.00     0.037 A
HETATM   40  C19 UNL     1      10.218 -11.716  19.804  1.00  0.00     0.080 A
HETATM   41  S1  UNL     1      11.341 -11.463  21.059  1.00  0.00    -0.064 SA
HETATM   42  C20 UNL     1      10.558 -10.176  21.844  1.00  0.00     0.142 A
HETATM   43  N7  UNL     1       9.464  -9.989  21.112  1.00  0.00    -0.338 N
ATOM     44  H7  UNL     1       8.792  -9.261  21.356  1.00  0.00     0.168 HD
BRANCH  42  45
HETATM   45  N6  UNL     1      10.931  -9.512  22.916  1.00  0.00    -0.380 N
ATOM     46  H62 UNL     1      10.336  -9.132  23.652  1.00  0.00     0.158 HD
ATOM     47  H61 UNL     1      11.871  -9.252  23.215  1.00  0.00     0.158 HD
ENDBRANCH  42  45
ENDBRANCH  38  39
ENDBRANCH   9  38
TORSDOF 10
ENDMDL