MODEL 5
REMARK VINA RESULT: -9.378845512      1.233      1.635
REMARK  10 active torsions:
REMARK  status: ('A' for Active; 'I' for Inactive)
REMARK    1  A    between atoms: C7_7  and  O1_8
REMARK    2  A    between atoms: C12_14  and  O2_15
REMARK    3  A    between atoms: C17_21  and  C18_22
REMARK    4  A    between atoms: C19_23  and  C20_24
REMARK    5  A    between atoms: C22_26  and  C23_27
REMARK    6  A    between atoms: C23_27  and  C24_28
REMARK       I    between atoms: C24_28  and  N1_30
REMARK       I    between atoms: N1_30  and  C25_32
REMARK    7  A    between atoms: C25_32  and  C26_34
REMARK    8  A    between atoms: C26_34  and  C27_35
REMARK    9  A    between atoms: C27_35  and  C28_36
REMARK   10  A    between atoms: C28_36  and  N2_37
ROOT
HETATM    1  C18 UNL     1       4.103  -3.405  15.395  1.00  0.00    -0.024 C
HETATM    2  C19 UNL     1       4.420  -2.648  14.363  1.00  0.00    -0.025 C
ENDROOT
BRANCH   2   3
HETATM    3  C20 UNL     1       4.296  -1.228  14.166  1.00  0.00     0.016 C
HETATM    4  C21 UNL     1       5.629  -0.674  13.658  1.00  0.00     0.014 C
HETATM    5  C22 UNL     1       5.267   0.677  13.140  1.00  0.00    -0.004 C
HETATM    6  C30 UNL     1       3.760   0.808  13.197  1.00  0.00     0.014 C
HETATM    7  C31 UNL     1       3.279  -0.657  13.292  1.00  0.00    -0.041 C
HETATM    8  C32 UNL     1       3.196  -1.132  11.888  1.00  0.00     0.015 C
HETATM    9  C33 UNL     1       1.930  -0.615  13.983  1.00  0.00     0.015 C
BRANCH   5  10
HETATM   10  C23 UNL     1       5.801   0.866  11.738  1.00  0.00     0.108 C
BRANCH  10  11
HETATM   11  C24 UNL     1       5.615   2.268  11.344  1.00  0.00     0.224 C
HETATM   12  O3  UNL     1       6.234   3.236  11.851  1.00  0.00    -0.273 OA
HETATM   13  N1  UNL     1       4.656   2.557  10.302  1.00  0.00    -0.298 N
HETATM   14  C25 UNL     1       4.428   3.883   9.864  1.00  0.00     0.224 C
ATOM     15  H1  UNL     1       4.136   1.790   9.874  1.00  0.00     0.171 HD
HETATM   16  O4  UNL     1       5.058   4.850  10.383  1.00  0.00    -0.273 OA
BRANCH  14  17
HETATM   17  C26 UNL     1       3.438   4.120   8.789  1.00  0.00     0.105 C
BRANCH  17  18
HETATM   18  C27 UNL     1       2.069   3.768   9.320  1.00  0.00     0.029 C
BRANCH  18  19
HETATM   19  C28 UNL     1       1.228   3.086   8.261  1.00  0.00     0.122 C
BRANCH  19  20
HETATM   20  N2  UNL     1       0.467   4.078   7.542  1.00  0.00    -0.367 N
HETATM   21  C29 UNL     1       0.609   4.207   6.269  1.00  0.00     0.196 C
HETATM   22  N3  UNL     1      -0.123   5.172   5.536  1.00  0.00    -0.067 NA
HETATM   23  N4  UNL     1       1.517   3.371   5.567  1.00  0.00    -0.067 NA
ATOM     24  H2  UNL     1      -0.185   4.680   8.044  1.00  0.00     0.161 HD
ENDBRANCH  19  20
ENDBRANCH  18  19
ENDBRANCH  17  18
ENDBRANCH  14  17
ENDBRANCH  10  11
ENDBRANCH   5  10
ENDBRANCH   2   3
BRANCH   1  25
HETATM   25  C17 UNL     1       4.316  -4.865  15.393  1.00  0.00     0.028 C
HETATM   26  C2  UNL     1       3.271  -5.435  16.371  1.00  0.00    -0.022 C
HETATM   27  C1  UNL     1       2.729  -6.751  15.865  1.00  0.00     0.020 C
HETATM   28  C3  UNL     1       2.115  -4.503  16.581  1.00  0.00     0.020 C
HETATM   29  C4  UNL     1       4.021  -5.556  17.630  1.00  0.00    -0.014 C
HETATM   30  C5  UNL     1       5.328  -5.532  17.430  1.00  0.00    -0.075 C
HETATM   31  C6  UNL     1       6.514  -5.615  18.311  1.00  0.00     0.066 C
HETATM   32  C16 UNL     1       5.542  -5.396  15.978  1.00  0.00     0.027 C
HETATM   33  C7  UNL     1       7.769  -6.003  17.657  1.00  0.00     0.127 C
HETATM   34  C8  UNL     1       7.857  -5.886  16.180  1.00  0.00     0.030 C
HETATM   35  C9  UNL     1       6.857  -4.864  15.606  1.00  0.00     0.002 C
HETATM   36  C13 UNL     1       9.232  -5.639  15.640  1.00  0.00    -0.015 C
HETATM   37  C10 UNL     1       7.297  -3.540  16.046  1.00  0.00     0.008 C
HETATM   38  C11 UNL     1       8.624  -3.243  15.319  1.00  0.00     0.033 C
HETATM   39  C12 UNL     1       9.685  -4.225  15.688  1.00  0.00     0.126 C
HETATM   40  C14 UNL     1      10.221  -6.503  16.354  1.00  0.00     0.018 C
HETATM   41  C15 UNL     1       9.199  -6.048  14.160  1.00  0.00     0.018 C
BRANCH  33  42
HETATM   42  O1  UNL     1       8.813  -5.248  18.231  1.00  0.00    -0.395 OA
ATOM     43  H1  UNL     1       9.534  -5.228  17.615  1.00  0.00     0.210 HD
ENDBRANCH  33  42
BRANCH  39  44
HETATM   44  O2  UNL     1      10.712  -4.089  14.722  1.00  0.00    -0.395 OA
ATOM     45  H2  UNL     1      11.501  -4.447  15.114  1.00  0.00     0.210 HD
ENDBRANCH  39  44
ENDBRANCH   1  25
TORSDOF 10
ENDMDL