MODEL 5
REMARK VINA RESULT: -8.455537413      3.104      7.375
REMARK  10 active torsions:
REMARK  status: ('A' for Active; 'I' for Inactive)
REMARK    1  A    between atoms: C2_2  and  C3_3
REMARK    2  A    between atoms: C3_3  and  C4_4
REMARK    3  A    between atoms: C4_4  and  C5_5
REMARK    4  A    between atoms: C8_8  and  O1_9
REMARK    5  A    between atoms: C9_11  and  C10_12
REMARK    6  A    between atoms: C12_14  and  C13_15
REMARK       I    between atoms: C13_15  and  N1_17
REMARK    7  A    between atoms: N1_17  and  C14_19
REMARK    8  A    between atoms: C26_31  and  C27_32
REMARK       I    between atoms: C27_32  and  N2_34
REMARK    9  A    between atoms: N2_34  and  C29_36
REMARK   10  A    between atoms: C29_36  and  C30_37
ROOT
HETATM    1  C5  UNL     1       7.949  -5.576  16.291  1.00  0.00     0.187 C
HETATM    2  C6  UNL     1       8.007  -4.129  16.744  1.00  0.00     0.040 C
HETATM    3  C7  UNL     1       6.956  -3.405  15.954  1.00  0.00     0.023 C
HETATM    4  C8  UNL     1       7.016  -1.934  16.009  1.00  0.00     0.127 C
HETATM    5  C9  UNL     1       6.150  -1.398  14.889  1.00  0.00     0.027 C
HETATM    6  C12 UNL     1       4.775  -1.899  15.081  1.00  0.00     0.085 C
HETATM    7  C24 UNL     1       4.666  -3.399  15.252  1.00  0.00     0.022 C
HETATM    8  C25 UNL     1       5.538  -3.815  16.394  1.00  0.00     0.033 C
HETATM    9  C26 UNL     1       5.607  -5.244  16.706  1.00  0.00     0.282 C
HETATM   10  N5  UNL     1       6.583  -5.874  15.841  1.00  0.00    -0.058 N
ATOM     11  H51 UNL     1       6.423  -6.877  15.761  1.00  0.00     0.278 HD
ATOM     12  H52 UNL     1       6.443  -5.616  14.864  1.00  0.00     0.278 HD
ENDROOT
BRANCH   6  13
HETATM   13  C13 UNL     1       3.767  -1.470  14.127  1.00  0.00     0.223 C
HETATM   14  O2  UNL     1       3.031  -2.337  13.589  1.00  0.00    -0.273 OA
HETATM   15  N1  UNL     1       3.527  -0.124  13.736  1.00  0.00    -0.351 N
ATOM     16  H1  UNL     1       4.109   0.603  14.154  1.00  0.00     0.163 HD
BRANCH  15  17
HETATM   17  C14 UNL     1       2.520   0.286  12.791  1.00  0.00     0.034 C
HETATM   18  C15 UNL     1       2.549  -0.489  11.502  1.00  0.00     0.035 C
HETATM   19  C16 UNL     1       1.423  -0.009  10.628  1.00  0.00    -0.012 C
HETATM   20  C17 UNL     1       1.633   1.461  10.324  1.00  0.00     0.009 C
HETATM   21  C21 UNL     1       0.093  -0.247  11.263  1.00  0.00     0.009 C
HETATM   22  C18 UNL     1       1.500   2.206  11.618  1.00  0.00    -0.012 C
HETATM   23  C19 UNL     1       0.175   1.962  12.296  1.00  0.00     0.009 C
HETATM   24  C23 UNL     1       2.588   1.794  12.543  1.00  0.00     0.035 C
HETATM   25  C20 UNL     1       0.038   0.497  12.578  1.00  0.00    -0.012 C
HETATM   26  C22 UNL     1       1.162   0.014  13.429  1.00  0.00     0.035 C
ENDBRANCH  15  17
ENDBRANCH   6  13
BRANCH   5  27
HETATM   27  C10 UNL     1       6.726  -1.647  13.525  1.00  0.00     0.003 C
HETATM   28  C11 UNL     1       7.190  -0.405  12.841  1.00  0.00     0.005 C
ENDBRANCH   5  27
BRANCH   4  29
HETATM   29  O1  UNL     1       8.278  -1.389  16.032  1.00  0.00    -0.395 OA
ATOM     30  H1  UNL     1       8.977  -1.981  16.282  1.00  0.00     0.210 HD
ENDBRANCH   4  29
BRANCH   9  31
HETATM   31  C27 UNL     1       4.365  -6.012  16.685  1.00  0.00     0.251 C
HETATM   32  O3  UNL     1       3.952  -6.386  15.554  1.00  0.00    -0.271 OA
HETATM   33  N2  UNL     1       3.586  -6.377  17.794  1.00  0.00    -0.349 N
HETATM   34  C28 UNL     1       3.921  -6.034  19.166  1.00  0.00     0.153 C
BRANCH  33  35
HETATM   35  C29 UNL     1       2.373  -7.141  17.591  1.00  0.00     0.183 C
BRANCH  35  36
HETATM   36  C30 UNL     1       2.494  -8.487  18.177  1.00  0.00     0.049 A
HETATM   37  C31 UNL     1       1.777  -9.002  19.238  1.00  0.00     0.103 A
HETATM   38  C32 UNL     1       2.234 -10.289  19.423  1.00  0.00     0.261 A
HETATM   39  O4  UNL     1       1.817 -11.081  20.302  1.00  0.00    -0.267 OA
HETATM   40  N3  UNL     1       3.183 -10.508  18.499  1.00  0.00    -0.266 N
HETATM   41  N4  UNL     1       3.345  -9.430  17.748  1.00  0.00    -0.300 N
ATOM     42  H3  UNL     1       3.704 -11.378  18.393  1.00  0.00     0.190 HD
ATOM     43  H4  UNL     1       4.003  -9.334  16.975  1.00  0.00     0.186 HD
ENDBRANCH  35  36
ENDBRANCH  33  35
ENDBRANCH   9  31
BRANCH   1  44
HETATM   44  C4  UNL     1       8.837  -5.840  15.093  1.00  0.00     0.033 C
BRANCH  44  45
HETATM   45  C3  UNL     1      10.135  -5.083  15.355  1.00  0.00     0.002 C
BRANCH  45  46
HETATM   46  C2  UNL     1      10.585  -4.317  14.144  1.00  0.00    -0.004 C
HETATM   47  C1  UNL     1      10.576  -2.828  14.401  1.00  0.00     0.005 C
ENDBRANCH  45  46
ENDBRANCH  44  45
ENDBRANCH   1  44
TORSDOF 10
ENDMDL