MODEL 5
REMARK VINA RESULT: -8.794772911      1.423      1.792
REMARK  11 active torsions:
REMARK  status: ('A' for Active; 'I' for Inactive)
REMARK    1  A    between atoms: C2_2  and  C3_3
REMARK    2  A    between atoms: C3_3  and  C4_4
REMARK    3  A    between atoms: C4_4  and  C5_5
REMARK    4  A    between atoms: C8_8  and  C9_9
REMARK    5  A    between atoms: C14_14  and  C15_15
REMARK    6  A    between atoms: C15_15  and  O1_16
REMARK    7  A    between atoms: C15_15  and  N1_18
REMARK    8  A    between atoms: C19_23  and  C20_24
REMARK    9  A    between atoms: C20_24  and  C21_25
REMARK   10  A    between atoms: C21_25  and  C22_26
REMARK   11  A    between atoms: C22_26  and  N2_27
REMARK       I    between atoms: N2_27  and  C23_29
ROOT
HETATM    1  N1  UNL     1       3.119  -3.926  15.489  1.00  0.00    -0.310 N
HETATM    2  C16 UNL     1       3.247  -3.746  16.956  1.00  0.00     0.138 C
HETATM    3  C17 UNL     1       3.568  -4.963  17.706  1.00  0.00     0.090 C
HETATM    4  C18 UNL     1       4.152  -6.133  16.992  1.00  0.00     0.210 C
HETATM    5  O2  UNL     1       5.498  -6.144  16.829  1.00  0.00    -0.338 OA
HETATM    6  C19 UNL     1       6.069  -7.108  17.627  1.00  0.00     0.217 C
HETATM    7  C24 UNL     1       4.975  -7.920  18.202  1.00  0.00     0.251 C
HETATM    8  O3  UNL     1       5.102  -8.940  18.942  1.00  0.00    -0.270 OA
HETATM    9  N5  UNL     1       3.779  -7.316  17.748  1.00  0.00    -0.315 N
HETATM   10  C25 UNL     1       2.435  -7.749  17.963  1.00  0.00     0.156 C
HETATM   11  C26 UNL     1       3.510  -6.328  15.641  1.00  0.00     0.248 C
HETATM   12  O4  UNL     1       3.655  -7.388  15.051  1.00  0.00    -0.284 OA
HETATM   13  C27 UNL     1       2.723  -5.221  15.079  1.00  0.00     0.155 C
HETATM   14  N6  UNL     1       1.726  -5.459  14.319  1.00  0.00    -0.382 N
ATOM     15  H61 UNL     1       1.441  -6.393  14.024  1.00  0.00     0.157 HD
ATOM     16  H62 UNL     1       1.180  -4.691  13.929  1.00  0.00     0.157 HD
ENDROOT
BRANCH   1  17
HETATM   17  C15 UNL     1       3.258  -2.835  14.638  1.00  0.00     0.154 C
BRANCH  17  18
HETATM   18  C14 UNL     1       4.423  -2.229  14.047  1.00  0.00     0.017 A
HETATM   19  C13 UNL     1       5.590  -2.908  13.844  1.00  0.00     0.017 A
HETATM   20  C12 UNL     1       6.650  -2.289  13.182  1.00  0.00     0.015 A
HETATM   21  C11 UNL     1       6.552  -0.996  12.722  1.00  0.00    -0.007 A
HETATM   22  C10 UNL     1       7.389  -0.131  12.049  1.00  0.00     0.044 A
HETATM   23  C29 UNL     1       5.387  -0.287  12.917  1.00  0.00     0.043 A
HETATM   24  C9  UNL     1       6.759   1.072  11.833  1.00  0.00     0.043 A
HETATM   25  N7  UNL     1       5.539   0.955  12.371  1.00  0.00    -0.355 N
ATOM     26  H7  UNL     1       4.828   1.686  12.372  1.00  0.00     0.166 HD
HETATM   27  C28 UNL     1       4.348  -0.902  13.568  1.00  0.00     0.046 A
BRANCH  24  28
HETATM   28  C8  UNL     1       7.320   2.245  11.140  1.00  0.00    -0.009 A
HETATM   29  C7  UNL     1       7.776   2.125   9.847  1.00  0.00     0.014 A
HETATM   30  C6  UNL     1       8.302   3.206   9.171  1.00  0.00     0.008 A
HETATM   31  C5  UNL     1       8.396   4.459   9.756  1.00  0.00    -0.058 A
HETATM   32  C31 UNL     1       7.939   4.580  11.051  1.00  0.00     0.008 A
HETATM   33  C30 UNL     1       7.411   3.485  11.725  1.00  0.00     0.014 A
BRANCH  31  34
HETATM   34  C4  UNL     1       8.974   5.612   9.009  1.00  0.00     0.038 C
BRANCH  34  35
HETATM   35  C3  UNL     1      10.180   5.148   8.241  1.00  0.00     0.004 C
BRANCH  35  36
HETATM   36  C2  UNL     1      11.172   6.303   8.128  1.00  0.00    -0.004 C
HETATM   37  C1  UNL     1      10.863   7.305   9.219  1.00  0.00     0.005 C
ENDBRANCH  35  36
ENDBRANCH  34  35
ENDBRANCH  31  34
ENDBRANCH  24  28
ENDBRANCH  17  18
BRANCH  17  38
HETATM   38  O1  UNL     1       2.145  -2.232  14.299  1.00  0.00    -0.345 OA
ATOM     39  H1  UNL     1       1.930  -1.508  14.875  1.00  0.00     0.219 HD
ENDBRANCH  17  38
ENDBRANCH   1  17
BRANCH   6  40
HETATM   40  C20 UNL     1       6.942  -6.448  18.650  1.00  0.00     0.043 C
BRANCH  40  41
HETATM   41  C21 UNL     1       8.404  -6.786  18.512  1.00  0.00     0.023 C
BRANCH  41  42
HETATM   42  C22 UNL     1       8.780  -7.399  17.207  1.00  0.00     0.122 C
BRANCH  42  43
HETATM   43  N2  UNL     1       9.363  -8.705  17.392  1.00  0.00    -0.365 N
HETATM   44  C23 UNL     1       8.492  -9.797  17.647  1.00  0.00     0.181 C
HETATM   45  N3  UNL     1       7.670 -10.141  16.717  1.00  0.00    -0.374 N
HETATM   46  N4  UNL     1       8.483 -10.522  18.864  1.00  0.00    -0.064 NA
ATOM     47  H32 UNL     1       7.677  -9.618  15.841  1.00  0.00     0.158 HD
ATOM     48  H31 UNL     1       7.045 -10.925  16.900  1.00  0.00     0.158 HD
ATOM     49  H2  UNL     1      10.373  -8.840  17.342  1.00  0.00     0.162 HD
ENDBRANCH  42  43
ENDBRANCH  41  42
ENDBRANCH  40  41
ENDBRANCH   6  40
TORSDOF 11
ENDMDL