MODEL 1
REMARK VINA RESULT: -6.660481808      0.000      0.000
REMARK  10 active torsions:
REMARK  status: ('A' for Active; 'I' for Inactive)
REMARK    1  A    between atoms: C2_2  and  C4_4
REMARK    2  A    between atoms: C4_4  and  C5_5
REMARK    3  A    between atoms: C7_10  and  C8_11
REMARK    4  A    between atoms: C8_11  and  C9_12
REMARK    5  A    between atoms: C13_19  and  C14_20
REMARK    6  A    between atoms: C14_20  and  C15_21
REMARK    7  A    between atoms: C15_21  and  C16_22
REMARK    8  A    between atoms: C16_22  and  C17_23
REMARK    9  A    between atoms: C17_23  and  N3_24
REMARK   10  A    between atoms: C19_32  and  C20_33
ROOT
HETATM    1  C5  UNL     1       6.933  -3.991  16.032  1.00  0.00     0.154 C
HETATM    2  N1  UNL     1       5.911  -4.544  15.166  1.00  0.00    -0.348 N
ATOM      3  H1  UNL     1       5.961  -4.267  14.185  1.00  0.00     0.163 HD
HETATM    4  C6  UNL     1       4.861  -5.411  15.507  1.00  0.00     0.241 C
HETATM    5  O1  UNL     1       4.766  -6.491  14.795  1.00  0.00    -0.271 OA
HETATM    6  C7  UNL     1       3.863  -5.250  16.570  1.00  0.00     0.177 C
HETATM    7  N2  UNL     1       4.501  -5.266  17.900  1.00  0.00    -0.346 N
ATOM      8  H2  UNL     1       4.802  -4.355  18.248  1.00  0.00     0.163 HD
HETATM    9  C12 UNL     1       4.752  -6.335  18.747  1.00  0.00     0.241 C
HETATM   10  O2  UNL     1       6.004  -6.610  18.938  1.00  0.00    -0.271 OA
HETATM   11  C13 UNL     1       3.868  -7.236  19.488  1.00  0.00     0.176 C
HETATM   12  N4  UNL     1       4.390  -8.564  19.656  1.00  0.00    -0.346 N
ATOM     13  H4  UNL     1       4.608  -8.830  20.617  1.00  0.00     0.163 HD
HETATM   14  C18 UNL     1       4.641  -9.540  18.693  1.00  0.00     0.241 C
HETATM   15  O3  UNL     1       4.800 -10.747  19.094  1.00  0.00    -0.271 OA
HETATM   16  C19 UNL     1       4.753  -9.381  17.233  1.00  0.00     0.180 C
HETATM   17  N5  UNL     1       6.104  -9.437  16.717  1.00  0.00    -0.347 N
ATOM     18  H5  UNL     1       6.224  -9.009  15.799  1.00  0.00     0.163 HD
HETATM   19  C23 UNL     1       7.263  -9.972  17.256  1.00  0.00     0.218 C
HETATM   20  O4  UNL     1       7.812 -10.943  16.599  1.00  0.00    -0.274 OA
HETATM   21  C24 UNL     1       8.000  -9.616  18.484  1.00  0.00     0.103 C
HETATM   22  C25 UNL     1       9.029  -8.560  18.362  1.00  0.00     0.009 C
HETATM   23  C26 UNL     1       9.357  -8.166  16.936  1.00  0.00     0.000 C
HETATM   24  C27 UNL     1       8.904  -6.732  16.751  1.00  0.00     0.000 C
HETATM   25  C28 UNL     1      10.011  -5.830  16.228  1.00  0.00     0.007 C
HETATM   26  C29 UNL     1       9.501  -4.395  16.419  1.00  0.00     0.080 C
HETATM   27  C30 UNL     1       8.292  -4.301  15.516  1.00  0.00     0.149 C
HETATM   28  O5  UNL     1       8.508  -4.499  14.336  1.00  0.00    -0.296 OA
ENDROOT
BRANCH  11  29
HETATM   29  C14 UNL     1       2.455  -7.329  19.066  1.00  0.00     0.035 C
BRANCH  29  30
HETATM   30  C15 UNL     1       1.657  -8.176  20.026  1.00  0.00     0.004 C
BRANCH  30  31
HETATM   31  C16 UNL     1       0.892  -9.252  19.301  1.00  0.00     0.027 C
BRANCH  31  32
HETATM   32  C17 UNL     1       0.776 -10.510  20.153  1.00  0.00     0.229 C
BRANCH  32  33
HETATM   33  N3  UNL     1       1.895 -11.371  19.914  1.00  0.00    -0.079 N
ATOM     34  H33 UNL     1       2.407 -11.106  19.072  1.00  0.00     0.274 HD
ATOM     35  H32 UNL     1       2.640 -11.227  20.595  1.00  0.00     0.274 HD
ATOM     36  H31 UNL     1       1.588 -12.343  19.883  1.00  0.00     0.274 HD
ENDBRANCH  32  33
ENDBRANCH  31  32
ENDBRANCH  30  31
ENDBRANCH  29  30
ENDBRANCH  11  29
BRANCH   6  37
HETATM   37  C8  UNL     1       2.952  -4.069  16.454  1.00  0.00     0.038 C
BRANCH  37  38
HETATM   38  C9  UNL     1       2.608  -3.632  15.090  1.00  0.00    -0.020 C
HETATM   39  C10 UNL     1       1.375  -4.478  14.602  1.00  0.00     0.009 C
HETATM   40  C11 UNL     1       1.989  -2.229  15.121  1.00  0.00     0.009 C
ENDBRANCH  37  38
ENDBRANCH   6  37
BRANCH  16  41
HETATM   41  C20 UNL     1       4.000 -10.543  16.554  1.00  0.00     0.009 C
HETATM   42  C21 UNL     1       2.530 -10.336  16.479  1.00  0.00     0.012 C
HETATM   43  C22 UNL     1       4.515 -10.734  15.136  1.00  0.00     0.012 C
ENDBRANCH  16  41
BRANCH   1  44
HETATM   44  C4  UNL     1       6.738  -2.556  16.343  1.00  0.00     0.037 C
BRANCH  44  45
HETATM   45  C2  UNL     1       5.992  -1.713  15.388  1.00  0.00    -0.020 C
HETATM   46  C1  UNL     1       5.180  -0.725  16.257  1.00  0.00     0.009 C
HETATM   47  C3  UNL     1       6.818  -0.833  14.488  1.00  0.00     0.009 C
ENDBRANCH  44  45
ENDBRANCH   1  44
TORSDOF 10
ENDMDL