MODEL 4
REMARK VINA RESULT: -9.343013974      4.375     10.459
REMARK  13 active torsions:
REMARK  status: ('A' for Active; 'I' for Inactive)
REMARK    1  A    between atoms: C2_2  and  C3_3
REMARK    2  A    between atoms: C8_8  and  C9_9
REMARK    3  A    between atoms: C9_9  and  C10_10
REMARK    4  A    between atoms: C19_25  and  C20_26
REMARK    5  A    between atoms: C20_26  and  C21_27
REMARK    6  A    between atoms: C21_27  and  C22_28
REMARK    7  A    between atoms: C22_28  and  C23_29
REMARK    8  A    between atoms: C23_29  and  C24_30
REMARK    9  A    between atoms: C24_30  and  C25_31
REMARK   10  A    between atoms: C25_31  and  O2_32
REMARK   11  A    between atoms: N4_34  and  O3_36
REMARK   12  A    between atoms: C26_40  and  O4_41
REMARK       I    between atoms: N6_44  and  C28_45
REMARK   13  A    between atoms: C28_45  and  O6_47
ROOT
HETATM    1  C3  UNL     1       6.953   1.425  11.540  1.00  0.00     0.115 C
HETATM    2  C4  UNL     1       7.105   1.516  13.020  1.00  0.00     0.056 C
HETATM    3  C5  UNL     1       7.277   0.194  13.685  1.00  0.00    -0.028 C
HETATM    4  C6  UNL     1       6.513  -0.401  14.539  1.00  0.00    -0.029 C
HETATM    5  C7  UNL     1       5.204   0.081  15.118  1.00  0.00     0.052 C
HETATM    6  C8  UNL     1       4.144  -0.956  14.933  1.00  0.00     0.092 C
HETATM    7  N3  UNL     1       2.847  -0.361  14.559  1.00  0.00    -0.354 N
ATOM      8  H3  UNL     1       2.484   0.331  15.214  1.00  0.00     0.162 HD
HETATM    9  C18 UNL     1       2.049  -0.598  13.457  1.00  0.00     0.240 C
HETATM   10  O1  UNL     1       0.865  -1.022  13.604  1.00  0.00    -0.271 OA
HETATM   11  C19 UNL     1       2.413  -0.408  11.982  1.00  0.00     0.175 C
HETATM   12  N5  UNL     1       3.618   0.358  11.892  1.00  0.00    -0.360 N
ATOM     13  H5  UNL     1       4.417  -0.231  12.124  1.00  0.00     0.162 HD
HETATM   14  C26 UNL     1       4.049   1.627  11.595  1.00  0.00     0.130 C
HETATM   15  C27 UNL     1       4.797   2.255  10.472  1.00  0.00     0.212 C
HETATM   16  N6  UNL     1       6.197   2.494  10.916  1.00  0.00    -0.312 N
HETATM   17  C28 UNL     1       6.816   3.754  10.745  1.00  0.00     0.363 C
HETATM   18  O5  UNL     1       6.175   4.679  10.207  1.00  0.00    -0.238 OA
ENDROOT
BRANCH   6  19
HETATM   19  C9  UNL     1       3.835  -1.876  16.070  1.00  0.00     0.066 C
BRANCH  19  20
HETATM   20  C10 UNL     1       4.107  -3.289  15.940  1.00  0.00    -0.028 A
HETATM   21  C11 UNL     1       5.338  -3.788  16.417  1.00  0.00     0.098 A
HETATM   22  N1  UNL     1       5.667  -5.077  16.384  1.00  0.00    -0.369 N
HETATM   23  C12 UNL     1       6.960  -5.535  16.895  1.00  0.00     0.154 C
HETATM   24  C13 UNL     1       4.816  -5.981  15.881  1.00  0.00     0.103 A
HETATM   25  C14 UNL     1       3.599  -5.588  15.394  1.00  0.00     0.007 A
HETATM   26  C15 UNL     1       2.549  -6.293  14.801  1.00  0.00     0.101 A
HETATM   27  C17 UNL     1       3.262  -4.229  15.433  1.00  0.00    -0.000 A
HETATM   28  N2  UNL     1       1.595  -5.405  14.482  1.00  0.00    -0.373 N
HETATM   29  C16 UNL     1       2.019  -4.189  14.856  1.00  0.00     0.100 A
ATOM     30  H2  UNL     1       0.703  -5.617  14.035  1.00  0.00     0.164 HD
ENDBRANCH  19  20
ENDBRANCH   6  19
BRANCH  11  31
HETATM   31  C20 UNL     1       1.231   0.011  11.214  1.00  0.00     0.035 C
BRANCH  31  32
HETATM   32  C21 UNL     1       0.440   1.063  11.927  1.00  0.00     0.002 C
BRANCH  32  33
HETATM   33  C22 UNL     1       0.159   2.256  11.028  1.00  0.00     0.001 C
BRANCH  33  34
HETATM   34  C23 UNL     1       0.939   2.248   9.757  1.00  0.00     0.008 C
BRANCH  34  35
HETATM   35  C24 UNL     1       1.640   3.557   9.574  1.00  0.00     0.086 C
BRANCH  35  36
HETATM   36  C25 UNL     1       2.049   3.655   8.157  1.00  0.00     0.135 C
HETATM   37  N4  UNL     1       3.027   4.413   7.829  1.00  0.00    -0.251 N
ATOM     38  H4  UNL     1       3.314   4.483   6.853  1.00  0.00     0.196 HD
BRANCH  36  39
HETATM   39  O2  UNL     1       1.369   2.925   7.212  1.00  0.00    -0.348 OA
ATOM     40  H2  UNL     1       0.475   3.165   6.998  1.00  0.00     0.219 HD
ENDBRANCH  36  39
BRANCH  37  41
HETATM   41  O3  UNL     1       3.686   5.127   8.789  1.00  0.00    -0.288 OA
ATOM     42  H3  UNL     1       4.415   5.685   8.545  1.00  0.00     0.244 HD
ENDBRANCH  37  41
ENDBRANCH  35  36
ENDBRANCH  34  35
ENDBRANCH  33  34
ENDBRANCH  32  33
ENDBRANCH  31  32
ENDBRANCH  11  31
BRANCH   1  43
HETATM   43  C2  UNL     1       8.299   1.445  10.872  1.00  0.00    -0.012 C
HETATM   44  C1  UNL     1       8.780   0.386  10.243  1.00  0.00     0.009 C
ENDBRANCH   1  43
BRANCH  14  45
HETATM   45  O4  UNL     1       3.800   2.598  12.439  1.00  0.00    -0.348 OA
ATOM     46  H4  UNL     1       4.393   3.340  12.477  1.00  0.00     0.219 HD
ENDBRANCH  14  45
BRANCH  17  47
HETATM   47  O6  UNL     1       8.109   3.965  11.165  1.00  0.00    -0.309 OA
HETATM   48  C29 UNL     1       8.530   5.257  11.623  1.00  0.00     0.215 C
ENDBRANCH  17  47
TORSDOF 13
ENDMDL