MODEL 1
REMARK VINA RESULT: -6.809956500      0.000      0.000
REMARK  10 active torsions:
REMARK  status: ('A' for Active; 'I' for Inactive)
REMARK    1  A    between atoms: C2_2  and  C3_3
REMARK    2  A    between atoms: C3_3  and  C4_4
REMARK    3  A    between atoms: C4_4  and  C5_5
REMARK    4  A    between atoms: C7_10  and  C8_11
REMARK    5  A    between atoms: C8_11  and  C9_12
REMARK    6  A    between atoms: C15_21  and  C16_22
REMARK    7  A    between atoms: C20_29  and  N4_30
REMARK       I    between atoms: N4_30  and  C21_32
REMARK    8  A    between atoms: C24_36  and  C25_37
REMARK    9  A    between atoms: C25_37  and  C26_38
REMARK   10  A    between atoms: C31_43  and  N5_44
ROOT
HETATM    1  C5  UNL     1       5.265  -6.147  16.767  1.00  0.00     0.089 C
HETATM    2  N1  UNL     1       4.278  -5.115  16.424  1.00  0.00    -0.354 N
ATOM      3  H1  UNL     1       3.303  -5.403  16.344  1.00  0.00     0.162 HD
HETATM    4  C6  UNL     1       4.580  -3.747  16.195  1.00  0.00     0.240 C
HETATM    5  O1  UNL     1       3.930  -2.836  16.827  1.00  0.00    -0.271 OA
HETATM    6  C7  UNL     1       5.603  -3.221  15.272  1.00  0.00     0.177 C
HETATM    7  N2  UNL     1       6.153  -1.974  15.797  1.00  0.00    -0.348 N
ATOM      8  H2  UNL     1       5.503  -1.347  16.269  1.00  0.00     0.163 HD
HETATM    9  C12 UNL     1       7.488  -1.557  15.714  1.00  0.00     0.218 C
HETATM   10  O2  UNL     1       7.693  -0.430  15.138  1.00  0.00    -0.274 OA
HETATM   11  C13 UNL     1       8.690  -2.253  16.211  1.00  0.00     0.108 C
HETATM   12  C14 UNL     1       9.513  -2.925  15.176  1.00  0.00     0.062 C
HETATM   13  C15 UNL     1       9.583  -4.406  15.232  1.00  0.00    -0.007 C
HETATM   14  N3  UNL     1       9.489  -5.101  16.225  1.00  0.00    -0.332 N
ATOM     15  H3  UNL     1       9.588  -6.037  15.832  1.00  0.00     0.168 HD
HETATM   16  C19 UNL     1       9.333  -5.370  17.527  1.00  0.00     0.244 C
HETATM   17  O3  UNL     1      10.045  -4.887  18.453  1.00  0.00    -0.271 OA
HETATM   18  C20 UNL     1       8.250  -6.319  18.057  1.00  0.00     0.177 C
HETATM   19  C23 UNL     1       7.057  -5.544  18.310  1.00  0.00     0.042 C
HETATM   20  C24 UNL     1       5.682  -6.169  18.168  1.00  0.00     0.016 C
ENDROOT
BRANCH  20  21
HETATM   21  C25 UNL     1       5.393  -7.225  19.129  1.00  0.00     0.064 C
BRANCH  21  22
HETATM   22  C26 UNL     1       3.996  -7.560  19.434  1.00  0.00     0.011 A
HETATM   23  C27 UNL     1       3.455  -8.752  18.919  1.00  0.00     0.032 A
HETATM   24  C28 UNL     1       2.154  -9.128  19.109  1.00  0.00    -0.057 A
HETATM   25  C29 UNL     1       1.619 -10.407  18.542  1.00  0.00     0.048 C
HETATM   26  C30 UNL     1       1.309  -8.322  19.835  1.00  0.00     0.054 A
HETATM   27  C31 UNL     1       1.834  -7.156  20.339  1.00  0.00     0.099 A
HETATM   28  N6  UNL     1       3.133  -6.821  20.126  1.00  0.00    -0.346 N
ATOM     29  H6  UNL     1       3.470  -5.944  20.522  1.00  0.00     0.167 HD
BRANCH  27  30
HETATM   30  N5  UNL     1       1.067  -6.383  21.021  1.00  0.00    -0.385 N
ATOM     31  H52 UNL     1       0.744  -6.663  21.948  1.00  0.00     0.157 HD
ATOM     32  H51 UNL     1       0.791  -5.490  20.615  1.00  0.00     0.157 HD
ENDBRANCH  27  30
ENDBRANCH  21  22
ENDBRANCH  20  21
BRANCH   1  33
HETATM   33  C4  UNL     1       4.874  -7.393  16.066  1.00  0.00     0.025 C
BRANCH  33  34
HETATM   34  C3  UNL     1       3.441  -7.178  15.532  1.00  0.00     0.002 C
BRANCH  34  35
HETATM   35  C2  UNL     1       3.028  -8.315  14.648  1.00  0.00    -0.004 C
HETATM   36  C1  UNL     1       3.579  -9.586  15.245  1.00  0.00     0.005 C
ENDBRANCH  34  35
ENDBRANCH  33  34
ENDBRANCH   1  33
BRANCH  18  37
HETATM   37  N4  UNL     1       8.256  -7.402  17.151  1.00  0.00    -0.348 N
HETATM   38  C21 UNL     1       8.366  -8.755  17.572  1.00  0.00     0.214 C
HETATM   39  C22 UNL     1       8.373  -9.896  16.633  1.00  0.00     0.117 C
HETATM   40  O4  UNL     1       8.462  -9.016  18.804  1.00  0.00    -0.274 OA
ATOM     41  H4  UNL     1       8.177  -7.206  16.153  1.00  0.00     0.163 HD
ENDBRANCH  18  37
BRANCH   6  42
HETATM   42  C8  UNL     1       5.234  -3.111  13.846  1.00  0.00     0.038 C
BRANCH  42  43
HETATM   43  C9  UNL     1       4.972  -1.772  13.264  1.00  0.00    -0.020 C
HETATM   44  C10 UNL     1       6.148  -1.384  12.319  1.00  0.00     0.009 C
HETATM   45  C11 UNL     1       3.744  -1.657  12.396  1.00  0.00     0.009 C
ENDBRANCH  42  43
ENDBRANCH   6  42
BRANCH  13  46
HETATM   46  C16 UNL     1       9.790  -5.055  13.874  1.00  0.00     0.023 C
HETATM   47  C17 UNL     1       9.426  -6.504  13.876  1.00  0.00     0.016 C
HETATM   48  C18 UNL     1      11.151  -4.879  13.312  1.00  0.00     0.016 C
ENDBRANCH  13  46
TORSDOF 10
ENDMDL