MODEL 3
REMARK VINA RESULT: -9.283337795      3.487     10.630
REMARK  11 active torsions:
REMARK  status: ('A' for Active; 'I' for Inactive)
REMARK    1  A    between atoms: C2_2  and  C3_3
REMARK    2  A    between atoms: C11_14  and  C12_15
REMARK    3  A    between atoms: C12_15  and  C13_16
REMARK    4  A    between atoms: C13_16  and  C14_17
REMARK    5  A    between atoms: C15_18  and  C16_19
REMARK    6  A    between atoms: C16_19  and  C17_20
REMARK    7  A    between atoms: C20_23  and  C21_24
REMARK    8  A    between atoms: C22_25  and  C23_26
REMARK    9  A    between atoms: N3_35  and  C27_36
REMARK   10  A    between atoms: C27_36  and  C28_37
REMARK   11  A    between atoms: C31_40  and  C32_41
ROOT
HETATM    1  C14 UNL     1       5.689  -2.547  14.129  1.00  0.00     0.043 A
HETATM    2  C15 UNL     1       5.876  -2.718  15.476  1.00  0.00     0.041 A
HETATM    3  N2  UNL     1       4.664  -2.758  16.047  1.00  0.00    -0.310 N
ATOM      4  H2  UNL     1       4.485  -2.876  17.044  1.00  0.00     0.170 HD
HETATM    5  C26 UNL     1       3.734  -2.620  15.114  1.00  0.00     0.327 A
HETATM    6  O4  UNL     1       2.499  -2.622  15.373  1.00  0.00    -0.246 OA
HETATM    7  N3  UNL     1       4.372  -2.489  13.926  1.00  0.00    -0.297 N
ENDROOT
BRANCH   1   8
HETATM    8  C13 UNL     1       6.778  -2.450  13.067  1.00  0.00     0.087 C
BRANCH   8   9
HETATM    9  C12 UNL     1       7.533  -1.212  13.218  1.00  0.00    -0.003 C
BRANCH   9  10
HETATM   10  C11 UNL     1       7.386   0.030  12.924  1.00  0.00     0.038 A
HETATM   11  C3  UNL     1       6.890   1.007  13.747  1.00  0.00     0.042 A
HETATM   12  N1  UNL     1       6.838   2.321  13.352  1.00  0.00    -0.355 N
HETATM   13  C4  UNL     1       7.270   2.707  12.135  1.00  0.00     0.046 A
ATOM     14  H1  UNL     1       6.464   3.021  13.994  1.00  0.00     0.166 HD
HETATM   15  C5  UNL     1       7.202   4.045  11.778  1.00  0.00     0.030 A
HETATM   16  C9  UNL     1       7.779   1.788  11.252  1.00  0.00     0.042 A
HETATM   17  C6  UNL     1       7.634   4.472  10.549  1.00  0.00     0.002 A
HETATM   18  C7  UNL     1       8.145   3.516   9.672  1.00  0.00     0.001 A
HETATM   19  C8  UNL     1       8.222   2.190  10.004  1.00  0.00     0.018 A
HETATM   20  C10 UNL     1       7.830   0.479  11.648  1.00  0.00     0.196 A
HETATM   21  O1  UNL     1       8.298  -0.371  10.834  1.00  0.00    -0.286 OA
BRANCH  11  22
HETATM   22  C2  UNL     1       6.411   0.793  14.957  1.00  0.00    -0.001 C
HETATM   23  C1  UNL     1       4.925   0.756  15.176  1.00  0.00     0.038 C
ENDBRANCH  11  22
ENDBRANCH   9  10
ENDBRANCH   8   9
ENDBRANCH   1   8
BRANCH   2  24
HETATM   24  C16 UNL     1       7.114  -2.860  16.234  1.00  0.00     0.097 C
BRANCH  24  25
HETATM   25  C17 UNL     1       7.669  -4.180  16.453  1.00  0.00    -0.052 A
HETATM   26  C18 UNL     1       7.197  -5.034  17.445  1.00  0.00     0.008 A
HETATM   27  C19 UNL     1       7.684  -6.307  17.655  1.00  0.00     0.012 A
HETATM   28  C20 UNL     1       8.696  -6.808  16.866  1.00  0.00    -0.036 A
HETATM   29  C24 UNL     1       9.183  -5.964  15.863  1.00  0.00     0.012 A
HETATM   30  C25 UNL     1       8.678  -4.700  15.676  1.00  0.00     0.008 A
BRANCH  28  31
HETATM   31  C21 UNL     1       9.238  -8.139  17.040  1.00  0.00     0.018 C
HETATM   32  C22 UNL     1       8.504  -9.229  17.052  1.00  0.00     0.085 C
BRANCH  32  33
HETATM   33  C23 UNL     1       9.125 -10.539  17.233  1.00  0.00     0.198 C
HETATM   34  O2  UNL     1       8.928 -11.447  16.381  1.00  0.00    -0.645 OA
HETATM   35  O3  UNL     1       9.936 -10.840  18.314  1.00  0.00    -0.645 OA
ENDBRANCH  32  33
ENDBRANCH  28  31
ENDBRANCH  24  25
ENDBRANCH   2  24
BRANCH   7  36
HETATM   36  C27 UNL     1       3.684  -2.287  12.658  1.00  0.00     0.172 C
BRANCH  36  37
HETATM   37  C28 UNL     1       3.346  -0.891  12.372  1.00  0.00    -0.040 A
HETATM   38  C29 UNL     1       4.277  -0.136  11.655  1.00  0.00     0.010 A
HETATM   39  C30 UNL     1       4.038   1.179  11.351  1.00  0.00     0.015 A
HETATM   40  C31 UNL     1       2.880   1.807  11.735  1.00  0.00     0.004 A
HETATM   41  C33 UNL     1       1.940   1.093  12.445  1.00  0.00     0.015 A
HETATM   42  C34 UNL     1       2.203  -0.242  12.742  1.00  0.00     0.010 A
BRANCH  40  43
HETATM   43  C32 UNL     1       2.637   3.210  11.416  1.00  0.00     0.120 C
HETATM   44  N4  UNL     1       3.614   4.033  11.243  1.00  0.00    -0.387 N
ATOM     45  H42 UNL     1       4.581   3.721  11.331  1.00  0.00     0.157 HD
ATOM     46  H41 UNL     1       3.443   5.014  11.020  1.00  0.00     0.157 HD
HETATM   47  N5  UNL     1       1.289   3.645  11.294  1.00  0.00    -0.082 NA
ENDBRANCH  40  43
ENDBRANCH  36  37
ENDBRANCH   7  36
TORSDOF 11
ENDMDL