MODEL 3
REMARK VINA RESULT: -5.355241166      2.603      2.839
REMARK  2 active torsions:
REMARK  status: ('A' for Active; 'I' for Inactive)
REMARK    1  A    between atoms: N5_10  and  C2_12
REMARK    2  A    between atoms: N6_13  and  O1_15
ROOT
HETATM    1  N1  UNL     1       1.156   4.917   9.965  1.00  0.00    -0.377 N
ATOM      2  H11 UNL     1       1.380   4.368  10.794  1.00  0.00     0.158 HD
ATOM      3  H12 UNL     1       1.204   4.242   9.201  1.00  0.00     0.158 HD
HETATM    4  C1  UNL     1       0.869   6.139   9.774  1.00  0.00     0.178 A
HETATM    5  N2  UNL     1       0.561   6.892   8.635  1.00  0.00    -0.262 N
ATOM      6  H2  UNL     1       0.545   6.470   7.707  1.00  0.00     0.190 HD
HETATM    7  N3  UNL     1       0.283   8.218   8.819  1.00  0.00    -0.213 N
ATOM      8  H3  UNL     1       0.051   8.828   8.035  1.00  0.00     0.211 HD
HETATM    9  N4  UNL     1       0.329   8.686  10.097  1.00  0.00    -0.144 N
HETATM   10  N5  UNL     1       0.102   9.844  10.514  1.00  0.00    -0.266 N
ATOM     11  H5  UNL     1       0.189  10.001  11.518  1.00  0.00     0.190 HD
HETATM   12  S1  UNL     1       0.784   7.337  11.129  1.00  0.00     0.069 SA
ENDROOT
BRANCH  10  13
HETATM   13  C2  UNL     1      -0.264  10.946   9.725  1.00  0.00     0.223 C
HETATM   14  N6  UNL     1       0.475  11.999   9.628  1.00  0.00    -0.263 N
ATOM     15  H6  UNL     1       1.355  12.038  10.141  1.00  0.00     0.195 HD
BRANCH  14  16
HETATM   16  O1  UNL     1       0.104  13.070   8.851  1.00  0.00    -0.289 OA
ATOM     17  H1  UNL     1      -0.790  13.393   8.842  1.00  0.00     0.244 HD
ENDBRANCH  14  16
ENDBRANCH  10  13
TORSDOF 2
ENDMDL