MODEL 1
REMARK VINA RESULT: -6.841029625      0.000      0.000
REMARK  0 active torsions:
REMARK  status: ('A' for Active; 'I' for Inactive)
REMARK       I    between atoms: C1_4  and  N3_6
ROOT
HETATM    1  N1  UNL     1       0.560  12.490  10.284  1.00  0.00    -0.372 N
ATOM      2  H11 UNL     1      -0.245  12.498  10.912  1.00  0.00     0.158 HD
ATOM      3  H12 UNL     1       1.395  13.040  10.487  1.00  0.00     0.158 HD
HETATM    4  C1  UNL     1       0.530  11.784   9.223  1.00  0.00     0.211 C
HETATM    5  N2  UNL     1       1.642  11.773   8.355  1.00  0.00    -0.062 NA
HETATM    6  N3  UNL     1      -0.628  11.022   8.941  1.00  0.00    -0.172 N
HETATM    7  N4  UNL     1      -1.492  10.500   9.818  1.00  0.00    -0.238 N
ATOM      8  H4  UNL     1      -1.423  10.589  10.831  1.00  0.00     0.192 HD
HETATM    9  C2  UNL     1      -2.466   9.841   9.164  1.00  0.00     0.343 A
HETATM   10  O1  UNL     1      -3.438   9.234   9.677  1.00  0.00    -0.245 OA
HETATM   11  N5  UNL     1      -2.222   9.942   7.848  1.00  0.00    -0.258 N
ATOM     12  H5  UNL     1      -2.784   9.546   7.095  1.00  0.00     0.175 HD
HETATM   13  C3  UNL     1      -1.099  10.662   7.711  1.00  0.00     0.352 A
HETATM   14  O2  UNL     1      -0.558  10.964   6.607  1.00  0.00    -0.244 OA
ENDROOT
TORSDOF 0
ENDMDL