MODEL 4
REMARK VINA RESULT: -5.239697695      1.386      4.255
REMARK  2 active torsions:
REMARK  status: ('A' for Active; 'I' for Inactive)
REMARK    1  A    between atoms: N1_1  and  N2_4
REMARK       I    between atoms: N2_4  and  C1_6
REMARK    2  A    between atoms: C1_6  and  C2_8
REMARK       I    between atoms: C2_8  and  N3_10
ROOT
HETATM    1  N2  UNL     1       0.018  11.426  10.170  1.00  0.00    -0.268 N
ATOM      2  H2  UNL     1      -0.300  11.530  11.133  1.00  0.00     0.190 HD
HETATM    3  C1  UNL     1       0.004  10.132   9.630  1.00  0.00     0.327 C
HETATM    4  O1  UNL     1       0.388   9.971   8.448  1.00  0.00    -0.261 OA
ENDROOT
BRANCH   3   5
HETATM    5  C2  UNL     1      -0.436   8.970  10.377  1.00  0.00     0.317 C
HETATM    6  O2  UNL     1      -1.445   8.281  10.008  1.00  0.00    -0.262 OA
HETATM    7  N3  UNL     1       0.254   8.567  11.548  1.00  0.00    -0.295 N
HETATM    8  C3  UNL     1      -0.414   8.152  12.563  1.00  0.00     0.203 C
ATOM      9  H3  UNL     1       1.273   8.607  11.584  1.00  0.00     0.171 HD
HETATM   10  N4  UNL     1       0.258   7.735  13.770  1.00  0.00    -0.066 NA
HETATM   11  N5  UNL     1      -1.837   8.097  12.517  1.00  0.00    -0.066 NA
ENDBRANCH   3   5
BRANCH   1  12
HETATM   12  N1  UNL     1       0.422  12.568   9.517  1.00  0.00    -0.342 N
ATOM     13  H12 UNL     1       1.426  12.669   9.374  1.00  0.00     0.176 HD
ATOM     14  H11 UNL     1      -0.190  13.308   9.172  1.00  0.00     0.176 HD
ENDBRANCH   1  12
TORSDOF 2
ENDMDL