MODEL 4
REMARK VINA RESULT: -5.593659604      1.873      2.733
REMARK  1 active torsions:
REMARK  status: ('A' for Active; 'I' for Inactive)
REMARK    1  A    between atoms: N1_1  and  C1_4
ROOT
HETATM    1  C1  UNL     1      -2.367  10.308   8.774  1.00  0.00     0.693 A
HETATM    2  N2  UNL     1      -2.040  11.614   8.839  1.00  0.00    -0.129 N
ATOM      3  H2  UNL     1      -2.793  12.296   8.932  1.00  0.00     0.205 HD
HETATM    4  N3  UNL     1      -0.797  12.057   8.790  1.00  0.00    -0.247 N
ATOM      5  H3  UNL     1      -0.585  13.054   8.842  1.00  0.00     0.191 HD
HETATM    6  C2  UNL     1       0.176  11.137   8.669  1.00  0.00     0.329 A
HETATM    7  O1  UNL     1       1.378  11.566   8.621  1.00  0.00    -0.261 OA
HETATM    8  C3  UNL     1      -0.134   9.810   8.601  1.00  0.00     0.329 A
HETATM    9  O2  UNL     1       0.812   8.962   8.485  1.00  0.00    -0.261 OA
HETATM   10  N4  UNL     1      -1.408   9.372   8.653  1.00  0.00    -0.150 N
ATOM     11  H4  UNL     1      -1.634   8.379   8.602  1.00  0.00     0.188 HD
ENDROOT
BRANCH   1  12
HETATM   12  N1  UNL     1      -3.585   9.882   8.823  1.00  0.00    -0.233 N
ATOM     13  H12 UNL     1      -3.790   9.031   8.302  1.00  0.00     0.174 HD
ATOM     14  H11 UNL     1      -4.319  10.355   9.349  1.00  0.00     0.174 HD
ENDBRANCH   1  12
TORSDOF 1
ENDMDL