MODEL 1
REMARK VINA RESULT: -6.556114217      0.000      0.000
REMARK  0 active torsions:
REMARK  status: ('A' for Active; 'I' for Inactive)
ROOT
HETATM    1  N1  UNL     1      -1.841   8.459  12.050  1.00  0.00    -0.111 NA
HETATM    2  C1  UNL     1      -1.793   8.545  10.636  1.00  0.00     0.149 C
HETATM    3  C2  UNL     1      -1.250   9.572  10.024  1.00  0.00     0.136 A
HETATM    4  N2  UNL     1      -0.696  10.622  10.802  1.00  0.00    -0.282 N
ATOM      5  H2  UNL     1      -0.728  10.565  11.820  1.00  0.00     0.188 HD
HETATM    6  N3  UNL     1      -0.104  11.741  10.187  1.00  0.00    -0.260 N
ATOM      7  H3  UNL     1       0.289  12.486  10.761  1.00  0.00     0.190 HD
HETATM    8  C3  UNL     1      -0.050  11.838   8.770  1.00  0.00     0.328 A
HETATM    9  O1  UNL     1       0.475  12.831   8.189  1.00  0.00    -0.261 OA
HETATM   10  C4  UNL     1      -0.601  10.792   7.945  1.00  0.00     0.316 A
HETATM   11  O2  UNL     1      -0.597  10.798   6.695  1.00  0.00    -0.262 OA
HETATM   12  N4  UNL     1      -1.199   9.661   8.610  1.00  0.00    -0.303 N
ATOM     13  H4  UNL     1      -1.596   8.907   8.050  1.00  0.00     0.171 HD
ENDROOT
TORSDOF 0
ENDMDL