MODEL 3
REMARK VINA RESULT: -4.621780363      2.419      3.577
REMARK  3 active torsions:
REMARK  status: ('A' for Active; 'I' for Inactive)
REMARK    1  A    between atoms: N1_1  and  S1_4
REMARK    2  A    between atoms: S1_4  and  N2_5
REMARK    3  A    between atoms: S1_4  and  N3_9
ROOT
HETATM    1  S1  UNL     1      -0.579  11.324   8.538  1.00  0.00     0.192 S
HETATM    2  O1  UNL     1      -0.520  10.880   7.103  1.00  0.00    -0.206 OA
ENDROOT
BRANCH   1   3
HETATM    3  N1  UNL     1      -2.100  11.250   8.946  1.00  0.00    -0.329 N
ATOM      4  H12 UNL     1      -2.747  12.035   8.882  1.00  0.00     0.168 HD
ATOM      5  H11 UNL     1      -2.330  10.313   9.277  1.00  0.00     0.168 HD
ENDBRANCH   1   3
BRANCH   1   6
HETATM    6  N2  UNL     1       0.005  12.930   8.715  1.00  0.00    -0.329 N
ATOM      7  H22 UNL     1       0.686  13.216   9.418  1.00  0.00     0.168 HD
ATOM      8  H21 UNL     1      -0.427  13.541   8.021  1.00  0.00     0.168 HD
ENDBRANCH   1   6
BRANCH   1   9
HETATM    9  N3  UNL     1       0.244  10.208   9.542  1.00  0.00    -0.261 N
HETATM   10  C1  UNL     1      -0.158   9.052   9.870  1.00  0.00     0.210 C
HETATM   11  N4  UNL     1       0.674   8.276  10.716  1.00  0.00    -0.066 NA
HETATM   12  N5  UNL     1      -1.388   8.479   9.446  1.00  0.00    -0.066 NA
ATOM     13  H3  UNL     1       1.147  10.504   9.913  1.00  0.00     0.181 HD
ENDBRANCH   1   9
TORSDOF 3
ENDMDL