MODEL 3
REMARK VINA RESULT: -5.988736908      1.824      2.361
REMARK  2 active torsions:
REMARK  status: ('A' for Active; 'I' for Inactive)
REMARK       I    between atoms: C1_4  and  N3_6
REMARK    1  A    between atoms: N3_6  and  C2_8
REMARK    2  A    between atoms: C2_8  and  N4_9
ROOT
HETATM    1  C2  UNL     1      -0.468   9.654   9.826  1.00  0.00     0.311 A
HETATM    2  C3  UNL     1      -1.924   9.737  10.084  1.00  0.00     0.135 A
HETATM    3  N5  UNL     1      -1.790   8.894  11.035  1.00  0.00    -0.332 N
ATOM      4  H5  UNL     1      -2.472   8.488  11.676  1.00  0.00     0.168 HD
HETATM    5  C4  UNL     1      -0.405   8.707  10.917  1.00  0.00     0.284 A
HETATM    6  O1  UNL     1       0.418   7.999  11.542  1.00  0.00    -0.268 OA
ENDROOT
BRANCH   1   7
HETATM    7  N3  UNL     1       0.264  10.853  10.084  1.00  0.00    -0.320 N
HETATM    8  C1  UNL     1       0.450  11.777   9.025  1.00  0.00     0.184 C
HETATM    9  N1  UNL     1      -0.434  12.675   8.729  1.00  0.00    -0.374 N
HETATM   10  N2  UNL     1       1.617  11.773   8.228  1.00  0.00    -0.064 NA
ATOM     11  H12 UNL     1      -0.301  13.340   7.967  1.00  0.00     0.158 HD
ATOM     12  H11 UNL     1      -1.277  12.677   9.305  1.00  0.00     0.158 HD
ATOM     13  H3  UNL     1       0.645  11.041  11.012  1.00  0.00     0.165 HD
ENDBRANCH   1   7
BRANCH   1  14
HETATM   14  N4  UNL     1      -0.208   9.127   8.533  1.00  0.00    -0.038 N
ATOM     15  H43 UNL     1      -1.015   8.616   8.176  1.00  0.00     0.278 HD
ATOM     16  H42 UNL     1      -0.162   9.870   7.836  1.00  0.00     0.278 HD
ATOM     17  H41 UNL     1       0.632   8.549   8.510  1.00  0.00     0.278 HD
ENDBRANCH   1  14
TORSDOF 2
ENDMDL