MODEL 3
REMARK VINA RESULT: -5.775808942      1.442      2.238
REMARK  1 active torsions:
REMARK  status: ('A' for Active; 'I' for Inactive)
REMARK       I    between atoms: C1_2  and  N2_4
REMARK       I    between atoms: N2_4  and  C2_6
REMARK    1  A    between atoms: N4_8  and  N5_10
ROOT
HETATM    1  N1  UNL     1      -1.265   8.857  13.848  1.00  0.00    -0.040 NA
HETATM    2  C1  UNL     1      -0.933   8.266  12.585  1.00  0.00     0.335 C
HETATM    3  O1  UNL     1      -1.032   7.034  12.411  1.00  0.00    -0.251 OA
HETATM    4  N2  UNL     1      -0.489   9.086  11.526  1.00  0.00    -0.284 N
ATOM      5  H2  UNL     1      -0.403  10.095  11.654  1.00  0.00     0.172 HD
HETATM    6  C2  UNL     1      -0.164   8.488  10.280  1.00  0.00     0.210 C
HETATM    7  N3  UNL     1      -0.267   7.093  10.052  1.00  0.00    -0.062 NA
HETATM    8  N4  UNL     1       0.250   9.205   9.273  1.00  0.00    -0.271 N
ATOM      9  H4  UNL     1       0.473   8.738   8.394  1.00  0.00     0.189 HD
ENDROOT
BRANCH   8  10
HETATM   10  N5  UNL     1       0.398  10.589   9.359  1.00  0.00    -0.274 N
HETATM   11  C3  UNL     1       0.104  11.391   8.394  1.00  0.00     0.215 C
HETATM   12  N6  UNL     1      -0.402  10.934   7.149  1.00  0.00    -0.065 NA
HETATM   13  N7  UNL     1       0.300  12.775   8.612  1.00  0.00    -0.065 NA
ATOM     14  H5  UNL     1       0.756  10.985  10.228  1.00  0.00     0.189 HD
ENDBRANCH   8  10
TORSDOF 1
ENDMDL