MODEL 4
REMARK VINA RESULT: -5.346350714      2.200      4.023
REMARK  5 active torsions:
REMARK  status: ('A' for Active; 'I' for Inactive)
REMARK    1  A    between atoms: N1_1  and  N2_4
REMARK    2  A    between atoms: N2_4  and  N3_6
REMARK    3  A    between atoms: C1_8  and  C2_9
REMARK    4  A    between atoms: C3_12  and  N5_13
REMARK    5  A    between atoms: N7_18  and  O1_19
ROOT
HETATM    1  C2  UNL     1      -0.619   9.384   9.499  1.00  0.00     0.184 A
HETATM    2  N4  UNL     1      -1.590   8.951   8.686  1.00  0.00    -0.170 N
ATOM      3  H4  UNL     1      -1.670   8.011   8.300  1.00  0.00     0.186 HD
HETATM    4  C3  UNL     1      -2.449   9.975   8.463  1.00  0.00     0.694 A
HETATM    5  N6  UNL     1      -1.989  11.029   9.147  1.00  0.00    -0.104 N
ATOM      6  H6  UNL     1      -2.428  11.949   9.173  1.00  0.00     0.208 HD
HETATM    7  N7  UNL     1      -0.885  10.697   9.780  1.00  0.00    -0.130 N
ENDROOT
BRANCH   1   8
HETATM    8  C1  UNL     1       0.523   8.668  10.024  1.00  0.00     0.161 C
HETATM    9  N3  UNL     1       0.714   8.404  11.237  1.00  0.00    -0.294 N
ATOM     10  H3  UNL     1       1.577   7.890  11.418  1.00  0.00     0.187 HD
BRANCH   9  11
HETATM   11  N2  UNL     1      -0.019   8.678  12.364  1.00  0.00    -0.250 N
ATOM     12  H2  UNL     1      -0.897   9.186  12.260  1.00  0.00     0.207 HD
BRANCH  11  13
HETATM   13  N1  UNL     1       0.350   8.322  13.548  1.00  0.00    -0.331 N
ATOM     14  H12 UNL     1       0.412   7.323  13.740  1.00  0.00     0.178 HD
ATOM     15  H11 UNL     1       0.577   8.990  14.284  1.00  0.00     0.178 HD
ENDBRANCH  11  13
ENDBRANCH   9  11
ENDBRANCH   1   8
BRANCH   7  16
HETATM   16  O1  UNL     1      -0.108  11.509  10.595  1.00  0.00    -0.266 OA
ATOM     17  H1  UNL     1      -0.181  12.454  10.649  1.00  0.00     0.247 HD
ENDBRANCH   7  16
BRANCH   4  18
HETATM   18  N5  UNL     1      -3.525   9.943   7.720  1.00  0.00    -0.233 N
ATOM     19  H52 UNL     1      -4.211  10.690   7.617  1.00  0.00     0.174 HD
ATOM     20  H51 UNL     1      -3.837   9.168   7.134  1.00  0.00     0.174 HD
ENDBRANCH   4  18
TORSDOF 5
ENDMDL