MODEL 3
REMARK VINA RESULT: -5.272232302      2.073      3.167
REMARK  1 active torsions:
REMARK  status: ('A' for Active; 'I' for Inactive)
REMARK    1  A    between atoms: C2_3  and  N2_4
ROOT
HETATM    1  N2  UNL     1      -0.650   9.514   9.086  1.00  0.00    -0.212 N
HETATM    2  N3  UNL     1      -1.877   9.183   8.721  1.00  0.00    -0.241 N
ATOM      3  H3  UNL     1      -2.208   8.239   8.525  1.00  0.00     0.192 HD
HETATM    4  C3  UNL     1      -2.624  10.321   8.652  1.00  0.00     0.343 A
HETATM    5  O1  UNL     1      -3.829  10.308   8.330  1.00  0.00    -0.245 OA
HETATM    6  N4  UNL     1      -1.827  11.354   8.983  1.00  0.00    -0.258 N
ATOM      7  H4  UNL     1      -2.102  12.336   9.022  1.00  0.00     0.175 HD
HETATM    8  C4  UNL     1      -0.609  10.866   9.251  1.00  0.00     0.349 A
HETATM    9  O2  UNL     1       0.400  11.528   9.596  1.00  0.00    -0.245 OA
ENDROOT
BRANCH   1  10
HETATM   10  C2  UNL     1       0.428   8.607   9.269  1.00  0.00     0.136 C
HETATM   11  C1  UNL     1       0.591   8.016  10.436  1.00  0.00     0.119 C
HETATM   12  N1  UNL     1       1.666   7.092  10.668  1.00  0.00    -0.114 NA
ENDBRANCH   1  10
TORSDOF 1
ENDMDL