MODEL 4
REMARK VINA RESULT: -5.686663218      1.200      1.328
REMARK  2 active torsions:
REMARK  status: ('A' for Active; 'I' for Inactive)
REMARK    1  A    between atoms: C2_2  and  C3_3
REMARK    2  A    between atoms: N1_6  and  N2_7
REMARK       I    between atoms: N2_7  and  C6_9
REMARK       I    between atoms: C6_9  and  N3_11
ROOT
HETATM    1  N2  UNL     1      -4.723   5.390  13.710  1.00  0.00    -0.246 N
ATOM      2  H2  UNL     1      -4.708   6.307  14.156  1.00  0.00     0.192 HD
HETATM    3  C6  UNL     1      -4.551   5.280  12.288  1.00  0.00     0.337 C
HETATM    4  O1  UNL     1      -4.541   4.116  11.760  1.00  0.00    -0.245 OA
HETATM    5  N3  UNL     1      -4.391   6.382  11.450  1.00  0.00    -0.331 N
HETATM    6  C7  UNL     1      -4.137   6.165  10.034  1.00  0.00     0.137 C
HETATM    7  C8  UNL     1      -4.904   7.179   9.202  1.00  0.00     0.093 C
HETATM    8  S1  UNL     1      -6.425   7.686  10.039  1.00  0.00    -0.166 SA
HETATM    9  C9  UNL     1      -6.017   8.068  11.763  1.00  0.00     0.093 C
HETATM   10  C10 UNL     1      -4.528   7.738  11.933  1.00  0.00     0.137 C
ENDROOT
BRANCH   1  11
HETATM   11  N1  UNL     1      -4.905   4.281  14.457  1.00  0.00    -0.282 N
HETATM   12  C5  UNL     1      -6.177   3.996  14.988  1.00  0.00     0.089 C
HETATM   13  C4  UNL     1      -6.113   3.882  16.492  1.00  0.00     0.055 C
HETATM   14  C3  UNL     1      -5.278   2.682  16.854  1.00  0.00     0.017 C
HETATM   15  C12 UNL     1      -4.075   2.580  15.993  1.00  0.00     0.055 C
HETATM   16  C11 UNL     1      -3.790   3.832  15.166  1.00  0.00     0.089 C
BRANCH  14  17
HETATM   17  C2  UNL     1      -6.184   1.490  16.655  1.00  0.00    -0.032 C
HETATM   18  C1  UNL     1      -7.127   1.237  17.546  1.00  0.00     0.007 C
ENDBRANCH  14  17
ENDBRANCH   1  11
TORSDOF 2
ENDMDL