MODEL 4
REMARK VINA RESULT: -6.745791181      2.754      5.971
REMARK  3 active torsions:
REMARK  status: ('A' for Active; 'I' for Inactive)
REMARK    1  A    between atoms: C1_2  and  C2_3
REMARK       I    between atoms: C1_2  and  N1_10
REMARK    2  A    between atoms: C2_3  and  C3_4
REMARK    3  A    between atoms: N1_10  and  C9_12
ROOT
HETATM    1  O1  UNL     1      -4.963   2.771  12.755  1.00  0.00    -0.274 OA
HETATM    2  C1  UNL     1      -4.024   3.163  13.476  1.00  0.00     0.220 C
HETATM    3  N1  UNL     1      -3.811   2.612  14.766  1.00  0.00    -0.332 N
ATOM      4  H1  UNL     1      -3.033   2.954  15.329  1.00  0.00     0.165 HD
ENDROOT
BRANCH   3   5
HETATM    5  C9  UNL     1      -4.667   1.577  15.307  1.00  0.00     0.255 C
HETATM    6  O2  UNL     1      -4.303   1.124  16.573  1.00  0.00    -0.356 OA
HETATM    7  C10 UNL     1      -5.663   0.995  16.866  1.00  0.00     0.157 C
HETATM    8  C11 UNL     1      -6.041   1.216  18.282  1.00  0.00     0.037 C
HETATM    9  C14 UNL     1      -5.951   2.117  15.938  1.00  0.00     0.199 C
HETATM   10  C12 UNL     1      -6.138   2.634  18.712  1.00  0.00     0.029 C
HETATM   11  C13 UNL     1      -6.434   3.608  17.624  1.00  0.00     0.168 C
HETATM   12  O3  UNL     1      -5.719   3.367  16.456  1.00  0.00    -0.379 OA
ENDBRANCH   3   5
BRANCH   2  13
HETATM   13  C2  UNL     1      -3.115   4.220  12.976  1.00  0.00     0.107 C
BRANCH  13  14
HETATM   14  C3  UNL     1      -2.777   5.235  14.042  1.00  0.00    -0.006 C
HETATM   15  C4  UNL     1      -3.900   6.234  14.156  1.00  0.00     0.005 C
HETATM   16  C5  UNL     1      -3.769   7.212  13.017  1.00  0.00     0.000 C
HETATM   17  C6  UNL     1      -2.564   8.069  13.259  1.00  0.00     0.000 C
HETATM   18  C7  UNL     1      -1.411   7.345  13.860  1.00  0.00     0.000 C
HETATM   19  C8  UNL     1      -1.462   5.849  13.730  1.00  0.00     0.005 C
ENDBRANCH  13  14
ENDBRANCH   2  13
TORSDOF 3
ENDMDL