MODEL 1
REMARK VINA RESULT: -6.128013190      0.000      0.000
REMARK  2 active torsions:
REMARK  status: ('A' for Active; 'I' for Inactive)
REMARK    1  A    between atoms: C15_17  and  C16_18
REMARK    2  A    between atoms: C16_18  and  O1_19
ROOT
HETATM    1  N1  UNL     1      -2.944   1.262  10.483  1.00  0.00    -0.196 NA
HETATM    2  C1  UNL     1      -3.091   2.264  11.070  1.00  0.00     0.069 C
HETATM    3  C2  UNL     1      -3.259   3.552  11.793  1.00  0.00     0.056 C
HETATM    4  C3  UNL     1      -4.266   4.340  11.109  1.00  0.00     0.027 C
HETATM    5  C4  UNL     1      -3.955   5.754  10.699  1.00  0.00     0.023 C
HETATM    6  C5  UNL     1      -4.622   6.793  11.541  1.00  0.00     0.082 A
HETATM    7  C6  UNL     1      -4.190   7.214  12.800  1.00  0.00     0.089 A
HETATM    8  C7  UNL     1      -3.250   6.661  13.732  1.00  0.00     0.035 C
HETATM    9  C8  UNL     1      -1.870   6.257  13.272  1.00  0.00     0.016 C
HETATM   10  C9  UNL     1      -1.790   4.763  13.315  1.00  0.00    -0.003 C
HETATM   11  C10 UNL     1      -1.882   4.111  11.960  1.00  0.00     0.030 C
HETATM   12  C11 UNL     1      -3.009   4.268  14.123  1.00  0.00     0.027 C
HETATM   13  C12 UNL     1      -3.672   5.469  14.574  1.00  0.00    -0.068 C
HETATM   14  C13 UNL     1      -5.102   5.483  14.904  1.00  0.00     0.015 C
HETATM   15  C14 UNL     1      -5.928   5.895  13.958  1.00  0.00     0.061 C
HETATM   16  N2  UNL     1      -5.366   6.274  12.739  1.00  0.00    -0.280 NA
HETATM   17  C15 UNL     1      -3.534   3.222  13.263  1.00  0.00     0.040 C
ENDROOT
BRANCH  17  18
HETATM   18  C16 UNL     1      -4.780   2.511  13.540  1.00  0.00     0.171 C
BRANCH  18  19
HETATM   19  O1  UNL     1      -4.453   1.279  14.170  1.00  0.00    -0.400 OA
ATOM     20  H1  UNL     1      -5.203   0.701  14.094  1.00  0.00     0.209 HD
ENDBRANCH  18  19
ENDBRANCH  17  18
TORSDOF 2
ENDMDL