MODEL 1
REMARK VINA RESULT: -6.040926368      0.000      0.000
REMARK  2 active torsions:
REMARK  status: ('A' for Active; 'I' for Inactive)
REMARK    1  A    between atoms: C1_2  and  C2_3
REMARK       I    between atoms: C1_2  and  N1_11
REMARK    2  A    between atoms: C5_6  and  C6_7
ROOT
HETATM    1  C2  UNL     1      -5.311   5.029  15.042  1.00  0.00     0.078 C
HETATM    2  C3  UNL     1      -5.804   3.647  14.696  1.00  0.00     0.014 C
HETATM    3  C4  UNL     1      -5.561   2.655  15.806  1.00  0.00     0.006 C
HETATM    4  C5  UNL     1      -5.689   3.319  17.173  1.00  0.00    -0.004 C
HETATM    5  C7  UNL     1      -6.688   4.440  16.985  1.00  0.00     0.006 C
HETATM    6  C8  UNL     1      -5.932   5.566  16.307  1.00  0.00     0.014 C
ENDROOT
BRANCH   1   7
HETATM    7  C1  UNL     1      -5.665   5.968  13.939  1.00  0.00     0.224 C
HETATM    8  O1  UNL     1      -6.869   6.247  13.724  1.00  0.00    -0.273 OA
HETATM    9  N1  UNL     1      -4.675   6.560  13.121  1.00  0.00    -0.348 N
HETATM   10  C9  UNL     1      -5.077   7.467  12.069  1.00  0.00     0.152 C
HETATM   11  C12 UNL     1      -3.251   6.328  13.248  1.00  0.00     0.152 C
HETATM   12  C10 UNL     1      -3.881   8.357  11.784  1.00  0.00     0.187 C
HETATM   13  O2  UNL     1      -2.799   7.651  11.283  1.00  0.00    -0.388 OA
HETATM   14  C11 UNL     1      -2.573   6.456  11.905  1.00  0.00     0.187 C
ENDBRANCH   1   7
BRANCH   4  15
HETATM   15  C6  UNL     1      -6.116   2.332  18.228  1.00  0.00     0.090 C
HETATM   16  S1  UNL     1      -6.360   0.727  17.436  1.00  0.00    -0.097 SA
ENDBRANCH   4  15
TORSDOF 2
ENDMDL