MODEL 5
REMARK VINA RESULT: -6.587759380      2.347      3.635
REMARK  3 active torsions:
REMARK  status: ('A' for Active; 'I' for Inactive)
REMARK    1  A    between atoms: C1_2  and  C2_3
REMARK       I    between atoms: C1_2  and  N1_11
REMARK    2  A    between atoms: C5_7  and  C6_8
REMARK    3  A    between atoms: C6_8  and  O3_9
ROOT
HETATM    1  O1  UNL     1      -3.063   2.105  16.576  1.00  0.00    -0.270 OA
HETATM    2  C1  UNL     1      -4.072   2.434  15.901  1.00  0.00     0.249 C
HETATM    3  N1  UNL     1      -3.970   3.509  15.002  1.00  0.00    -0.349 N
HETATM    4  C7  UNL     1      -2.655   4.158  14.963  1.00  0.00     0.130 C
HETATM    5  C8  UNL     1      -2.565   5.205  13.905  1.00  0.00     0.004 C
HETATM    6  C9  UNL     1      -3.669   6.222  13.972  1.00  0.00     0.007 C
HETATM    7  C10 UNL     1      -4.670   5.887  12.903  1.00  0.00     0.007 C
HETATM    8  C11 UNL     1      -4.807   4.379  12.867  1.00  0.00     0.004 C
HETATM    9  C12 UNL     1      -3.604   3.709  12.266  1.00  0.00     0.007 C
HETATM   10  C13 UNL     1      -2.412   4.616  12.518  1.00  0.00     0.007 C
HETATM   11  C14 UNL     1      -5.133   3.830  14.242  1.00  0.00     0.130 C
ENDROOT
BRANCH   2  12
HETATM   12  C2  UNL     1      -5.307   1.649  16.112  1.00  0.00     0.219 C
HETATM   13  O2  UNL     1      -5.142   0.685  17.108  1.00  0.00    -0.376 OA
HETATM   14  C3  UNL     1      -6.368   0.371  17.622  1.00  0.00     0.169 C
HETATM   15  C4  UNL     1      -7.388   1.318  17.081  1.00  0.00     0.036 C
HETATM   16  C5  UNL     1      -6.484   2.466  16.591  1.00  0.00     0.049 C
BRANCH  16  17
HETATM   17  C6  UNL     1      -6.171   3.276  17.817  1.00  0.00     0.172 C
BRANCH  17  18
HETATM   18  O3  UNL     1      -6.777   4.508  17.868  1.00  0.00    -0.400 OA
ATOM     19  H3  UNL     1      -7.523   4.564  18.454  1.00  0.00     0.209 HD
ENDBRANCH  17  18
ENDBRANCH  16  17
ENDBRANCH   2  12
TORSDOF 3
ENDMDL