MODEL 1
REMARK VINA RESULT: -5.986495828      0.000      0.000
REMARK  2 active torsions:
REMARK  status: ('A' for Active; 'I' for Inactive)
REMARK    1  A    between atoms: O1_2  and  C2_3
REMARK    2  A    between atoms: C2_3  and  C3_4
ROOT
HETATM    1  C3  UNL     1      -3.970   4.274  11.723  1.00  0.00     0.020 A
HETATM    2  C4  UNL     1      -3.887   5.609  12.261  1.00  0.00     0.006 A
HETATM    3  C5  UNL     1      -4.971   6.265  13.028  1.00  0.00     0.011 C
HETATM    4  C6  UNL     1      -4.131   6.144  14.281  1.00  0.00    -0.007 C
HETATM    5  C7  UNL     1      -4.860   5.603  15.381  1.00  0.00     0.014 C
HETATM    6  C8  UNL     1      -5.319   4.219  15.643  1.00  0.00     0.037 C
HETATM    7  C9  UNL     1      -3.982   3.375  15.802  1.00  0.00     0.086 C
HETATM    8  C10 UNL     1      -4.855   2.240  15.268  1.00  0.00     0.057 C
HETATM    9  C11 UNL     1      -5.781   3.279  14.607  1.00  0.00     0.130 C
HETATM   10  O2  UNL     1      -5.599   3.453  13.285  1.00  0.00    -0.379 OA
HETATM   11  C12 UNL     1      -4.541   3.093  12.582  1.00  0.00     0.140 A
HETATM   12  C13 UNL     1      -3.173   3.413  12.595  1.00  0.00     0.052 A
HETATM   13  C14 UNL     1      -2.540   4.213  13.727  1.00  0.00     0.089 A
HETATM   14  N1  UNL     1      -3.013   3.801  14.945  1.00  0.00    -0.412 N
ATOM     15  H1  UNL     1      -2.181   3.829  15.535  1.00  0.00     0.154 HD
HETATM   16  C15 UNL     1      -2.998   5.680  13.490  1.00  0.00     0.017 A
ENDROOT
BRANCH   1  17
HETATM   17  C2  UNL     1      -3.922   4.038  10.237  1.00  0.00     0.180 C
BRANCH  17  18
HETATM   18  O1  UNL     1      -2.763   3.725   9.706  1.00  0.00    -0.395 OA
HETATM   19  C1  UNL     1      -2.001   4.506   8.924  1.00  0.00     0.201 C
ENDBRANCH  17  18
ENDBRANCH   1  17
TORSDOF 2
ENDMDL