MODEL 1
REMARK VINA RESULT: -6.740981443      0.000      0.000
REMARK  2 active torsions:
REMARK  status: ('A' for Active; 'I' for Inactive)
REMARK    1  A    between atoms: C4_4  and  N1_5
REMARK    2  A    between atoms: C8_9  and  N2_10
ROOT
HETATM    1  N1  UNL     1      -5.478   3.489  15.038  1.00  0.00     0.095 N
HETATM    2  C5  UNL     1      -6.195   4.703  14.839  1.00  0.00     0.273 C
HETATM    3  C6  UNL     1      -5.359   5.938  15.140  1.00  0.00     0.032 C
HETATM    4  C7  UNL     1      -4.158   5.960  14.212  1.00  0.00     0.039 C
HETATM    5  C8  UNL     1      -3.427   4.667  14.386  1.00  0.00     0.251 C
HETATM    6  C13 UNL     1      -4.359   3.492  14.120  1.00  0.00     0.308 C
ENDROOT
BRANCH   5   7
HETATM    7  N2  UNL     1      -2.277   4.513  13.563  1.00  0.00     0.098 N
HETATM    8  C9  UNL     1      -2.463   3.770  12.364  1.00  0.00     0.300 C
HETATM    9  C10 UNL     1      -2.025   4.600  11.157  1.00  0.00     0.262 C
HETATM   10  N3  UNL     1      -0.627   4.881  11.312  1.00  0.00    -0.072 N
HETATM   11  C11 UNL     1      -0.353   5.607  12.514  1.00  0.00     0.262 C
ATOM     12  H32 UNL     1      -0.070   4.029  11.261  1.00  0.00     0.277 HD
ATOM     13  H31 UNL     1      -0.254   5.366  10.495  1.00  0.00     0.277 HD
HETATM   14  C12 UNL     1      -1.557   5.737  13.419  1.00  0.00     0.300 C
ENDBRANCH   5   7
BRANCH   1  15
HETATM   15  C4  UNL     1      -5.124   3.179  16.382  1.00  0.00     0.223 C
HETATM   16  C3  UNL     1      -4.358   1.894  16.525  1.00  0.00     0.036 C
HETATM   17  C2  UNL     1      -5.210   0.672  16.323  1.00  0.00     0.002 C
HETATM   18  C1  UNL     1      -6.199   0.660  17.486  1.00  0.00     0.000 C
HETATM   19  C15 UNL     1      -7.052   1.871  17.341  1.00  0.00     0.002 C
HETATM   20  C14 UNL     1      -6.315   3.165  17.289  1.00  0.00     0.036 C
ENDBRANCH   1  15
TORSDOF 2
ENDMDL