MODEL 5
REMARK VINA RESULT: -5.891079645      2.949      6.474
REMARK  5 active torsions:
REMARK  status: ('A' for Active; 'I' for Inactive)
REMARK    1  A    between atoms: O1_1  and  C1_3
REMARK    2  A    between atoms: C1_3  and  C2_4
REMARK    3  A    between atoms: C3_5  and  C4_6
REMARK    4  A    between atoms: C4_6  and  C5_7
REMARK    5  A    between atoms: C5_7  and  N1_8
ROOT
HETATM    1  C2  UNL     1      -4.587   3.904  15.367  1.00  0.00    -0.066 C
HETATM    2  C3  UNL     1      -3.981   4.808  14.834  1.00  0.00    -0.102 C
ENDROOT
BRANCH   2   3
HETATM    3  C4  UNL     1      -3.261   5.895  14.169  1.00  0.00     0.124 C
BRANCH   3   4
HETATM    4  C5  UNL     1      -2.916   5.586  12.755  1.00  0.00     0.285 C
BRANCH   4   5
HETATM    5  N1  UNL     1      -2.307   4.304  12.556  1.00  0.00     0.098 N
HETATM    6  C6  UNL     1      -0.976   4.391  11.986  1.00  0.00     0.223 C
HETATM    7  C7  UNL     1      -0.667   2.922  11.763  1.00  0.00     0.038 C
HETATM    8  C11 UNL     1      -1.268   4.984  10.631  1.00  0.00     0.038 C
HETATM    9  C8  UNL     1      -2.044   2.286  11.525  1.00  0.00     0.038 C
HETATM   10  C9  UNL     1      -2.940   3.516  11.518  1.00  0.00     0.223 C
HETATM   11  C10 UNL     1      -2.588   4.304  10.283  1.00  0.00     0.038 C
ENDBRANCH   4   5
ENDBRANCH   3   4
ENDBRANCH   2   3
BRANCH   1  12
HETATM   12  C1  UNL     1      -5.333   2.796  15.992  1.00  0.00     0.142 C
HETATM   13  C12 UNL     1      -5.911   3.304  17.266  1.00  0.00     0.056 C
HETATM   14  C13 UNL     1      -6.250   2.229  18.256  1.00  0.00     0.030 C
HETATM   15  C14 UNL     1      -5.979   0.866  17.659  1.00  0.00     0.168 C
HETATM   16  O2  UNL     1      -4.662   0.848  17.247  1.00  0.00    -0.387 OA
HETATM   17  C15 UNL     1      -4.412   1.629  16.143  1.00  0.00     0.219 C
BRANCH  12  18
HETATM   18  O1  UNL     1      -6.368   2.414  15.109  1.00  0.00    -0.375 OA
ATOM     19  H1  UNL     1      -6.600   1.513  15.301  1.00  0.00     0.211 HD
ENDBRANCH  12  18
ENDBRANCH   1  12
TORSDOF 5
ENDMDL