MODEL 5
REMARK VINA RESULT: -6.081136770      1.083      1.566
REMARK  2 active torsions:
REMARK  status: ('A' for Active; 'I' for Inactive)
REMARK    1  A    between atoms: C4_4  and  N1_5
REMARK    2  A    between atoms: C7_8  and  N2_9
ROOT
HETATM    1  N1  UNL     1      -4.585   3.449  15.799  1.00  0.00     0.093 N
HETATM    2  C5  UNL     1      -5.379   4.678  15.661  1.00  0.00     0.275 C
HETATM    3  C6  UNL     1      -4.467   5.687  15.012  1.00  0.00     0.055 C
HETATM    4  C7  UNL     1      -3.349   5.096  14.213  1.00  0.00     0.086 C
HETATM    5  C13 UNL     1      -3.703   3.770  13.582  1.00  0.00     0.055 C
HETATM    6  C14 UNL     1      -4.544   2.901  14.458  1.00  0.00     0.275 C
ENDROOT
BRANCH   4   7
HETATM    7  N2  UNL     1      -2.903   5.965  13.154  1.00  0.00    -0.387 N
HETATM    8  C8  UNL     1      -1.506   6.190  13.105  1.00  0.00     0.124 C
HETATM    9  C9  UNL     1      -1.047   6.037  11.669  1.00  0.00     0.039 C
HETATM   10  C10 UNL     1      -1.990   6.853  10.814  1.00  0.00     0.115 C
HETATM   11  N3  UNL     1      -2.105   8.155  11.391  1.00  0.00    -0.417 N
HETATM   12  C11 UNL     1      -3.086   8.300  12.402  1.00  0.00     0.158 C
ATOM     13  H3  UNL     1      -1.516   8.932  11.092  1.00  0.00     0.153 HD
HETATM   14  C12 UNL     1      -3.755   7.043  12.840  1.00  0.00     0.077 C
ENDBRANCH   4   7
BRANCH   1  15
HETATM   15  C4  UNL     1      -5.246   2.611  16.743  1.00  0.00     0.223 C
HETATM   16  C3  UNL     1      -6.695   2.839  16.954  1.00  0.00     0.036 C
HETATM   17  C2  UNL     1      -7.268   1.465  17.331  1.00  0.00     0.002 C
HETATM   18  C1  UNL     1      -6.053   0.592  17.601  1.00  0.00     0.002 C
HETATM   19  C15 UNL     1      -5.079   1.143  16.550  1.00  0.00     0.036 C
ENDBRANCH   1  15
TORSDOF 2
ENDMDL