MODEL 4
REMARK VINA RESULT: -6.567943256      2.155      3.184
REMARK  3 active torsions:
REMARK  status: ('A' for Active; 'I' for Inactive)
REMARK    1  A    between atoms: C1_2  and  O2_3
REMARK    2  A    between atoms: C1_2  and  C7_11
REMARK    3  A    between atoms: O2_3  and  C2_4
ROOT
HETATM    1  O1  UNL     1      -5.605   1.534  15.794  1.00  0.00    -0.264 OA
HETATM    2  C1  UNL     1      -4.750   2.109  15.035  1.00  0.00     0.268 C
ENDROOT
BRANCH   2   3
HETATM    3  O2  UNL     1      -3.956   1.238  14.295  1.00  0.00    -0.314 OA
BRANCH   3   4
HETATM    4  C2  UNL     1      -4.303   0.810  13.013  1.00  0.00     0.149 C
HETATM    5  C3  UNL     1      -3.532   1.627  12.013  1.00  0.00     0.036 C
HETATM    6  C4  UNL     1      -3.905   1.132  10.616  1.00  0.00     0.022 C
HETATM    7  C5  UNL     1      -3.416  -0.316  10.555  1.00  0.00     0.114 C
HETATM    8  N1  UNL     1      -4.210  -1.072  11.465  1.00  0.00    -0.419 N
HETATM    9  C6  UNL     1      -4.133  -0.674  12.828  1.00  0.00     0.146 C
ATOM     10  H1  UNL     1      -4.795  -1.848  11.159  1.00  0.00     0.153 HD
ENDBRANCH   3   4
ENDBRANCH   2   3
BRANCH   2  11
HETATM   11  C7  UNL     1      -4.660   3.558  14.991  1.00  0.00     0.052 C
HETATM   12  C8  UNL     1      -5.147   4.141  16.308  1.00  0.00     0.025 C
HETATM   13  C9  UNL     1      -5.570   5.538  15.827  1.00  0.00    -0.013 C
HETATM   14  C10 UNL     1      -4.323   6.245  15.389  1.00  0.00     0.009 C
HETATM   15  C14 UNL     1      -6.447   5.138  14.646  1.00  0.00     0.010 C
HETATM   16  C11 UNL     1      -3.574   5.509  14.326  1.00  0.00    -0.013 C
HETATM   17  C12 UNL     1      -4.531   5.177  13.182  1.00  0.00     0.010 C
HETATM   18  C15 UNL     1      -3.252   4.085  14.806  1.00  0.00     0.025 C
HETATM   19  C13 UNL     1      -5.474   4.207  13.910  1.00  0.00     0.004 C
ENDBRANCH   2  11
TORSDOF 3
ENDMDL