MODEL 3
REMARK VINA RESULT: -5.678412628      2.047      4.172
REMARK  4 active torsions:
REMARK  status: ('A' for Active; 'I' for Inactive)
REMARK    1  A    between atoms: C9_9  and  O1_10
REMARK    2  A    between atoms: C11_12  and  C12_13
REMARK    3  A    between atoms: C12_13  and  O2_14
REMARK    4  A    between atoms: C16_19  and  O3_20
ROOT
HETATM    1  C1  UNL     1      25.792   3.119  19.254  1.00  0.00     0.019 C
HETATM    2  C2  UNL     1      24.500   3.265  19.494  1.00  0.00    -0.063 C
HETATM    3  C3  UNL     1      24.128   4.630  20.059  1.00  0.00     0.038 C
HETATM    4  C4  UNL     1      23.914   4.353  21.507  1.00  0.00     0.012 C
HETATM    5  C5  UNL     1      22.725   3.555  21.864  1.00  0.00     0.025 C
HETATM    6  C6  UNL     1      21.795   3.056  20.864  1.00  0.00    -0.003 C
HETATM    7  C7  UNL     1      22.176   2.641  19.522  1.00  0.00     0.042 C
HETATM    8  C8  UNL     1      23.533   2.177  19.220  1.00  0.00    -0.045 C
HETATM    9  C9  UNL     1      23.945   0.812  19.613  1.00  0.00     0.157 C
HETATM   10  C11 UNL     1      23.319   0.072  20.696  1.00  0.00     0.051 C
HETATM   11  C13 UNL     1      23.220   0.511  22.081  1.00  0.00    -0.027 C
HETATM   12  C14 UNL     1      23.171  -0.710  23.053  1.00  0.00     0.016 C
HETATM   13  C15 UNL     1      24.147   1.529  22.661  1.00  0.00     0.048 C
HETATM   14  C16 UNL     1      23.035   2.460  22.883  1.00  0.00     0.067 C
HETATM   15  C17 UNL     1      22.075   1.364  22.507  1.00  0.00     0.029 C
HETATM   16  C18 UNL     1      21.120   1.834  21.518  1.00  0.00     0.014 C
ENDROOT
BRANCH  10  17
HETATM   17  C12 UNL     1      24.101  -1.266  20.752  1.00  0.00     0.172 C
BRANCH  17  18
HETATM   18  O2  UNL     1      25.410  -0.969  20.469  1.00  0.00    -0.400 OA
ATOM     19  H2  UNL     1      25.817  -0.718  21.290  1.00  0.00     0.209 HD
ENDBRANCH  17  18
ENDBRANCH  10  17
BRANCH   9  20
HETATM   20  O1  UNL     1      23.748   0.013  18.433  1.00  0.00    -0.386 OA
HETATM   21  C10 UNL     1      24.582   0.266  17.402  1.00  0.00     0.202 C
ENDBRANCH   9  20
BRANCH  14  22
HETATM   22  O3  UNL     1      22.953   2.891  24.231  1.00  0.00    -0.389 OA
ATOM     23  H3  UNL     1      22.198   3.439  24.414  1.00  0.00     0.210 HD
ENDBRANCH  14  22
TORSDOF 4
ENDMDL