MODEL 1
REMARK VINA RESULT: -7.717902846      0.000      0.000
REMARK  4 active torsions:
REMARK  status: ('A' for Active; 'I' for Inactive)
REMARK    1  A    between atoms: O1_1  and  C1_3
REMARK    2  A    between atoms: C1_3  and  C2_4
REMARK    3  A    between atoms: C3_5  and  N1_6
REMARK    4  A    between atoms: N1_6  and  C4_8
ROOT
HETATM    1  C2  UNL     1      23.145   7.439  16.991  1.00  0.00     0.038 C
HETATM    2  C3  UNL     1      24.266   6.478  16.705  1.00  0.00     0.084 C
HETATM    3  C14 UNL     1      24.772   6.935  15.333  1.00  0.00     0.032 C
HETATM    4  C15 UNL     1      24.218   8.321  15.112  1.00  0.00     0.019 C
HETATM    5  C16 UNL     1      22.966   8.320  14.268  1.00  0.00     0.237 C
HETATM    6  N2  UNL     1      22.050   9.267  14.836  1.00  0.00    -0.074 N
ATOM      7  H21 UNL     1      21.103   8.899  14.922  1.00  0.00     0.277 HD
ATOM      8  H22 UNL     1      21.838  10.039  14.205  1.00  0.00     0.277 HD
HETATM    9  C17 UNL     1      22.594   9.709  16.097  1.00  0.00     0.237 C
HETATM   10  C18 UNL     1      23.697   8.768  16.460  1.00  0.00     0.025 C
ENDROOT
BRANCH   2  11
HETATM   11  N1  UNL     1      23.824   5.146  16.580  1.00  0.00    -0.408 N
ATOM     12  H1  UNL     1      23.031   4.918  15.981  1.00  0.00     0.154 HD
BRANCH  11  13
HETATM   13  C4  UNL     1      24.499   4.128  17.299  1.00  0.00     0.027 C
HETATM   14  C5  UNL     1      25.963   4.007  17.051  1.00  0.00     0.035 C
HETATM   15  C6  UNL     1      26.595   3.017  17.997  1.00  0.00    -0.012 C
HETATM   16  C7  UNL     1      26.019   1.634  17.828  1.00  0.00     0.009 C
HETATM   17  C11 UNL     1      26.396   3.479  19.421  1.00  0.00     0.009 C
HETATM   18  C8  UNL     1      24.524   1.746  18.003  1.00  0.00    -0.012 C
HETATM   19  C9  UNL     1      24.289   2.105  19.469  1.00  0.00     0.009 C
HETATM   20  C13 UNL     1      23.893   2.745  17.073  1.00  0.00     0.035 C
HETATM   21  C10 UNL     1      24.909   3.453  19.688  1.00  0.00    -0.012 C
HETATM   22  C12 UNL     1      24.254   4.437  18.784  1.00  0.00     0.035 C
ENDBRANCH  11  13
ENDBRANCH   2  11
BRANCH   1  23
HETATM   23  C1  UNL     1      22.830   7.646  18.429  1.00  0.00     0.171 C
BRANCH  23  24
HETATM   24  O1  UNL     1      21.465   7.709  18.698  1.00  0.00    -0.400 OA
ATOM     25  H1  UNL     1      21.114   6.909  19.071  1.00  0.00     0.209 HD
ENDBRANCH  23  24
ENDBRANCH   1  23
TORSDOF 4
ENDMDL