MODEL 4
REMARK VINA RESULT: -6.716656378      3.670      5.611
REMARK  4 active torsions:
REMARK  status: ('A' for Active; 'I' for Inactive)
REMARK    1  A    between atoms: C2_2  and  O1_3
REMARK    2  A    between atoms: O1_3  and  C3_4
REMARK    3  A    between atoms: C14_15  and  O2_16
REMARK    4  A    between atoms: C15_18  and  O3_19
ROOT
HETATM    1  C3  UNL     1      25.488   3.584  18.501  1.00  0.00     0.132 C
HETATM    2  C4  UNL     1      26.235   2.305  18.072  1.00  0.00     0.033 C
HETATM    3  C5  UNL     1      25.365   1.142  18.587  1.00  0.00     0.008 C
HETATM    4  C6  UNL     1      24.162   1.817  19.005  1.00  0.00    -0.003 C
HETATM    5  C7  UNL     1      24.764   3.070  19.683  1.00  0.00     0.020 C
HETATM    6  C8  UNL     1      23.562   3.746  20.161  1.00  0.00     0.013 C
HETATM    7  C9  UNL     1      22.573   2.619  20.382  1.00  0.00    -0.001 C
HETATM    8  C10 UNL     1      23.307   1.325  20.090  1.00  0.00    -0.005 C
HETATM    9  C11 UNL     1      23.976   0.698  21.241  1.00  0.00     0.006 C
HETATM   10  C12 UNL     1      23.288   0.803  22.557  1.00  0.00     0.008 C
HETATM   11  C13 UNL     1      22.830   2.209  22.781  1.00  0.00     0.025 C
HETATM   12  C14 UNL     1      21.960   2.408  23.969  1.00  0.00     0.151 C
HETATM   13  C15 UNL     1      21.092   3.607  23.632  1.00  0.00     0.148 C
HETATM   14  C16 UNL     1      21.379   3.916  22.156  1.00  0.00     0.044 C
HETATM   15  C17 UNL     1      21.870   2.614  21.657  1.00  0.00    -0.032 C
HETATM   16  C18 UNL     1      20.695   1.660  21.575  1.00  0.00     0.016 C
ENDROOT
BRANCH   1  17
HETATM   17  O1  UNL     1      24.570   3.876  17.444  1.00  0.00    -0.358 OA
BRANCH  17  18
HETATM   18  C2  UNL     1      24.446   5.124  16.878  1.00  0.00     0.125 C
HETATM   19  C1  UNL     1      25.210   5.567  15.901  1.00  0.00     0.037 C
ENDBRANCH  17  18
ENDBRANCH   1  17
BRANCH  12  20
HETATM   20  O2  UNL     1      22.679   2.694  25.131  1.00  0.00    -0.393 OA
ATOM     21  H2  UNL     1      22.744   3.625  25.308  1.00  0.00     0.210 HD
ENDBRANCH  12  20
BRANCH  13  22
HETATM   22  O3  UNL     1      21.412   4.703  24.439  1.00  0.00    -0.393 OA
ATOM     23  H3  UNL     1      21.429   5.507  23.932  1.00  0.00     0.210 HD
ENDBRANCH  13  22
TORSDOF 4
ENDMDL