MODEL 3
REMARK VINA RESULT: -7.615615116      0.964      1.640
REMARK  6 active torsions:
REMARK  status: ('A' for Active; 'I' for Inactive)
REMARK    1  A    between atoms: C5_5  and  N1_6
REMARK    2  A    between atoms: N1_6  and  C6_8
REMARK    3  A    between atoms: C6_8  and  O1_10
REMARK    4  A    between atoms: O1_10  and  C7_11
REMARK    5  A    between atoms: C7_11  and  C13_20
REMARK    6  A    between atoms: C9_16  and  C11_18
ROOT
HETATM    1  O1  UNL     1      24.051   5.550  18.857  1.00  0.00    -0.314 OA
ENDROOT
BRANCH   1   2
HETATM    2  C6  UNL     1      23.127   6.124  19.735  1.00  0.00     0.211 C
HETATM    3  S1  UNL     1      22.541   5.320  21.022  1.00  0.00    -0.033 SA
BRANCH   2   4
HETATM    4  N1  UNL     1      22.658   7.463  19.525  1.00  0.00    -0.357 N
ATOM      5  H1  UNL     1      22.966   8.216  20.139  1.00  0.00     0.162 HD
BRANCH   4   6
HETATM    6  C5  UNL     1      21.741   7.742  18.431  1.00  0.00     0.084 C
HETATM    7  C4  UNL     1      22.437   7.945  17.121  1.00  0.00     0.025 C
HETATM    8  C3  UNL     1      22.424   9.396  16.678  1.00  0.00     0.006 C
HETATM    9  C2  UNL     1      21.030   9.933  16.583  1.00  0.00    -0.019 C
HETATM   10  C1  UNL     1      21.069  11.450  16.727  1.00  0.00     0.010 C
HETATM   11  C16 UNL     1      20.096   9.360  17.611  1.00  0.00     0.006 C
HETATM   12  C15 UNL     1      20.900   8.927  18.827  1.00  0.00     0.025 C
ENDBRANCH   4   6
ENDBRANCH   2   4
ENDBRANCH   1   2
BRANCH   1  13
HETATM   13  C7  UNL     1      24.096   4.190  18.631  1.00  0.00     0.099 C
HETATM   14  C8  UNL     1      24.677   3.956  17.227  1.00  0.00     0.271 C
HETATM   15  N2  UNL     1      25.207   2.636  17.263  1.00  0.00    -0.068 N
HETATM   16  C9  UNL     1      25.158   2.178  18.663  1.00  0.00     0.193 C
ATOM     17  H22 UNL     1      24.735   2.001  16.620  1.00  0.00     0.277 HD
ATOM     18  H21 UNL     1      26.140   2.571  16.856  1.00  0.00     0.277 HD
HETATM   19  C10 UNL     1      25.268   3.515  19.372  1.00  0.00     0.074 C
BRANCH  16  20
HETATM   20  C11 UNL     1      23.774   1.578  18.846  1.00  0.00     0.017 C
HETATM   21  C12 UNL     1      23.678   0.205  18.240  1.00  0.00     0.014 C
HETATM   22  C13 UNL     1      24.515  -0.250  19.433  1.00  0.00     0.023 C
HETATM   23  C14 UNL     1      23.697   0.815  20.179  1.00  0.00     0.014 C
ENDBRANCH  16  20
ENDBRANCH   1  13
TORSDOF 6
ENDMDL