MODEL 3
REMARK VINA RESULT: -7.905688142      1.933      4.039
REMARK  2 active torsions:
REMARK  status: ('A' for Active; 'I' for Inactive)
REMARK    1  A    between atoms: C1_4  and  C2_6
REMARK    2  A    between atoms: C7_11  and  N3_12
ROOT
HETATM    1  C2  UNL     1      22.551   5.461  20.835  1.00  0.00     0.018 C
HETATM    2  C3  UNL     1      22.110   4.085  20.320  1.00  0.00     0.017 C
HETATM    3  C4  UNL     1      23.366   3.350  19.958  1.00  0.00     0.006 C
HETATM    4  C5  UNL     1      24.476   4.393  20.067  1.00  0.00    -0.012 C
HETATM    5  C6  UNL     1      24.499   5.171  18.799  1.00  0.00     0.029 C
HETATM    6  C7  UNL     1      23.665   6.390  18.758  1.00  0.00     0.081 C
HETATM    7  C17 UNL     1      22.470   6.391  19.670  1.00  0.00     0.042 C
HETATM    8  C18 UNL     1      23.963   5.224  21.250  1.00  0.00     0.021 C
ENDROOT
BRANCH   6   9
HETATM    9  N3  UNL     1      23.189   6.645  17.447  1.00  0.00    -0.403 N
HETATM   10  C8  UNL     1      23.933   6.140  16.375  1.00  0.00     0.117 C
HETATM   11  C9  UNL     1      23.720   7.050  15.158  1.00  0.00     0.020 C
HETATM   12  C10 UNL     1      24.017   8.491  15.518  1.00  0.00     0.008 C
HETATM   13  C11 UNL     1      23.200   8.969  16.681  1.00  0.00     0.008 C
HETATM   14  C12 UNL     1      22.196   9.998  16.199  1.00  0.00     0.007 C
HETATM   15  C16 UNL     1      22.413   7.795  17.225  1.00  0.00     0.083 C
HETATM   16  C13 UNL     1      21.193  10.379  17.244  1.00  0.00     0.001 C
HETATM   17  C14 UNL     1      20.547   9.186  17.897  1.00  0.00     0.002 C
HETATM   18  C15 UNL     1      21.619   8.223  18.412  1.00  0.00     0.025 C
ENDBRANCH   6   9
BRANCH   1  19
HETATM   19  C1  UNL     1      21.643   5.855  21.904  1.00  0.00     0.095 C
HETATM   20  N1  UNL     1      21.428   7.095  22.167  1.00  0.00    -0.390 N
ATOM     21  H12 UNL     1      20.793   7.371  22.915  1.00  0.00     0.157 HD
ATOM     22  H11 UNL     1      21.907   7.799  21.605  1.00  0.00     0.157 HD
HETATM   23  N2  UNL     1      20.980   4.881  22.681  1.00  0.00    -0.087 NA
ENDBRANCH   1  19
TORSDOF 2
ENDMDL