MODEL 3
REMARK VINA RESULT: -7.696139428      2.415      5.423
REMARK  5 active torsions:
REMARK  status: ('A' for Active; 'I' for Inactive)
REMARK    1  A    between atoms: C5_5  and  N1_6
REMARK    2  A    between atoms: N1_6  and  N2_8
REMARK    3  A    between atoms: N2_8  and  C7_10
REMARK    4  A    between atoms: C7_10  and  N3_12
REMARK    5  A    between atoms: N3_12  and  N4_14
ROOT
HETATM    1  C7  UNL     1      22.405   5.120  20.740  1.00  0.00     0.205 C
HETATM    2  S1  UNL     1      22.164   3.500  20.941  1.00  0.00    -0.038 SA
ENDROOT
BRANCH   1   3
HETATM    3  N2  UNL     1      22.250   5.714  19.459  1.00  0.00    -0.277 N
ATOM      4  H2  UNL     1      21.328   6.024  19.153  1.00  0.00     0.189 HD
BRANCH   3   5
HETATM    5  N1  UNL     1      23.333   5.873  18.631  1.00  0.00    -0.325 N
HETATM    6  C6  UNL     1      24.233   4.809  18.498  1.00  0.00     0.171 C
BRANCH   5   7
HETATM    7  C5  UNL     1      23.687   7.177  18.279  1.00  0.00     0.102 C
HETATM    8  C4  UNL     1      24.280   7.247  16.876  1.00  0.00     0.027 C
HETATM    9  C3  UNL     1      24.257   8.694  16.437  1.00  0.00     0.006 C
HETATM   10  C2  UNL     1      22.845   9.168  16.170  1.00  0.00    -0.019 C
HETATM   11  C1  UNL     1      22.527   8.943  14.720  1.00  0.00     0.010 C
HETATM   12  C15 UNL     1      21.929   8.390  17.086  1.00  0.00     0.006 C
HETATM   13  C14 UNL     1      22.660   8.236  18.407  1.00  0.00     0.027 C
ENDBRANCH   5   7
ENDBRANCH   3   5
ENDBRANCH   1   3
BRANCH   1  14
HETATM   14  N3  UNL     1      22.767   5.943  21.832  1.00  0.00    -0.275 N
ATOM     15  H3  UNL     1      23.567   6.563  21.707  1.00  0.00     0.189 HD
BRANCH  14  16
HETATM   16  N4  UNL     1      22.122   5.976  23.061  1.00  0.00    -0.307 N
HETATM   17  C8  UNL     1      21.228   6.864  23.316  1.00  0.00     0.004 C
HETATM   18  C9  UNL     1      20.547   6.873  24.651  1.00  0.00     0.054 C
HETATM   19  C13 UNL     1      20.804   7.914  22.361  1.00  0.00     0.054 C
HETATM   20  C10 UNL     1      19.527   7.994  24.604  1.00  0.00     0.006 C
HETATM   21  C11 UNL     1      20.312   9.281  24.412  1.00  0.00     0.001 C
HETATM   22  C12 UNL     1      20.840   9.293  23.000  1.00  0.00     0.006 C
ATOM     23  H4  UNL     1      22.361   5.285  23.773  1.00  0.00     0.186 HD
ENDBRANCH  14  16
ENDBRANCH   1  14
TORSDOF 5
ENDMDL