MODEL 5
REMARK VINA RESULT: -6.091305879      2.557      4.564
REMARK  6 active torsions:
REMARK  status: ('A' for Active; 'I' for Inactive)
REMARK    1  A    between atoms: C2_2  and  C3_3
REMARK    2  A    between atoms: C3_3  and  C4_4
REMARK    3  A    between atoms: C4_4  and  C5_5
REMARK    4  A    between atoms: C5_5  and  C6_6
REMARK    5  A    between atoms: C10_10  and  O1_11
REMARK    6  A    between atoms: C15_17  and  O2_18
ROOT
HETATM    1  C6  UNL     1      23.302   1.971  19.668  1.00  0.00     0.097 C
HETATM    2  C7  UNL     1      23.531   1.000  18.593  1.00  0.00     0.020 C
HETATM    3  C8  UNL     1      24.098  -0.319  18.970  1.00  0.00     0.004 C
HETATM    4  C9  UNL     1      23.267  -0.815  20.135  1.00  0.00     0.041 C
HETATM    5  C10 UNL     1      23.689   0.056  21.297  1.00  0.00     0.098 C
HETATM    6  C11 UNL     1      22.957  -0.368  22.583  1.00  0.00     0.057 C
HETATM    7  C12 UNL     1      23.588   0.466  23.690  1.00  0.00     0.012 C
HETATM    8  C13 UNL     1      23.334   1.936  23.441  1.00  0.00     0.046 C
HETATM    9  C14 UNL     1      22.592   2.061  22.099  1.00  0.00     0.292 C
HETATM   10  C15 UNL     1      23.541   1.512  21.085  1.00  0.00     0.139 C
HETATM   11  N1  UNL     1      21.362   1.362  22.269  1.00  0.00     0.017 N
HETATM   12  C16 UNL     1      20.764   1.839  23.532  1.00  0.00     0.357 C
HETATM   13  O3  UNL     1      20.408   1.621  21.341  1.00  0.00    -0.064 OA
HETATM   14  C17 UNL     1      21.508  -0.065  22.428  1.00  0.00     0.319 C
ENDROOT
BRANCH   1  15
HETATM   15  C5  UNL     1      23.739   3.304  19.395  1.00  0.00    -0.148 C
BRANCH  15  16
HETATM   16  C4  UNL     1      24.121   4.470  19.157  1.00  0.00     0.051 C
BRANCH  16  17
HETATM   17  C3  UNL     1      24.161   5.325  17.999  1.00  0.00     0.003 C
BRANCH  17  18
HETATM   18  C2  UNL     1      24.692   5.061  16.853  1.00  0.00    -0.030 C
HETATM   19  C1  UNL     1      24.810   5.926  15.669  1.00  0.00     0.036 C
ENDBRANCH  17  18
ENDBRANCH  16  17
ENDBRANCH  15  16
ENDBRANCH   1  15
BRANCH  10  20
HETATM   20  O2  UNL     1      24.791   2.093  21.441  1.00  0.00    -0.383 OA
ATOM     21  H2  UNL     1      24.560   2.882  21.916  1.00  0.00     0.210 HD
ENDBRANCH  10  20
BRANCH   5  22
HETATM   22  O1  UNL     1      25.033  -0.313  21.560  1.00  0.00    -0.386 OA
ATOM     23  H1  UNL     1      25.442   0.476  21.897  1.00  0.00     0.210 HD
ENDBRANCH   5  22
TORSDOF 6
ENDMDL