MODEL 1
REMARK VINA RESULT: -5.937569675      0.000      0.000
REMARK  4 active torsions:
REMARK  status: ('A' for Active; 'I' for Inactive)
REMARK    1  A    between atoms: C5_5  and  C6_6
REMARK    2  A    between atoms: C16_17  and  O2_18
REMARK    3  A    between atoms: C16_17  and  C17_20
REMARK    4  A    between atoms: C17_20  and  O3_21
ROOT
HETATM    1  C1  UNL     1      25.294   3.747  19.937  1.00  0.00     0.010 C
HETATM    2  C2  UNL     1      23.871   3.245  20.101  1.00  0.00    -0.014 C
HETATM    3  C3  UNL     1      22.944   4.370  19.644  1.00  0.00     0.005 C
HETATM    4  C4  UNL     1      23.172   5.515  20.619  1.00  0.00     0.012 C
HETATM    5  C5  UNL     1      22.615   5.119  21.944  1.00  0.00     0.051 C
HETATM    6  C7  UNL     1      22.404   3.621  22.076  1.00  0.00     0.001 C
HETATM    7  C8  UNL     1      22.178   3.317  23.524  1.00  0.00     0.007 C
HETATM    8  C9  UNL     1      22.434   1.937  23.957  1.00  0.00     0.013 C
HETATM    9  C10 UNL     1      23.335   1.103  23.133  1.00  0.00    -0.007 C
HETATM   10  C11 UNL     1      24.736   1.115  23.764  1.00  0.00     0.019 C
HETATM   11  C12 UNL     1      23.447   1.439  21.695  1.00  0.00     0.001 C
HETATM   12  C13 UNL     1      22.363   0.875  20.819  1.00  0.00     0.006 C
HETATM   13  C14 UNL     1      21.173   0.355  21.569  1.00  0.00     0.004 C
HETATM   14  C15 UNL     1      21.538  -0.574  22.696  1.00  0.00     0.041 C
HETATM   15  C16 UNL     1      22.924  -0.377  23.207  1.00  0.00     0.086 C
HETATM   16  C18 UNL     1      23.625   2.913  21.538  1.00  0.00    -0.001 C
ENDROOT
BRANCH  15  17
HETATM   17  O2  UNL     1      23.808  -1.079  22.391  1.00  0.00    -0.387 OA
ATOM     18  H2  UNL     1      23.432  -1.079  21.519  1.00  0.00     0.210 HD
ENDBRANCH  15  17
BRANCH  15  19
HETATM   19  C17 UNL     1      23.054  -0.907  24.622  1.00  0.00     0.202 C
BRANCH  19  20
HETATM   20  O3  UNL     1      21.767  -1.395  24.948  1.00  0.00    -0.398 OA
ATOM     21  H3  UNL     1      21.866  -1.792  25.806  1.00  0.00     0.209 HD
ENDBRANCH  19  20
ENDBRANCH  15  19
BRANCH   5  22
HETATM   22  C6  UNL     1      21.404   5.893  22.225  1.00  0.00     0.236 C
HETATM   23  O1  UNL     1      21.390   6.762  23.079  1.00  0.00    -0.306 OA
ENDBRANCH   5  22
TORSDOF 4
ENDMDL