MODEL 4
REMARK VINA RESULT: -5.959576877      1.446      1.533
REMARK  5 active torsions:
REMARK  status: ('A' for Active; 'I' for Inactive)
REMARK    1  A    between atoms: C6_6  and  C7_7
REMARK    2  A    between atoms: C7_7  and  O1_8
REMARK    3  A    between atoms: N2_18  and  C15_19
REMARK    4  A    between atoms: C15_19  and  C16_20
REMARK    5  A    between atoms: C16_20  and  N3_21
ROOT
HETATM    1  C1  UNL     1      22.591   4.573  21.722  1.00  0.00     0.021 C
HETATM    2  C2  UNL     1      22.721   3.033  21.879  1.00  0.00    -0.010 C
HETATM    3  C3  UNL     1      21.531   2.460  21.203  1.00  0.00     0.020 C
HETATM    4  C4  UNL     1      20.985   1.250  21.861  1.00  0.00    -0.003 C
HETATM    5  C5  UNL     1      20.410   1.817  23.187  1.00  0.00     0.018 C
HETATM    6  C6  UNL     1      21.745   1.898  23.943  1.00  0.00    -0.001 C
HETATM    7  C8  UNL     1      22.740   2.807  23.366  1.00  0.00     0.027 C
HETATM    8  C9  UNL     1      22.092   0.425  23.861  1.00  0.00     0.112 C
HETATM    9  C10 UNL     1      23.378   0.088  24.348  1.00  0.00     0.065 C
HETATM   10  N1  UNL     1      24.416  -0.189  24.763  1.00  0.00    -0.197 NA
HETATM   11  C11 UNL     1      21.858   0.188  22.371  1.00  0.00    -0.019 C
HETATM   12  C12 UNL     1      21.020  -1.109  22.319  1.00  0.00     0.017 C
HETATM   13  C13 UNL     1      23.135  -0.092  21.733  1.00  0.00     0.056 C
HETATM   14  C14 UNL     1      23.316   0.425  20.330  1.00  0.00     0.069 C
HETATM   15  N2  UNL     1      24.013   1.635  20.249  1.00  0.00    -0.352 N
HETATM   16  C17 UNL     1      24.004   2.614  21.214  1.00  0.00     0.077 C
ENDROOT
BRANCH   6  17
HETATM   17  C7  UNL     1      21.467   2.215  25.401  1.00  0.00     0.175 C
BRANCH  17  18
HETATM   18  O1  UNL     1      22.125   3.362  25.809  1.00  0.00    -0.400 OA
ATOM     19  H1  UNL     1      22.234   3.387  26.753  1.00  0.00     0.209 HD
ENDBRANCH  17  18
ENDBRANCH   6  17
BRANCH  15  20
HETATM   20  C15 UNL     1      24.799   1.733  19.086  1.00  0.00     0.095 C
BRANCH  20  21
HETATM   21  C16 UNL     1      24.103   2.256  17.848  1.00  0.00     0.274 C
BRANCH  21  22
HETATM   22  N3  UNL     1      24.392   1.474  16.694  1.00  0.00    -0.075 N
ATOM     23  H33 UNL     1      25.205   0.877  16.848  1.00  0.00     0.274 HD
ATOM     24  H32 UNL     1      23.686   0.752  16.552  1.00  0.00     0.274 HD
ATOM     25  H31 UNL     1      24.508   2.046  15.857  1.00  0.00     0.274 HD
ENDBRANCH  21  22
ENDBRANCH  20  21
ENDBRANCH  15  20
TORSDOF 5
ENDMDL