MODEL 2
REMARK VINA RESULT: -8.287816965      0.566      1.251
REMARK  3 active torsions:
REMARK  status: ('A' for Active; 'I' for Inactive)
REMARK    1  A    between atoms: N1_2  and  C2_4
REMARK    2  A    between atoms: C2_4  and  C3_8
REMARK    3  A    between atoms: N3_18  and  C12_19
ROOT
HETATM    1  C3  UNL     1      24.025   3.023  20.428  1.00  0.00     0.055 C
HETATM    2  C4  UNL     1      25.024   3.789  19.584  1.00  0.00     0.014 C
HETATM    3  C5  UNL     1      24.249   4.997  19.024  1.00  0.00     0.039 C
HETATM    4  C6  UNL     1      23.400   5.538  20.097  1.00  0.00     0.252 C
HETATM    5  C7  UNL     1      22.192   4.634  20.254  1.00  0.00     0.156 C
HETATM    6  C8  UNL     1      22.611   3.215  19.927  1.00  0.00     0.046 C
HETATM    7  O1  UNL     1      21.793   4.701  21.573  1.00  0.00    -0.377 OA
HETATM    8  C9  UNL     1      22.174   5.857  22.210  1.00  0.00     0.146 C
HETATM    9  C10 UNL     1      21.058   6.152  23.232  1.00  0.00     0.041 C
HETATM   10  C11 UNL     1      22.227   7.077  21.328  1.00  0.00     0.305 C
HETATM   11  N3  UNL     1      23.004   6.871  20.099  1.00  0.00     0.102 N
ENDROOT
BRANCH   1  12
HETATM   12  C2  UNL     1      24.377   1.578  20.517  1.00  0.00     0.074 C
HETATM   13  N2  UNL     1      24.198   0.984  21.653  1.00  0.00    -0.389 N
ATOM     14  H22 UNL     1      24.439  -0.005  21.714  1.00  0.00     0.157 HD
ATOM     15  H21 UNL     1      23.829   1.495  22.454  1.00  0.00     0.157 HD
BRANCH  12  16
HETATM   16  N1  UNL     1      24.890   0.866  19.402  1.00  0.00    -0.384 N
HETATM   17  C1  UNL     1      23.991   0.055  18.626  1.00  0.00     0.147 C
ATOM     18  H1  UNL     1      25.878   0.929  19.156  1.00  0.00     0.160 HD
ENDBRANCH  12  16
ENDBRANCH   1  12
BRANCH  11  19
HETATM   19  C12 UNL     1      22.300   7.465  19.049  1.00  0.00     0.223 C
HETATM   20  C13 UNL     1      23.050   8.116  17.941  1.00  0.00     0.036 C
HETATM   21  C14 UNL     1      22.013   8.616  16.923  1.00  0.00     0.002 C
HETATM   22  C15 UNL     1      21.157   9.694  17.485  1.00  0.00     0.000 C
HETATM   23  C16 UNL     1      20.447   9.120  18.703  1.00  0.00     0.002 C
HETATM   24  C17 UNL     1      21.490   8.630  19.645  1.00  0.00     0.036 C
ENDBRANCH  11  19
TORSDOF 3
ENDMDL