MODEL 2
REMARK VINA RESULT: -6.635616907      1.356      1.996
REMARK  19 active torsions:
REMARK  status: ('A' for Active; 'I' for Inactive)
REMARK    1  A    between atoms: C2_2  and  N1_3
REMARK    2  A    between atoms: N1_3  and  C3_5
REMARK    3  A    between atoms: C3_5  and  C4_6
REMARK    4  A    between atoms: C3_5  and  C28_47
REMARK       I    between atoms: C4_6  and  N2_8
REMARK    5  A    between atoms: N2_8  and  C5_10
REMARK    6  A    between atoms: C5_10  and  C6_11
REMARK    7  A    between atoms: C5_10  and  C8_13
REMARK    8  A    between atoms: C8_13  and  O2_14
REMARK    9  A    between atoms: C8_13  and  N3_16
REMARK   10  A    between atoms: N3_16  and  C9_17
REMARK   11  A    between atoms: C9_17  and  C10_18
REMARK   12  A    between atoms: C10_18  and  C11_19
REMARK   13  A    between atoms: C17_25  and  O3_26
REMARK   14  A    between atoms: C17_25  and  N4_28
REMARK   15  A    between atoms: N4_28  and  C18_30
REMARK   16  A    between atoms: C18_30  and  C20_32
REMARK   17  A    between atoms: C20_32  and  O4_33
REMARK   18  A    between atoms: C20_32  and  C21_35
REMARK   19  A    between atoms: C23_40  and  C24_41
ROOT
HETATM    1  C9  UNL     1      36.562  24.827  21.455  1.00  0.00     0.160 C
HETATM    2  C17 UNL     1      36.412  23.491  21.825  1.00  0.00     0.178 C
ENDROOT
BRANCH   1   3
HETATM    3  N3  UNL     1      37.091  25.206  20.185  1.00  0.00    -0.379 NA
BRANCH   3   4
HETATM    4  C8  UNL     1      37.543  25.546  19.028  1.00  0.00     0.213 C
BRANCH   4   5
HETATM    5  C5  UNL     1      37.651  27.034  18.332  1.00  0.00     0.174 C
BRANCH   5   6
HETATM    6  N2  UNL     1      36.383  27.555  18.720  1.00  0.00    -0.343 N
HETATM    7  C4  UNL     1      35.514  27.839  17.178  1.00  0.00     0.264 C
HETATM    8  O1  UNL     1      36.542  27.653  16.694  1.00  0.00    -0.266 OA
ATOM      9  H2  UNL     1      36.044  27.727  19.666  1.00  0.00     0.163 HD
BRANCH   7  10
HETATM   10  C3  UNL     1      34.294  28.060  17.796  1.00  0.00     0.077 C
BRANCH  10  11
HETATM   11  N1  UNL     1      33.473  29.185  17.875  1.00  0.00    -0.389 N
ATOM     12  H1  UNL     1      32.574  29.185  17.392  1.00  0.00     0.159 HD
BRANCH  11  13
HETATM   13  C2  UNL     1      33.867  30.327  18.616  1.00  0.00     0.115 C
HETATM   14  C1  UNL     1      32.664  30.958  19.328  1.00  0.00     0.026 C
ENDBRANCH  11  13
ENDBRANCH  10  11
BRANCH  10  15
HETATM   15  C28 UNL     1      33.248  26.899  17.637  1.00  0.00     0.033 C
HETATM   16  C29 UNL     1      31.869  27.234  18.008  1.00  0.00     0.016 C
HETATM   17  C30 UNL     1      33.342  26.509  16.205  1.00  0.00     0.016 C
ENDBRANCH  10  15
ENDBRANCH   7  10
ENDBRANCH   5   6
BRANCH   5  18
HETATM   18  C6  UNL     1      38.794  27.721  18.957  1.00  0.00     0.030 C
HETATM   19  C7  UNL     1      38.392  28.651  20.081  1.00  0.00     0.007 C
ENDBRANCH   5  18
ENDBRANCH   4   5
BRANCH   4  20
HETATM   20  O2  UNL     1      38.052  24.696  18.146  1.00  0.00    -0.337 OA
ATOM     21  H2  UNL     1      38.425  25.230  17.455  1.00  0.00     0.220 HD
ENDBRANCH   4  20
ENDBRANCH   3   4
ENDBRANCH   1   3
BRANCH   1  22
HETATM   22  C10 UNL     1      36.256  25.972  22.294  1.00  0.00     0.052 C
BRANCH  22  23
HETATM   23  C11 UNL     1      35.487  27.170  22.014  1.00  0.00    -0.077 C
HETATM   24  C12 UNL     1      35.564  28.490  22.577  1.00  0.00     0.034 C
HETATM   25  C13 UNL     1      34.307  28.832  23.401  1.00  0.00     0.004 C
HETATM   26  C14 UNL     1      33.034  28.715  22.657  1.00  0.00     0.001 C
HETATM   27  C15 UNL     1      33.181  27.889  21.409  1.00  0.00     0.004 C
HETATM   28  C16 UNL     1      34.017  26.668  21.711  1.00  0.00     0.034 C
ENDBRANCH  22  23
ENDBRANCH   1  22
BRANCH   2  29
HETATM   29  O3  UNL     1      36.597  23.374  23.187  1.00  0.00    -0.344 OA
ATOM     30  H3  UNL     1      35.752  23.391  23.621  1.00  0.00     0.219 HD
ENDBRANCH   2  29
BRANCH   2  31
HETATM   31  N4  UNL     1      36.165  22.122  21.374  1.00  0.00    -0.361 N
ATOM     32  H4  UNL     1      36.687  21.294  21.658  1.00  0.00     0.162 HD
BRANCH  31  33
HETATM   33  C18 UNL     1      34.998  22.154  20.412  1.00  0.00     0.111 C
HETATM   34  C19 UNL     1      34.637  20.528  20.443  1.00  0.00     0.035 C
BRANCH  33  35
HETATM   35  C20 UNL     1      35.016  22.410  19.073  1.00  0.00     0.173 C
BRANCH  35  36
HETATM   36  O4  UNL     1      35.359  20.985  18.560  1.00  0.00    -0.391 OA
ATOM     37  H4  UNL     1      36.284  21.110  18.386  1.00  0.00     0.210 HD
ENDBRANCH  35  36
BRANCH  35  38
HETATM   38  C21 UNL     1      34.917  23.112  17.917  1.00  0.00     0.215 C
HETATM   39  N5  UNL     1      35.746  23.225  16.734  1.00  0.00    -0.343 N
HETATM   40  C22 UNL     1      35.232  23.181  15.441  1.00  0.00     0.248 C
ATOM     41  H5  UNL     1      36.752  23.341  16.854  1.00  0.00     0.163 HD
HETATM   42  O5  UNL     1      35.320  23.992  14.554  1.00  0.00    -0.271 OA
HETATM   43  C23 UNL     1      34.421  21.848  15.185  1.00  0.00     0.227 C
HETATM   44  O6  UNL     1      33.667  21.729  16.363  1.00  0.00    -0.304 OA
HETATM   45  C27 UNL     1      33.499  22.768  17.275  1.00  0.00     0.285 C
HETATM   46  O7  UNL     1      32.513  23.384  17.617  1.00  0.00    -0.263 OA
BRANCH  43  47
HETATM   47  C24 UNL     1      35.485  20.829  14.928  1.00  0.00     0.016 C
HETATM   48  C25 UNL     1      35.371  19.519  15.560  1.00  0.00     0.012 C
HETATM   49  C26 UNL     1      35.439  20.682  13.349  1.00  0.00     0.012 C
ENDBRANCH  43  47
ENDBRANCH  35  38
ENDBRANCH  33  35
ENDBRANCH  31  33
ENDBRANCH   2  31
TORSDOF 19
ENDMDL