MODEL 1
REMARK VINA RESULT: -7.319249090      0.000      0.000
REMARK  18 active torsions:
REMARK  status: ('A' for Active; 'I' for Inactive)
REMARK    1  A    between atoms: C2_2  and  C3_3
REMARK    2  A    between atoms: C3_3  and  C4_4
REMARK    3  A    between atoms: C4_4  and  C5_5
REMARK    4  A    between atoms: C5_5  and  C6_6
REMARK    5  A    between atoms: C6_6  and  C11_14
REMARK    6  A    between atoms: N1_7  and  C7_9
REMARK    7  A    between atoms: C7_9  and  C8_10
REMARK    8  A    between atoms: C7_9  and  C10_12
REMARK    9  A    between atoms: C11_14  and  C12_15
REMARK   10  A    between atoms: C11_14  and  N2_18
REMARK   11  A    between atoms: C12_15  and  C13_16
REMARK       I    between atoms: N2_18  and  C15_19
REMARK   12  A    between atoms: C15_19  and  O2_21
REMARK   13  A    between atoms: O2_21  and  C16_22
REMARK   14  A    between atoms: C18_25  and  O3_26
REMARK   15  A    between atoms: C22_31  and  O4_32
REMARK   16  A    between atoms: C25_36  and  C27_38
REMARK       I    between atoms: C27_38  and  N4_40
REMARK   17  A    between atoms: N4_40  and  C28_42
REMARK   18  A    between atoms: C28_42  and  C29_43
ROOT
HETATM    1  C16 UNL     1      34.853  23.879  18.213  1.00  0.00     0.411 C
HETATM    2  C17 UNL     1      33.555  22.910  18.090  1.00  0.00     0.130 C
HETATM    3  N3  UNL     1      33.634  21.594  18.487  1.00  0.00    -0.334 N
HETATM    4  C18 UNL     1      33.309  20.558  17.551  1.00  0.00     0.117 C
HETATM    5  C19 UNL     1      33.728  19.254  18.010  1.00  0.00     0.086 C
HETATM    6  C20 UNL     1      33.937  19.449  19.494  1.00  0.00     0.036 C
HETATM    7  C21 UNL     1      33.929  20.928  19.717  1.00  0.00     0.122 C
HETATM    8  C22 UNL     1      35.125  21.397  20.479  1.00  0.00     0.175 C
HETATM    9  C23 UNL     1      35.868  22.364  19.624  1.00  0.00     0.262 A
HETATM   10  C24 UNL     1      37.176  22.888  20.189  1.00  0.00     0.090 A
HETATM   11  C25 UNL     1      36.489  24.264  20.000  1.00  0.00     0.241 A
HETATM   12  C26 UNL     1      37.227  25.174  19.117  1.00  0.00     0.060 C
HETATM   13  N5  UNL     1      35.292  23.687  19.536  1.00  0.00     0.149 N
ENDROOT
BRANCH   1  14
HETATM   14  O2  UNL     1      34.132  25.045  17.981  1.00  0.00    -0.250 OA
BRANCH  14  15
HETATM   15  C15 UNL     1      34.704  26.212  17.356  1.00  0.00     0.442 C
HETATM   16  N2  UNL     1      34.279  27.333  18.243  1.00  0.00    -0.348 NA
HETATM   17  O1  UNL     1      35.277  26.227  16.413  1.00  0.00    -0.221 OA
BRANCH  16  18
HETATM   18  C11 UNL     1      33.911  28.322  19.014  1.00  0.00     0.116 C
BRANCH  18  19
HETATM   19  C6  UNL     1      34.299  29.790  18.854  1.00  0.00     0.043 C
HETATM   20  N1  UNL     1      35.577  29.973  18.447  1.00  0.00    -0.382 N
ATOM     21  H1  UNL     1      36.150  30.484  19.120  1.00  0.00     0.160 HD
BRANCH  19  22
HETATM   22  C5  UNL     1      33.046  30.438  18.325  1.00  0.00     0.060 C
BRANCH  22  23
HETATM   23  C4  UNL     1      32.358  31.442  19.177  1.00  0.00     0.010 C
BRANCH  23  24
HETATM   24  C3  UNL     1      31.059  31.975  18.744  1.00  0.00     0.026 C
BRANCH  24  25
HETATM   25  C2  UNL     1      29.971  30.968  19.005  1.00  0.00    -0.037 C
HETATM   26  C1  UNL     1      29.682  30.472  20.222  1.00  0.00     0.007 C
ENDBRANCH  24  25
ENDBRANCH  23  24
ENDBRANCH  22  23
ENDBRANCH  19  22
BRANCH  20  27
HETATM   27  C7  UNL     1      36.259  29.612  17.309  1.00  0.00     0.114 C
BRANCH  27  28
HETATM   28  C8  UNL     1      37.516  28.883  17.712  1.00  0.00    -0.012 C
HETATM   29  C9  UNL     1      37.840  28.907  19.006  1.00  0.00     0.009 C
ENDBRANCH  27  28
BRANCH  27  30
HETATM   30  C10 UNL     1      36.713  30.582  16.294  1.00  0.00     0.115 C
HETATM   31  S1  UNL     1      37.110  29.840  14.646  1.00  0.00    -0.095 SA
ENDBRANCH  27  30
ENDBRANCH  20  27
ENDBRANCH  18  19
BRANCH  18  32
HETATM   32  C12 UNL     1      32.495  28.167  19.575  1.00  0.00     0.101 C
BRANCH  32  33
HETATM   33  C13 UNL     1      32.648  27.838  21.065  1.00  0.00    -0.030 C
HETATM   34  C14 UNL     1      32.623  28.829  21.933  1.00  0.00     0.007 C
ENDBRANCH  32  33
ENDBRANCH  18  32
ENDBRANCH  16  18
ENDBRANCH  14  15
ENDBRANCH   1  14
BRANCH  11  35
HETATM   35  C27 UNL     1      36.300  24.853  21.348  1.00  0.00     0.257 C
HETATM   36  O5  UNL     1      36.637  24.141  22.346  1.00  0.00    -0.271 OA
HETATM   37  N4  UNL     1      35.773  26.171  21.591  1.00  0.00    -0.355 N
ATOM     38  H4  UNL     1      35.513  26.767  20.805  1.00  0.00     0.162 HD
BRANCH  37  39
HETATM   39  C28 UNL     1      35.614  26.644  22.922  1.00  0.00     0.149 C
BRANCH  39  40
HETATM   40  C29 UNL     1      36.139  27.990  23.153  1.00  0.00    -0.018 C
HETATM   41  C30 UNL     1      37.345  28.425  22.741  1.00  0.00     0.008 C
ENDBRANCH  39  40
ENDBRANCH  37  39
ENDBRANCH  11  35
BRANCH   4  42
HETATM   42  O3  UNL     1      32.682  20.772  16.408  1.00  0.00    -0.349 OA
ATOM     43  H3  UNL     1      32.016  20.194  16.055  1.00  0.00     0.219 HD
ENDBRANCH   4  42
BRANCH   8  44
HETATM   44  O4  UNL     1      34.799  21.952  21.695  1.00  0.00    -0.391 OA
ATOM     45  H4  UNL     1      34.938  22.892  21.721  1.00  0.00     0.210 HD
ENDBRANCH   8  44
TORSDOF 18
ENDMDL