MODEL 2
REMARK VINA RESULT: -5.725197335      2.322      3.663
REMARK  19 active torsions:
REMARK  status: ('A' for Active; 'I' for Inactive)
REMARK    1  A    between atoms: C2_2  and  C3_3
REMARK    2  A    between atoms: C3_3  and  N1_4
REMARK    3  A    between atoms: N1_4  and  C4_6
REMARK    4  A    between atoms: C5_9  and  N3_10
REMARK    5  A    between atoms: N3_10  and  C6_12
REMARK    6  A    between atoms: C6_12  and  C7_13
REMARK    7  A    between atoms: C7_13  and  C8_14
REMARK    8  A    between atoms: C8_14  and  N4_15
REMARK    9  A    between atoms: C15_25  and  N7_26
REMARK   10  A    between atoms: N7_26  and  C16_28
REMARK   11  A    between atoms: C16_28  and  C17_29
REMARK   12  A    between atoms: C20_34  and  N9_35
REMARK   13  A    between atoms: N9_35  and  C21_36
REMARK   14  A    between atoms: C21_36  and  C22_37
REMARK   15  A    between atoms: C22_37  and  C23_38
REMARK   16  A    between atoms: C23_38  and  C24_39
REMARK   17  A    between atoms: C24_39  and  N10_40
REMARK       I    between atoms: N10_40  and  C25_42
REMARK   18  A    between atoms: C25_42  and  C26_44
REMARK   19  A    between atoms: C26_44  and  C27_45
ROOT
HETATM    1  C4  UNL     1      31.601  29.513  20.535  1.00  0.00     0.684 A
HETATM    2  N2  UNL     1      32.444  29.295  21.555  1.00  0.00    -0.174 N
ATOM      3  H2  UNL     1      32.677  30.069  22.177  1.00  0.00     0.186 HD
HETATM    4  C5  UNL     1      32.993  28.085  21.783  1.00  0.00     0.147 A
HETATM    5  C14 UNL     1      32.705  27.006  20.965  1.00  0.00     0.125 A
HETATM    6  N6  UNL     1      33.252  25.792  21.186  1.00  0.00    -0.186 N
ATOM      7  H6  UNL     1      33.888  25.669  21.974  1.00  0.00     0.184 HD
HETATM    8  C15 UNL     1      32.977  24.743  20.394  1.00  0.00     0.681 A
HETATM    9  N8  UNL     1      32.144  24.942  19.377  1.00  0.00    -0.162 N
ATOM     10  H8  UNL     1      31.937  24.146  18.774  1.00  0.00     0.187 HD
HETATM   11  C20 UNL     1      31.539  26.151  19.077  1.00  0.00     0.222 A
HETATM   12  C30 UNL     1      31.844  27.230  19.924  1.00  0.00     0.139 A
HETATM   13  N11 UNL     1      31.314  28.461  19.730  1.00  0.00    -0.184 N
ATOM     14  H11 UNL     1      30.675  28.603  18.948  1.00  0.00     0.184 HD
ENDROOT
BRANCH  11  15
HETATM   15  N9  UNL     1      30.805  26.261  18.149  1.00  0.00    -0.401 NA
BRANCH  15  16
HETATM   16  C21 UNL     1      29.823  26.498  17.295  1.00  0.00     0.157 C
BRANCH  16  17
HETATM   17  C22 UNL     1      28.521  27.128  17.664  1.00  0.00     0.061 C
BRANCH  17  18
HETATM   18  C23 UNL     1      28.131  28.414  17.058  1.00  0.00     0.026 C
BRANCH  18  19
HETATM   19  C24 UNL     1      28.440  29.649  17.872  1.00  0.00     0.123 C
BRANCH  19  20
HETATM   20  N10 UNL     1      27.229  30.158  18.477  1.00  0.00    -0.361 N
HETATM   21  C25 UNL     1      27.204  30.693  19.783  1.00  0.00     0.217 C
HETATM   22  O1  UNL     1      28.285  30.724  20.447  1.00  0.00    -0.274 OA
ATOM     23  H10 UNL     1      26.362  30.130  17.941  1.00  0.00     0.162 HD
BRANCH  21  24
HETATM   24  C26 UNL     1      25.915  31.206  20.353  1.00  0.00     0.106 C
BRANCH  24  25
HETATM   25  C27 UNL     1      25.527  30.333  21.520  1.00  0.00    -0.014 C
HETATM   26  C28 UNL     1      24.054  29.932  21.370  1.00  0.00     0.010 C
HETATM   27  C29 UNL     1      25.701  31.085  22.823  1.00  0.00     0.010 C
ENDBRANCH  24  25
ENDBRANCH  21  24
ENDBRANCH  19  20
ENDBRANCH  18  19
ENDBRANCH  17  18
ENDBRANCH  16  17
ENDBRANCH  15  16
ENDBRANCH  11  15
BRANCH   8  28
HETATM   28  N7  UNL     1      33.487  23.555  20.603  1.00  0.00    -0.226 N
ATOM     29  H7  UNL     1      33.196  23.056  21.444  1.00  0.00     0.177 HD
BRANCH  28  30
HETATM   30  C16 UNL     1      34.426  22.903  19.733  1.00  0.00     0.142 C
BRANCH  30  31
HETATM   31  C17 UNL     1      35.409  22.045  20.499  1.00  0.00    -0.004 C
HETATM   32  C18 UNL     1      36.281  22.892  21.409  1.00  0.00     0.011 C
HETATM   33  C19 UNL     1      34.710  21.055  21.393  1.00  0.00     0.011 C
ENDBRANCH  30  31
ENDBRANCH  28  30
ENDBRANCH   8  28
BRANCH   4  34
HETATM   34  N3  UNL     1      33.811  27.870  22.759  1.00  0.00    -0.374 N
ATOM     35  H3  UNL     1      33.851  26.921  23.131  1.00  0.00     0.161 HD
BRANCH  34  36
HETATM   36  C6  UNL     1      34.666  28.843  23.366  1.00  0.00     0.126 C
BRANCH  36  37
HETATM   37  C7  UNL     1      36.060  28.854  22.796  1.00  0.00     0.065 C
BRANCH  37  38
HETATM   38  C8  UNL     1      36.482  27.465  22.361  1.00  0.00     0.069 C
BRANCH  38  39
HETATM   39  N4  UNL     1      37.037  27.418  21.067  1.00  0.00    -0.351 N
HETATM   40  C9  UNL     1      37.924  28.434  20.763  1.00  0.00     0.087 C
HETATM   41  C10 UNL     1      38.657  28.272  19.452  1.00  0.00     0.161 C
HETATM   42  N5  UNL     1      37.890  27.664  18.432  1.00  0.00    -0.408 N
HETATM   43  C11 UNL     1      37.468  28.484  17.351  1.00  0.00     0.143 C
HETATM   44  C12 UNL     1      37.084  26.553  18.765  1.00  0.00     0.161 C
HETATM   45  C13 UNL     1      36.613  26.447  20.174  1.00  0.00     0.087 C
ENDBRANCH  38  39
ENDBRANCH  37  38
ENDBRANCH  36  37
ENDBRANCH  34  36
ENDBRANCH   4  34
BRANCH   1  46
HETATM   46  N1  UNL     1      31.085  30.697  20.299  1.00  0.00    -0.205 N
ATOM     47  H1  UNL     1      30.144  30.862  20.656  1.00  0.00     0.183 HD
BRANCH  46  48
HETATM   48  C3  UNL     1      31.686  31.762  19.610  1.00  0.00     0.078 C
BRANCH  48  49
HETATM   49  C2  UNL     1      31.135  31.993  18.203  1.00  0.00     0.040 C
HETATM   50  C1  UNL     1      32.133  31.338  17.251  1.00  0.00     0.010 C
ENDBRANCH  48  49
ENDBRANCH  46  48
ENDBRANCH   1  46
TORSDOF 19
ENDMDL