MODEL 2
REMARK VINA RESULT: -6.379476251      1.532      3.201
REMARK  16 active torsions:
REMARK  status: ('A' for Active; 'I' for Inactive)
REMARK    1  A    between atoms: C2_2  and  C3_3
REMARK    2  A    between atoms: C3_3  and  C4_5
REMARK    3  A    between atoms: C4_5  and  N1_6
REMARK    4  A    between atoms: C4_5  and  C14_19
REMARK    5  A    between atoms: N1_6  and  C5_8
REMARK    6  A    between atoms: C5_8  and  C6_9
REMARK    7  A    between atoms: C5_8  and  C11_16
REMARK    8  A    between atoms: C6_9  and  C7_10
REMARK       I    between atoms: C7_10  and  N2_12
REMARK       I    between atoms: C14_19  and  N3_21
REMARK    9  A    between atoms: N3_21  and  C15_23
REMARK   10  A    between atoms: C15_23  and  C16_24
REMARK   11  A    between atoms: C15_23  and  C20_28
REMARK   12  A    between atoms: C16_24  and  C17_25
REMARK   13  A    between atoms: C20_28  and  N4_30
REMARK       I    between atoms: N4_30  and  C22_32
REMARK   14  A    between atoms: C22_32  and  C23_34
REMARK   15  A    between atoms: C26_40  and  C27_41
REMARK       I    between atoms: C27_41  and  N6_43
REMARK   16  A    between atoms: N6_43  and  C28_45
ROOT
HETATM    1  C15 UNL     1      36.664  27.436  21.287  1.00  0.00     0.107 C
ENDROOT
BRANCH   1   2
HETATM    2  N3  UNL     1      35.936  26.429  20.510  1.00  0.00    -0.349 N
HETATM    3  C14 UNL     1      36.065  25.039  20.821  1.00  0.00     0.272 C
HETATM    4  O3  UNL     1      36.861  24.862  21.827  1.00  0.00    -0.266 OA
ATOM      5  H3  UNL     1      35.332  26.721  19.741  1.00  0.00     0.163 HD
BRANCH   3   6
HETATM    6  C4  UNL     1      35.431  23.907  20.166  1.00  0.00     0.143 C
BRANCH   6   7
HETATM    7  C3  UNL     1      34.211  23.302  20.668  1.00  0.00     0.180 C
HETATM    8  O1  UNL     1      33.320  24.116  21.038  1.00  0.00    -0.291 OA
BRANCH   7   9
HETATM    9  C2  UNL     1      33.830  21.894  20.821  1.00  0.00     0.081 C
HETATM   10  C1  UNL     1      34.954  21.094  21.498  1.00  0.00     0.013 C
ENDBRANCH   7   9
ENDBRANCH   6   7
BRANCH   6  11
HETATM   11  N1  UNL     1      35.640  23.854  18.779  1.00  0.00    -0.377 N
ATOM     12  H1  UNL     1      36.564  23.574  18.451  1.00  0.00     0.160 HD
BRANCH  11  13
HETATM   13  C5  UNL     1      34.669  24.157  17.809  1.00  0.00     0.094 C
BRANCH  13  14
HETATM   14  C6  UNL     1      34.870  22.986  16.784  1.00  0.00     0.128 C
BRANCH  14  15
HETATM   15  C7  UNL     1      35.070  21.685  17.329  1.00  0.00     0.221 C
HETATM   16  O2  UNL     1      36.249  21.348  17.686  1.00  0.00    -0.273 OA
HETATM   17  N2  UNL     1      34.043  20.731  17.506  1.00  0.00    -0.352 N
HETATM   18  C8  UNL     1      34.059  19.351  18.033  1.00  0.00     0.127 C
HETATM   19  C10 UNL     1      32.596  20.600  17.311  1.00  0.00     0.127 C
HETATM   20  C9  UNL     1      32.570  19.481  18.338  1.00  0.00     0.040 C
ENDBRANCH  14  15
ENDBRANCH  13  14
BRANCH  13  21
HETATM   21  C11 UNL     1      34.793  25.465  17.129  1.00  0.00     0.001 C
HETATM   22  C12 UNL     1      34.528  25.519  15.676  1.00  0.00     0.011 C
HETATM   23  C13 UNL     1      34.087  26.629  17.810  1.00  0.00     0.011 C
ENDBRANCH  13  21
ENDBRANCH  11  13
ENDBRANCH   6  11
ENDBRANCH   3   6
ENDBRANCH   1   2
BRANCH   1  24
HETATM   24  C16 UNL     1      37.666  28.197  20.487  1.00  0.00     0.031 C
BRANCH  24  25
HETATM   25  C17 UNL     1      37.590  27.929  18.986  1.00  0.00    -0.021 C
HETATM   26  C18 UNL     1      37.350  29.297  18.328  1.00  0.00     0.009 C
HETATM   27  C19 UNL     1      38.956  27.483  18.453  1.00  0.00     0.009 C
ENDBRANCH  24  25
ENDBRANCH   1  24
BRANCH   1  28
HETATM   28  C20 UNL     1      35.675  28.410  21.872  1.00  0.00     0.103 C
HETATM   29  C21 UNL     1      35.304  28.121  23.300  1.00  0.00     0.034 C
BRANCH  28  30
HETATM   30  N4  UNL     1      34.521  28.498  21.007  1.00  0.00    -0.354 N
HETATM   31  C22 UNL     1      34.206  29.710  20.309  1.00  0.00     0.224 C
HETATM   32  O4  UNL     1      34.966  30.692  20.468  1.00  0.00    -0.273 OA
ATOM     33  H4  UNL     1      33.919  27.683  20.891  1.00  0.00     0.162 HD
BRANCH  31  34
HETATM   34  C23 UNL     1      33.026  29.831  19.419  1.00  0.00     0.118 C
HETATM   35  C24 UNL     1      32.496  31.231  19.467  1.00  0.00     0.247 C
HETATM   36  N5  UNL     1      31.150  31.148  19.912  1.00  0.00    -0.073 N
HETATM   37  C25 UNL     1      31.066  29.938  20.729  1.00  0.00     0.247 C
ATOM     38  H52 UNL     1      30.829  31.987  20.395  1.00  0.00     0.277 HD
ATOM     39  H51 UNL     1      30.470  31.173  19.152  1.00  0.00     0.277 HD
HETATM   40  C26 UNL     1      31.942  28.956  19.964  1.00  0.00     0.118 C
BRANCH  40  41
HETATM   41  C27 UNL     1      31.129  28.315  18.914  1.00  0.00     0.225 C
HETATM   42  O5  UNL     1      31.039  28.918  17.790  1.00  0.00    -0.273 OA
HETATM   43  N6  UNL     1      30.459  27.086  19.092  1.00  0.00    -0.353 N
ATOM     44  H6  UNL     1      30.540  26.626  19.999  1.00  0.00     0.163 HD
BRANCH  43  45
HETATM   45  C28 UNL     1      29.677  26.447  18.085  1.00  0.00     0.022 C
HETATM   46  C29 UNL     1      30.504  26.123  16.842  1.00  0.00     0.037 C
HETATM   47  C30 UNL     1      28.496  27.263  17.620  1.00  0.00     0.037 C
HETATM   48  C31 UNL     1      29.101  25.131  18.623  1.00  0.00     0.037 C
ENDBRANCH  43  45
ENDBRANCH  40  41
ENDBRANCH  31  34
ENDBRANCH  28  30
ENDBRANCH   1  28
TORSDOF 16
ENDMDL