MODEL 4
REMARK VINA RESULT: -6.897284438      2.083      2.947
REMARK  18 active torsions:
REMARK  status: ('A' for Active; 'I' for Inactive)
REMARK    1  A    between atoms: N1_2  and  C2_5
REMARK    2  A    between atoms: C2_5  and  C3_6
REMARK    3  A    between atoms: C2_5  and  C11_15
REMARK    4  A    between atoms: C3_6  and  S1_7
REMARK    5  A    between atoms: S1_7  and  C4_8
REMARK    6  A    between atoms: C4_8  and  C5_9
REMARK       I    between atoms: C11_15  and  N2_17
REMARK    7  A    between atoms: N2_17  and  C12_18
REMARK    8  A    between atoms: N3_21  and  C15_22
REMARK    9  A    between atoms: C15_22  and  C17_24
REMARK       I    between atoms: C17_24  and  N4_26
REMARK   10  A    between atoms: N4_26  and  C18_28
REMARK   11  A    between atoms: C18_28  and  C19_29
REMARK   12  A    between atoms: C18_28  and  C26_45
REMARK       I    between atoms: C19_29  and  N5_31
REMARK   13  A    between atoms: N5_31  and  C20_33
REMARK   14  A    between atoms: C20_33  and  O4_34
REMARK   15  A    between atoms: C20_33  and  C21_36
REMARK   16  A    between atoms: C21_36  and  N6_37
REMARK   17  A    between atoms: C21_36  and  C22_41
REMARK   18  A    between atoms: C22_41  and  C23_42
ROOT
HETATM    1  C15 UNL     1      37.259  28.802  19.403  1.00  0.00     0.175 C
HETATM    2  C16 UNL     1      38.708  28.788  19.084  1.00  0.00     0.042 C
ENDROOT
BRANCH   1   3
HETATM    3  N3  UNL     1      36.399  28.508  18.279  1.00  0.00    -0.336 N
HETATM    4  C14 UNL     1      36.084  27.095  17.949  1.00  0.00     0.130 C
HETATM    5  C13 UNL     1      34.835  27.212  17.149  1.00  0.00     0.069 C
HETATM    6  C12 UNL     1      34.953  28.483  16.378  1.00  0.00     0.260 C
HETATM    7  C29 UNL     1      35.791  29.346  17.333  1.00  0.00     0.256 C
HETATM    8  O5  UNL     1      35.868  30.598  17.218  1.00  0.00    -0.270 OA
BRANCH   6   9
HETATM    9  N2  UNL     1      33.784  28.967  15.935  1.00  0.00    -0.398 NA
HETATM   10  C11 UNL     1      32.573  29.455  15.479  1.00  0.00     0.319 C
HETATM   11  O1  UNL     1      31.468  28.861  15.414  1.00  0.00    -0.255 OA
BRANCH  10  12
HETATM   12  C2  UNL     1      32.508  30.887  14.988  1.00  0.00     0.300 C
BRANCH  12  13
HETATM   13  N1  UNL     1      33.663  31.583  15.413  1.00  0.00    -0.064 N
HETATM   14  C1  UNL     1      34.447  32.172  14.340  1.00  0.00     0.268 C
ATOM     15  H12 UNL     1      34.249  30.978  15.988  1.00  0.00     0.277 HD
ATOM     16  H11 UNL     1      33.414  32.293  16.101  1.00  0.00     0.277 HD
ENDBRANCH  12  13
BRANCH  12  17
HETATM   17  C3  UNL     1      31.196  31.497  15.185  1.00  0.00     0.118 C
BRANCH  17  18
HETATM   18  S1  UNL     1      30.867  32.251  16.777  1.00  0.00    -0.166 SA
BRANCH  18  19
HETATM   19  C4  UNL     1      30.048  31.035  17.855  1.00  0.00     0.078 C
BRANCH  19  20
HETATM   20  C5  UNL     1      30.529  31.164  19.270  1.00  0.00    -0.005 C
HETATM   21  C6  UNL     1      31.925  31.650  19.408  1.00  0.00     0.005 C
HETATM   22  C7  UNL     1      32.992  30.635  19.228  1.00  0.00     0.000 C
HETATM   23  C8  UNL     1      32.654  29.224  19.446  1.00  0.00     0.000 C
HETATM   24  C9  UNL     1      31.241  28.854  19.706  1.00  0.00     0.000 C
HETATM   25  C10 UNL     1      30.338  29.960  20.095  1.00  0.00     0.005 C
ENDBRANCH  19  20
ENDBRANCH  18  19
ENDBRANCH  17  18
ENDBRANCH  12  17
ENDBRANCH  10  12
ENDBRANCH   6   9
ENDBRANCH   1   3
BRANCH   1  26
HETATM   26  C17 UNL     1      36.925  27.976  20.565  1.00  0.00     0.241 C
HETATM   27  O2  UNL     1      37.909  27.468  21.188  1.00  0.00    -0.271 OA
HETATM   28  N4  UNL     1      35.640  27.704  21.042  1.00  0.00    -0.346 N
ATOM     29  H4  UNL     1      34.824  28.077  20.558  1.00  0.00     0.163 HD
BRANCH  28  30
HETATM   30  C18 UNL     1      35.473  26.872  22.254  1.00  0.00     0.181 C
BRANCH  30  31
HETATM   31  C19 UNL     1      35.370  25.435  21.917  1.00  0.00     0.246 C
HETATM   32  O3  UNL     1      34.263  24.941  21.614  1.00  0.00    -0.271 OA
HETATM   33  N5  UNL     1      36.533  24.651  21.938  1.00  0.00    -0.308 N
ATOM     34  H5  UNL     1      37.366  25.117  22.298  1.00  0.00     0.170 HD
BRANCH  33  35
HETATM   35  C20 UNL     1      36.715  23.333  21.542  1.00  0.00     0.149 C
BRANCH  35  36
HETATM   36  O4  UNL     1      36.379  22.417  22.404  1.00  0.00    -0.348 OA
ATOM     37  H4  UNL     1      36.290  21.533  22.069  1.00  0.00     0.219 HD
ENDBRANCH  35  36
BRANCH  35  38
HETATM   38  C21 UNL     1      37.244  22.823  20.275  1.00  0.00     0.257 C
BRANCH  38  39
HETATM   39  N6  UNL     1      38.712  22.726  20.466  1.00  0.00    -0.068 N
ATOM     40  H63 UNL     1      39.121  23.545  20.915  1.00  0.00     0.275 HD
ATOM     41  H62 UNL     1      38.989  22.048  21.176  1.00  0.00     0.275 HD
ATOM     42  H61 UNL     1      39.097  22.531  19.542  1.00  0.00     0.275 HD
ENDBRANCH  38  39
BRANCH  38  43
HETATM   43  C22 UNL     1      37.117  23.908  19.210  1.00  0.00     0.045 C
BRANCH  43  44
HETATM   44  C23 UNL     1      36.155  23.647  18.122  1.00  0.00    -0.020 C
HETATM   45  C24 UNL     1      34.774  23.265  18.547  1.00  0.00     0.009 C
HETATM   46  C25 UNL     1      36.749  22.592  17.187  1.00  0.00     0.009 C
ENDBRANCH  43  44
ENDBRANCH  38  43
ENDBRANCH  35  38
ENDBRANCH  33  35
ENDBRANCH  30  31
BRANCH  30  47
HETATM   47  C26 UNL     1      34.440  27.424  23.127  1.00  0.00     0.018 A
HETATM   48  C27 UNL     1      33.157  28.019  22.658  1.00  0.00     0.007 A
HETATM   49  C28 UNL     1      34.237  28.898  23.196  1.00  0.00     0.007 A
ENDBRANCH  30  47
ENDBRANCH  28  30
ENDBRANCH   1  26
TORSDOF 18
ENDMDL