MODEL 1
REMARK VINA RESULT: -6.453033915      0.000      0.000
REMARK  20 active torsions:
REMARK  status: ('A' for Active; 'I' for Inactive)
REMARK    1  A    between atoms: C2_2  and  C3_3
REMARK    2  A    between atoms: C3_3  and  C5_5
REMARK    3  A    between atoms: C6_6  and  N1_7
REMARK    4  A    between atoms: C6_6  and  C24_37
REMARK    5  A    between atoms: N1_7  and  C7_9
REMARK    6  A    between atoms: C7_9  and  O1_10
REMARK    7  A    between atoms: C7_9  and  C8_12
REMARK       I    between atoms: N2_16  and  C12_17
REMARK    8  A    between atoms: C12_17  and  C13_19
REMARK    9  A    between atoms: C13_19  and  N3_20
REMARK   10  A    between atoms: C13_19  and  C21_34
REMARK   11  A    between atoms: N3_20  and  C14_22
REMARK   12  A    between atoms: C14_22  and  O3_23
REMARK   13  A    between atoms: C14_22  and  C15_25
REMARK   14  A    between atoms: C15_25  and  N5_28
REMARK   15  A    between atoms: N5_28  and  C17_30
REMARK       I    between atoms: C24_37  and  N6_39
REMARK   16  A    between atoms: N6_39  and  C25_41
REMARK   17  A    between atoms: C25_41  and  C26_42
REMARK   18  A    between atoms: C25_41  and  C28_47
REMARK   19  A    between atoms: C26_42  and  C27_44
REMARK   20  A    between atoms: C27_44  and  O6_45
ROOT
HETATM    1  C15 UNL     1      36.663  28.028  19.670  1.00  0.00     0.261 C
HETATM    2  C16 UNL     1      36.513  26.807  18.797  1.00  0.00     0.092 C
HETATM    3  N4  UNL     1      36.398  25.878  18.124  1.00  0.00    -0.195 NA
ENDROOT
BRANCH   1   4
HETATM    4  C14 UNL     1      36.481  29.231  18.868  1.00  0.00     0.149 C
BRANCH   4   5
HETATM    5  N3  UNL     1      35.910  29.378  17.590  1.00  0.00    -0.358 N
ATOM      6  H3  UNL     1      36.454  29.225  16.740  1.00  0.00     0.162 HD
BRANCH   5   7
HETATM    7  C13 UNL     1      34.525  29.754  17.538  1.00  0.00     0.179 C
BRANCH   7   8
HETATM    8  C12 UNL     1      33.479  28.778  17.667  1.00  0.00     0.243 C
HETATM    9  N2  UNL     1      32.511  28.896  18.767  1.00  0.00    -0.338 N
HETATM   10  C8  UNL     1      31.244  28.298  18.848  1.00  0.00     0.162 C
HETATM   11  C11 UNL     1      32.836  29.624  19.983  1.00  0.00     0.127 C
HETATM   12  C9  UNL     1      30.494  29.332  19.735  1.00  0.00     0.035 C
HETATM   13  C10 UNL     1      31.533  29.773  20.736  1.00  0.00     0.022 C
HETATM   14  O2  UNL     1      33.285  27.811  16.903  1.00  0.00    -0.271 OA
BRANCH  10  15
HETATM   15  C7  UNL     1      30.955  26.964  19.232  1.00  0.00     0.139 C
BRANCH  15  16
HETATM   16  N1  UNL     1      31.618  25.876  19.789  1.00  0.00    -0.335 N
ATOM     17  H1  UNL     1      31.339  25.506  20.698  1.00  0.00     0.168 HD
BRANCH  16  18
HETATM   18  C6  UNL     1      32.748  25.261  19.029  1.00  0.00     0.099 C
HETATM   19  C5  UNL     1      32.482  24.882  17.677  1.00  0.00     0.013 C
BRANCH  19  20
HETATM   20  C3  UNL     1      31.421  23.910  17.327  1.00  0.00     0.006 C
HETATM   21  C4  UNL     1      30.537  24.467  16.241  1.00  0.00     0.014 C
BRANCH  20  22
HETATM   22  C2  UNL     1      31.863  22.535  16.908  1.00  0.00     0.003 C
HETATM   23  C1  UNL     1      33.196  22.674  16.183  1.00  0.00     0.006 C
ENDBRANCH  20  22
ENDBRANCH  19  20
BRANCH  18  24
HETATM   24  C24 UNL     1      33.539  24.463  19.970  1.00  0.00     0.268 C
HETATM   25  O4  UNL     1      33.216  24.557  21.211  1.00  0.00    -0.266 OA
HETATM   26  N6  UNL     1      34.621  23.626  19.696  1.00  0.00    -0.344 N
ATOM     27  H6  UNL     1      34.867  23.484  18.715  1.00  0.00     0.163 HD
BRANCH  26  28
HETATM   28  C25 UNL     1      35.420  22.944  20.683  1.00  0.00     0.160 C
BRANCH  28  29
HETATM   29  C26 UNL     1      36.779  23.540  20.771  1.00  0.00     0.172 C
HETATM   30  O5  UNL     1      37.003  24.445  21.562  1.00  0.00    -0.293 OA
BRANCH  29  31
HETATM   31  C27 UNL     1      37.902  23.070  19.930  1.00  0.00     0.244 C
BRANCH  31  32
HETATM   32  O6  UNL     1      39.012  22.703  20.724  1.00  0.00    -0.394 OA
ATOM     33  H6  UNL     1      39.629  22.179  20.227  1.00  0.00     0.209 HD
ENDBRANCH  31  32
ENDBRANCH  29  31
ENDBRANCH  28  29
BRANCH  28  34
HETATM   34  C28 UNL     1      35.353  21.487  20.569  1.00  0.00     0.008 C
HETATM   35  C29 UNL     1      34.519  20.827  21.667  1.00  0.00     0.012 C
HETATM   36  C30 UNL     1      34.503  21.188  19.303  1.00  0.00     0.012 C
ENDBRANCH  28  34
ENDBRANCH  26  28
ENDBRANCH  18  24
ENDBRANCH  16  18
ENDBRANCH  15  16
BRANCH  15  37
HETATM   37  O1  UNL     1      29.655  26.676  18.958  1.00  0.00    -0.348 OA
ATOM     38  H1  UNL     1      29.111  27.454  18.972  1.00  0.00     0.219 HD
ENDBRANCH  15  37
ENDBRANCH  10  15
ENDBRANCH   7   8
BRANCH   7  39
HETATM   39  C21 UNL     1      34.405  30.319  16.052  1.00  0.00     0.009 C
HETATM   40  C22 UNL     1      35.608  31.146  15.724  1.00  0.00     0.012 C
HETATM   41  C23 UNL     1      33.180  31.184  15.993  1.00  0.00     0.012 C
ENDBRANCH   7  39
ENDBRANCH   5   7
ENDBRANCH   4   5
BRANCH   4  42
HETATM   42  O3  UNL     1      36.922  30.336  19.437  1.00  0.00    -0.347 OA
ATOM     43  H3  UNL     1      36.302  31.053  19.494  1.00  0.00     0.219 HD
ENDBRANCH   4  42
ENDBRANCH   1   4
BRANCH   1  44
HETATM   44  N5  UNL     1      35.619  27.954  20.700  1.00  0.00    -0.392 N
ATOM     45  H5  UNL     1      34.642  27.803  20.450  1.00  0.00     0.155 HD
BRANCH  44  46
HETATM   46  C17 UNL     1      36.010  28.100  22.044  1.00  0.00     0.016 C
HETATM   47  C18 UNL     1      35.338  29.390  22.555  1.00  0.00     0.037 C
HETATM   48  C19 UNL     1      37.480  28.266  22.250  1.00  0.00     0.037 C
HETATM   49  C20 UNL     1      35.469  26.992  22.940  1.00  0.00     0.037 C
ENDBRANCH  44  46
ENDBRANCH   1  44
TORSDOF 20
ENDMDL