MODEL 2
REMARK VINA RESULT: -5.884650084      2.979      7.754
REMARK  21 active torsions:
REMARK  status: ('A' for Active; 'I' for Inactive)
REMARK    1  A    between atoms: C2_2  and  C3_3
REMARK    2  A    between atoms: N1_7  and  C7_8
REMARK    3  A    between atoms: C7_8  and  O1_9
REMARK    4  A    between atoms: C7_8  and  C8_11
REMARK    5  A    between atoms: C8_11  and  N2_12
REMARK    6  A    between atoms: C8_11  and  C27_48
REMARK       I    between atoms: N2_12  and  C9_14
REMARK    7  A    between atoms: C9_14  and  C10_16
REMARK    8  A    between atoms: C10_16  and  N3_18
REMARK    9  A    between atoms: N3_18  and  C12_20
REMARK   10  A    between atoms: C12_20  and  O3_21
REMARK   11  A    between atoms: C12_20  and  C13_23
REMARK   12  A    between atoms: C13_23  and  C14_24
REMARK   13  A    between atoms: C13_23  and  N4_28
REMARK   14  A    between atoms: C14_24  and  C15_25
REMARK       I    between atoms: N4_28  and  C18_30
REMARK   15  A    between atoms: C18_30  and  C19_32
REMARK   16  A    between atoms: C19_32  and  C20_33
REMARK   17  A    between atoms: C19_32  and  N5_37
REMARK   18  A    between atoms: C20_33  and  O5_34
REMARK   19  A    between atoms: O5_34  and  C21_35
REMARK       I    between atoms: N5_37  and  C23_39
REMARK   20  A    between atoms: C23_39  and  C24_41
REMARK   21  A    between atoms: C24_41  and  N6_44
ROOT
HETATM    1  C12 UNL     1      32.766  29.261  20.614  1.00  0.00     0.163 C
ENDROOT
BRANCH   1   2
HETATM    2  N3  UNL     1      33.632  29.108  21.715  1.00  0.00    -0.356 N
ATOM      3  H3  UNL     1      33.563  29.771  22.487  1.00  0.00     0.162 HD
BRANCH   2   4
HETATM    4  C10 UNL     1      34.628  28.034  21.795  1.00  0.00     0.172 C
HETATM    5  C11 UNL     1      35.134  28.004  23.199  1.00  0.00     0.042 C
BRANCH   4   6
HETATM    6  C9  UNL     1      33.967  26.748  21.502  1.00  0.00     0.244 C
HETATM    7  N2  UNL     1      34.025  26.049  20.301  1.00  0.00    -0.325 N
ATOM      8  H2  UNL     1      34.586  26.472  19.561  1.00  0.00     0.169 HD
HETATM    9  O2  UNL     1      33.289  26.241  22.431  1.00  0.00    -0.271 OA
BRANCH   7  10
HETATM   10  C8  UNL     1      33.379  24.785  19.975  1.00  0.00     0.070 C
BRANCH  10  11
HETATM   11  C7  UNL     1      34.181  23.699  20.510  1.00  0.00     0.162 C
BRANCH  11  12
HETATM   12  N1  UNL     1      35.568  23.422  20.568  1.00  0.00    -0.352 N
HETATM   13  C3  UNL     1      36.209  22.502  19.630  1.00  0.00     0.108 C
HETATM   14  C4  UNL     1      37.624  23.013  19.520  1.00  0.00     0.031 C
HETATM   15  C5  UNL     1      37.891  23.192  21.023  1.00  0.00     0.022 C
HETATM   16  C6  UNL     1      36.582  23.831  21.492  1.00  0.00     0.126 C
BRANCH  13  17
HETATM   17  C2  UNL     1      35.557  22.464  18.298  1.00  0.00    -0.012 C
HETATM   18  C1  UNL     1      36.221  22.790  17.187  1.00  0.00     0.009 C
ENDBRANCH  13  17
ENDBRANCH  11  12
BRANCH  11  19
HETATM   19  O1  UNL     1      33.459  22.740  21.078  1.00  0.00    -0.345 OA
ATOM     20  H1  UNL     1      32.828  22.366  20.474  1.00  0.00     0.219 HD
ENDBRANCH  11  19
ENDBRANCH  10  11
BRANCH  10  21
HETATM   21  C27 UNL     1      32.549  24.734  18.794  1.00  0.00    -0.004 C
HETATM   22  C28 UNL     1      31.108  25.183  19.080  1.00  0.00     0.021 C
HETATM   23  C29 UNL     1      33.041  25.865  17.818  1.00  0.00     0.021 C
HETATM   24  C30 UNL     1      32.508  23.521  17.948  1.00  0.00     0.021 C
ENDBRANCH  10  21
ENDBRANCH   7  10
ENDBRANCH   4   6
ENDBRANCH   2   4
ENDBRANCH   1   2
BRANCH   1  25
HETATM   25  O3  UNL     1      31.838  28.326  20.582  1.00  0.00    -0.345 OA
ATOM     26  H3  UNL     1      31.054  28.585  21.050  1.00  0.00     0.219 HD
ENDBRANCH   1  25
BRANCH   1  27
HETATM   27  C13 UNL     1      32.726  30.220  19.546  1.00  0.00     0.082 C
BRANCH  27  28
HETATM   28  C14 UNL     1      32.116  31.526  19.568  1.00  0.00     0.011 C
BRANCH  28  29
HETATM   29  C15 UNL     1      30.837  31.828  18.887  1.00  0.00     0.002 C
HETATM   30  C16 UNL     1      29.655  30.990  19.028  1.00  0.00     0.013 C
HETATM   31  C17 UNL     1      31.063  32.079  17.379  1.00  0.00     0.013 C
ENDBRANCH  28  29
ENDBRANCH  27  28
BRANCH  27  32
HETATM   32  N4  UNL     1      34.007  30.135  18.834  1.00  0.00    -0.322 N
HETATM   33  C18 UNL     1      34.233  29.726  17.520  1.00  0.00     0.247 C
HETATM   34  O4  UNL     1      33.294  29.379  16.726  1.00  0.00    -0.271 OA
ATOM     35  H4  UNL     1      34.833  30.410  19.365  1.00  0.00     0.169 HD
BRANCH  33  36
HETATM   36  C19 UNL     1      35.639  29.666  16.955  1.00  0.00     0.200 C
BRANCH  36  37
HETATM   37  C20 UNL     1      35.687  29.681  15.479  1.00  0.00     0.202 C
BRANCH  37  38
HETATM   38  O5  UNL     1      36.131  30.757  14.816  1.00  0.00    -0.389 OA
BRANCH  38  39
HETATM   39  C21 UNL     1      36.803  31.752  15.432  1.00  0.00     0.163 C
HETATM   40  C22 UNL     1      36.553  33.084  14.675  1.00  0.00     0.033 C
ENDBRANCH  38  39
ENDBRANCH  37  38
ENDBRANCH  36  37
BRANCH  36  41
HETATM   41  N5  UNL     1      36.395  28.704  17.665  1.00  0.00    -0.344 N
HETATM   42  C23 UNL     1      37.279  29.093  18.744  1.00  0.00     0.253 C
HETATM   43  O6  UNL     1      37.353  30.307  19.029  1.00  0.00    -0.271 OA
ATOM     44  H5  UNL     1      36.317  27.719  17.412  1.00  0.00     0.163 HD
BRANCH  42  45
HETATM   45  C24 UNL     1      38.070  28.081  19.487  1.00  0.00     0.196 C
HETATM   46  C25 UNL     1      37.417  26.718  19.372  1.00  0.00     0.056 C
HETATM   47  C26 UNL     1      38.169  28.414  20.953  1.00  0.00     0.056 C
BRANCH  45  48
HETATM   48  N6  UNL     1      39.400  27.958  18.917  1.00  0.00    -0.062 N
ATOM     49  H63 UNL     1      39.712  26.987  18.886  1.00  0.00     0.275 HD
ATOM     50  H62 UNL     1      39.404  28.150  17.916  1.00  0.00     0.275 HD
ATOM     51  H61 UNL     1      40.060  28.552  19.419  1.00  0.00     0.275 HD
ENDBRANCH  45  48
ENDBRANCH  42  45
ENDBRANCH  36  41
ENDBRANCH  33  36
ENDBRANCH  27  32
ENDBRANCH   1  27
TORSDOF 21
ENDMDL