MODEL 1
REMARK VINA RESULT: -6.748653177      0.000      0.000
REMARK  20 active torsions:
REMARK  status: ('A' for Active; 'I' for Inactive)
REMARK    1  A    between atoms: C2_2  and  C3_3
REMARK    2  A    between atoms: C3_3  and  N1_4
REMARK    3  A    between atoms: N1_4  and  C4_5
REMARK    4  A    between atoms: C4_5  and  O1_6
REMARK    5  A    between atoms: C4_5  and  C5_8
REMARK    6  A    between atoms: C5_8  and  C6_10
REMARK    7  A    between atoms: C9_14  and  C10_15
REMARK    8  A    between atoms: C10_15  and  O4_16
REMARK    9  A    between atoms: C10_15  and  C11_18
REMARK   10  A    between atoms: C11_18  and  C12_19
REMARK   11  A    between atoms: C11_18  and  N2_23
REMARK   12  A    between atoms: C12_19  and  C13_20
REMARK       I    between atoms: N2_23  and  C16_25
REMARK   13  A    between atoms: C16_25  and  C17_27
REMARK   14  A    between atoms: C17_27  and  N3_28
REMARK   15  A    between atoms: C17_27  and  C25_42
REMARK   16  A    between atoms: N3_28  and  C18_30
REMARK   17  A    between atoms: C18_30  and  O6_31
REMARK   18  A    between atoms: C18_30  and  C19_33
REMARK   19  A    between atoms: C19_33  and  N4_34
REMARK   20  A    between atoms: C19_33  and  C22_39
REMARK       I    between atoms: N4_34  and  C20_36
ROOT
HETATM    1  N2  UNL     1      33.291  27.113  20.287  1.00  0.00    -0.323 N
ATOM      2  H2  UNL     1      33.253  27.636  19.412  1.00  0.00     0.169 HD
HETATM    3  C16 UNL     1      33.073  25.763  20.099  1.00  0.00     0.268 C
HETATM    4  O5  UNL     1      33.151  24.949  21.071  1.00  0.00    -0.266 OA
ENDROOT
BRANCH   1   5
HETATM    5  C11 UNL     1      33.547  27.929  21.375  1.00  0.00     0.044 C
BRANCH   5   6
HETATM    6  C10 UNL     1      34.794  28.270  22.032  1.00  0.00     0.102 C
BRANCH   6   7
HETATM    7  C9  UNL     1      35.933  27.268  22.036  1.00  0.00     0.250 C
HETATM    8  C8  UNL     1      37.183  28.165  22.164  1.00  0.00     0.165 C
HETATM    9  C7  UNL     1      37.487  28.581  20.774  1.00  0.00     0.122 C
HETATM   10  O3  UNL     1      37.754  28.434  23.167  1.00  0.00    -0.295 OA
HETATM   11  C6  UNL     1      36.784  27.502  19.944  1.00  0.00     0.209 C
HETATM   12  O8  UNL     1      36.183  26.693  20.823  1.00  0.00    -0.358 OA
BRANCH  11  13
HETATM   13  C5  UNL     1      37.824  26.860  19.109  1.00  0.00     0.243 C
HETATM   14  O2  UNL     1      38.123  25.688  19.335  1.00  0.00    -0.284 OA
BRANCH  13  15
HETATM   15  C4  UNL     1      38.477  27.625  18.018  1.00  0.00     0.263 C
BRANCH  15  16
HETATM   16  N1  UNL     1      37.911  28.301  17.007  1.00  0.00    -0.390 NA
BRANCH  16  17
HETATM   17  C3  UNL     1      37.325  29.003  15.958  1.00  0.00     0.184 C
BRANCH  17  18
HETATM   18  C2  UNL     1      36.299  30.013  16.297  1.00  0.00     0.021 C
HETATM   19  C1  UNL     1      35.342  29.999  17.068  1.00  0.00     0.013 C
ENDBRANCH  17  18
ENDBRANCH  16  17
ENDBRANCH  15  16
BRANCH  15  20
HETATM   20  O1  UNL     1      39.783  27.570  18.148  1.00  0.00    -0.333 OA
ATOM     21  H1  UNL     1      40.300  26.949  17.647  1.00  0.00     0.220 HD
ENDBRANCH  15  20
ENDBRANCH  13  15
ENDBRANCH  11  13
ENDBRANCH   6   7
BRANCH   6  22
HETATM   22  O4  UNL     1      34.741  28.997  23.197  1.00  0.00    -0.360 OA
ATOM     23  H4  UNL     1      34.883  28.453  23.964  1.00  0.00     0.217 HD
ENDBRANCH   6  22
ENDBRANCH   5   6
BRANCH   5  24
HETATM   24  C12 UNL     1      32.406  28.948  21.564  1.00  0.00     0.063 C
BRANCH  24  25
HETATM   25  C13 UNL     1      31.865  29.482  20.283  1.00  0.00    -0.017 C
HETATM   26  C14 UNL     1      30.472  30.067  20.566  1.00  0.00     0.010 C
HETATM   27  C15 UNL     1      32.698  30.649  19.781  1.00  0.00     0.010 C
ENDBRANCH  24  25
ENDBRANCH   5  24
ENDBRANCH   1   5
BRANCH   3  28
HETATM   28  C17 UNL     1      32.744  25.115  18.799  1.00  0.00     0.084 C
BRANCH  28  29
HETATM   29  N3  UNL     1      33.879  24.833  17.959  1.00  0.00    -0.337 N
ATOM     30  H3  UNL     1      33.942  25.381  17.101  1.00  0.00     0.167 HD
BRANCH  29  31
HETATM   31  C18 UNL     1      34.893  23.919  18.161  1.00  0.00     0.139 C
BRANCH  31  32
HETATM   32  O6  UNL     1      36.022  24.220  17.571  1.00  0.00    -0.348 OA
ATOM     33  H6  UNL     1      36.786  24.166  18.132  1.00  0.00     0.219 HD
ENDBRANCH  31  32
BRANCH  31  34
HETATM   34  C19 UNL     1      34.947  22.681  18.910  1.00  0.00     0.162 C
BRANCH  34  35
HETATM   35  N4  UNL     1      35.244  22.893  20.317  1.00  0.00    -0.349 N
HETATM   36  C20 UNL     1      36.571  22.859  20.792  1.00  0.00     0.214 C
HETATM   37  C21 UNL     1      36.904  23.050  22.225  1.00  0.00     0.117 C
HETATM   38  O7  UNL     1      37.584  22.661  20.038  1.00  0.00    -0.274 OA
ATOM     39  H4  UNL     1      34.481  23.070  20.970  1.00  0.00     0.163 HD
ENDBRANCH  34  35
BRANCH  34  40
HETATM   40  C22 UNL     1      33.813  21.736  18.752  1.00  0.00     0.008 C
HETATM   41  C23 UNL     1      33.996  20.499  19.635  1.00  0.00     0.012 C
HETATM   42  C24 UNL     1      33.715  21.213  17.313  1.00  0.00     0.012 C
ENDBRANCH  34  40
ENDBRANCH  31  34
ENDBRANCH  29  31
ENDBRANCH  28  29
BRANCH  28  43
HETATM   43  C25 UNL     1      31.398  25.088  18.246  1.00  0.00     0.041 C
HETATM   44  C26 UNL     1      31.162  23.898  17.270  1.00  0.00     0.011 C
HETATM   45  C27 UNL     1      30.127  24.384  16.270  1.00  0.00     0.001 C
HETATM   46  C28 UNL     1      28.855  24.718  16.987  1.00  0.00     0.000 C
HETATM   47  C29 UNL     1      29.058  25.673  18.148  1.00  0.00     0.001 C
HETATM   48  C30 UNL     1      30.188  25.236  19.086  1.00  0.00     0.011 C
ENDBRANCH  28  43
ENDBRANCH   3  28
TORSDOF 20
ENDMDL