MODEL 3
REMARK VINA RESULT: -6.782070114      3.179      6.182
REMARK  15 active torsions:
REMARK  status: ('A' for Active; 'I' for Inactive)
REMARK    1  A    between atoms: C2_2  and  C3_4
REMARK    2  A    between atoms: C3_4  and  N1_5
REMARK    3  A    between atoms: C3_4  and  C27_43
REMARK       I    between atoms: N1_5  and  C4_7
REMARK    4  A    between atoms: C4_7  and  C5_9
REMARK    5  A    between atoms: C5_9  and  N2_10
REMARK    6  A    between atoms: C5_9  and  C24_40
REMARK       I    between atoms: N2_10  and  C6_12
REMARK    7  A    between atoms: C6_12  and  C7_14
REMARK    8  A    between atoms: C7_14  and  N3_15
REMARK    9  A    between atoms: C7_14  and  C21_37
REMARK       I    between atoms: N3_15  and  C8_17
REMARK   10  A    between atoms: C8_17  and  C9_19
REMARK   11  A    between atoms: C9_19  and  N4_20
REMARK   12  A    between atoms: C9_19  and  C18_34
REMARK       I    between atoms: N4_20  and  C10_22
REMARK   13  A    between atoms: C10_22  and  C11_24
REMARK   14  A    between atoms: N5_27  and  C14_28
REMARK   15  A    between atoms: C14_28  and  C15_29
ROOT
HETATM    1  C7  UNL     1      35.739  24.092  19.486  1.00  0.00     0.180 C
ENDROOT
BRANCH   1   2
HETATM    2  C6  UNL     1      35.572  24.229  17.979  1.00  0.00     0.241 C
HETATM    3  N2  UNL     1      34.466  24.966  17.476  1.00  0.00    -0.346 N
ATOM      4  H2  UNL     1      33.811  25.361  18.151  1.00  0.00     0.163 HD
HETATM    5  O3  UNL     1      36.383  23.707  17.199  1.00  0.00    -0.271 OA
BRANCH   3   6
HETATM    6  C5  UNL     1      34.203  25.194  16.060  1.00  0.00     0.180 C
BRANCH   6   7
HETATM    7  C4  UNL     1      34.892  26.413  15.619  1.00  0.00     0.241 C
HETATM    8  N1  UNL     1      35.058  27.596  16.376  1.00  0.00    -0.348 N
ATOM      9  H1  UNL     1      34.653  27.624  17.311  1.00  0.00     0.163 HD
HETATM   10  O2  UNL     1      35.400  26.436  14.437  1.00  0.00    -0.271 OA
BRANCH   8  11
HETATM   11  C3  UNL     1      35.762  28.764  15.914  1.00  0.00     0.157 C
BRANCH  11  12
HETATM   12  C2  UNL     1      37.156  28.736  16.412  1.00  0.00     0.145 C
HETATM   13  C1  UNL     1      37.472  28.963  17.858  1.00  0.00     0.093 C
HETATM   14  O1  UNL     1      38.060  28.524  15.626  1.00  0.00    -0.296 OA
ENDBRANCH  11  12
BRANCH  11  15
HETATM   15  C27 UNL     1      35.114  30.074  16.335  1.00  0.00     0.007 C
HETATM   16  C28 UNL     1      33.630  30.082  16.281  1.00  0.00     0.012 C
HETATM   17  C29 UNL     1      35.794  31.216  15.637  1.00  0.00     0.012 C
ENDBRANCH  11  15
ENDBRANCH   8  11
ENDBRANCH   6   7
BRANCH   6  18
HETATM   18  C24 UNL     1      32.666  25.393  15.913  1.00  0.00     0.009 C
HETATM   19  C25 UNL     1      32.167  24.863  14.607  1.00  0.00     0.012 C
HETATM   20  C26 UNL     1      31.938  24.868  17.120  1.00  0.00     0.012 C
ENDBRANCH   6  18
ENDBRANCH   3   6
ENDBRANCH   1   2
BRANCH   1  21
HETATM   21  N3  UNL     1      35.376  25.346  20.121  1.00  0.00    -0.346 N
HETATM   22  C8  UNL     1      36.348  26.345  20.390  1.00  0.00     0.241 C
HETATM   23  O4  UNL     1      37.561  26.098  20.053  1.00  0.00    -0.271 OA
ATOM     24  H3  UNL     1      34.403  25.512  20.380  1.00  0.00     0.163 HD
BRANCH  22  25
HETATM   25  C9  UNL     1      36.065  27.642  21.024  1.00  0.00     0.180 C
BRANCH  25  26
HETATM   26  N4  UNL     1      34.750  28.091  20.669  1.00  0.00    -0.347 N
HETATM   27  C10 UNL     1      34.343  29.356  20.237  1.00  0.00     0.222 C
HETATM   28  O5  UNL     1      35.225  30.254  20.122  1.00  0.00    -0.273 OA
ATOM     29  H4  UNL     1      34.012  27.392  20.741  1.00  0.00     0.163 HD
BRANCH  27  30
HETATM   30  C11 UNL     1      32.959  29.727  19.908  1.00  0.00     0.084 C
HETATM   31  C12 UNL     1      31.987  29.435  21.031  1.00  0.00     0.034 C
HETATM   32  C13 UNL     1      30.620  29.545  20.488  1.00  0.00     0.128 C
HETATM   33  N5  UNL     1      30.348  30.562  19.525  1.00  0.00    -0.364 N
HETATM   34  C16 UNL     1      31.355  31.388  19.060  1.00  0.00     0.064 C
HETATM   35  C17 UNL     1      32.757  31.177  19.555  1.00  0.00     0.059 C
BRANCH  33  36
HETATM   36  C14 UNL     1      28.991  30.952  19.472  1.00  0.00     0.174 C
BRANCH  36  37
HETATM   37  C15 UNL     1      28.101  30.110  18.705  1.00  0.00     0.214 C
HETATM   38  O6  UNL     1      28.364  29.412  17.725  1.00  0.00    -0.643 OA
HETATM   39  O7  UNL     1      26.744  30.083  19.136  1.00  0.00    -0.643 OA
ENDBRANCH  36  37
ENDBRANCH  33  36
ENDBRANCH  27  30
ENDBRANCH  25  26
BRANCH  25  40
HETATM   40  C18 UNL     1      36.329  27.566  22.500  1.00  0.00     0.009 C
HETATM   41  C19 UNL     1      35.086  27.835  23.314  1.00  0.00     0.012 C
HETATM   42  C20 UNL     1      37.449  28.524  22.881  1.00  0.00     0.012 C
ENDBRANCH  25  40
ENDBRANCH  22  25
ENDBRANCH   1  21
BRANCH   1  43
HETATM   43  C21 UNL     1      34.891  22.944  19.961  1.00  0.00     0.009 C
HETATM   44  C22 UNL     1      35.608  22.197  21.051  1.00  0.00     0.012 C
HETATM   45  C23 UNL     1      33.578  23.429  20.560  1.00  0.00     0.012 C
ENDBRANCH   1  43
TORSDOF 15
ENDMDL