MODEL 4
REMARK VINA RESULT: -6.084079709      2.971      6.630
REMARK  18 active torsions:
REMARK  status: ('A' for Active; 'I' for Inactive)
REMARK    1  A    between atoms: C2_2  and  N1_3
REMARK    2  A    between atoms: C2_2  and  C3_7
REMARK    3  A    between atoms: C3_7  and  O1_8
REMARK    4  A    between atoms: O1_8  and  C4_9
REMARK    5  A    between atoms: C4_9  and  C5_10
REMARK    6  A    between atoms: C5_10  and  N2_11
REMARK    7  A    between atoms: C5_10  and  C12_19
REMARK    8  A    between atoms: N2_11  and  C6_13
REMARK    9  A    between atoms: C12_19  and  O2_20
REMARK   10  A    between atoms: C12_19  and  N3_22
REMARK   11  A    between atoms: C16_26  and  C17_27
REMARK       I    between atoms: C17_27  and  N4_29
REMARK   12  A    between atoms: N4_29  and  C18_31
REMARK   13  A    between atoms: C18_31  and  C19_32
REMARK   14  A    between atoms: C18_31  and  C26_39
REMARK   15  A    between atoms: C19_32  and  C20_33
REMARK       I    between atoms: C26_39  and  N5_41
REMARK   16  A    between atoms: N5_41  and  C27_43
REMARK   17  A    between atoms: C27_43  and  C28_44
REMARK   18  A    between atoms: C27_43  and  C29_47
ROOT
HETATM    1  N3  UNL     1      37.447  26.505  19.546  1.00  0.00    -0.350 N
HETATM    2  C13 UNL     1      38.602  26.497  18.720  1.00  0.00     0.126 C
HETATM    3  C14 UNL     1      39.183  27.880  18.740  1.00  0.00     0.022 C
HETATM    4  C15 UNL     1      38.352  28.632  19.731  1.00  0.00     0.037 C
HETATM    5  C16 UNL     1      37.030  27.942  19.619  1.00  0.00     0.178 C
ENDROOT
BRANCH   5   6
HETATM    6  C17 UNL     1      36.243  28.290  18.422  1.00  0.00     0.241 C
HETATM    7  O3  UNL     1      35.783  27.367  17.708  1.00  0.00    -0.271 OA
HETATM    8  N4  UNL     1      35.982  29.613  18.040  1.00  0.00    -0.346 N
ATOM      9  H4  UNL     1      36.360  30.350  18.635  1.00  0.00     0.163 HD
BRANCH   8  10
HETATM   10  C18 UNL     1      35.225  30.026  16.878  1.00  0.00     0.177 C
BRANCH  10  11
HETATM   11  C19 UNL     1      33.945  30.692  17.214  1.00  0.00     0.039 C
BRANCH  11  12
HETATM   12  C20 UNL     1      33.209  30.264  18.411  1.00  0.00    -0.012 C
HETATM   13  C21 UNL     1      32.312  29.080  17.995  1.00  0.00     0.005 C
HETATM   14  C22 UNL     1      31.677  28.476  19.242  1.00  0.00     0.000 C
HETATM   15  C23 UNL     1      30.759  29.525  19.822  1.00  0.00     0.000 C
HETATM   16  C24 UNL     1      31.560  30.712  20.225  1.00  0.00     0.000 C
HETATM   17  C25 UNL     1      32.365  31.310  19.085  1.00  0.00     0.005 C
ENDBRANCH  11  12
ENDBRANCH  10  11
BRANCH  10  18
HETATM   18  C26 UNL     1      36.077  30.675  15.879  1.00  0.00     0.241 C
HETATM   19  O4  UNL     1      36.814  29.964  15.142  1.00  0.00    -0.271 OA
HETATM   20  N5  UNL     1      36.103  32.074  15.711  1.00  0.00    -0.346 N
ATOM     21  H5  UNL     1      35.517  32.675  16.290  1.00  0.00     0.163 HD
BRANCH  20  22
HETATM   22  C27 UNL     1      36.976  32.651  14.701  1.00  0.00     0.177 C
BRANCH  22  23
HETATM   23  C28 UNL     1      37.933  33.618  15.246  1.00  0.00     0.254 C
HETATM   24  N6  UNL     1      38.992  34.078  14.411  1.00  0.00    -0.060 NA
HETATM   25  O5  UNL     1      37.878  34.068  16.414  1.00  0.00    -0.275 OA
ENDBRANCH  22  23
BRANCH  22  26
HETATM   26  C29 UNL     1      36.136  33.275  13.595  1.00  0.00     0.009 C
HETATM   27  C30 UNL     1      36.071  32.432  12.358  1.00  0.00     0.012 C
HETATM   28  C31 UNL     1      34.752  33.636  14.034  1.00  0.00     0.012 C
ENDBRANCH  22  26
ENDBRANCH  20  22
ENDBRANCH  10  18
ENDBRANCH   8  10
ENDBRANCH   5   6
BRANCH   1  29
HETATM   29  C12 UNL     1      36.773  25.481  20.191  1.00  0.00     0.139 C
BRANCH  29  30
HETATM   30  C5  UNL     1      35.456  25.269  20.786  1.00  0.00     0.176 C
BRANCH  30  31
HETATM   31  C4  UNL     1      34.695  24.054  20.499  1.00  0.00     0.200 C
BRANCH  31  32
HETATM   32  O1  UNL     1      35.107  22.905  21.221  1.00  0.00    -0.387 OA
BRANCH  32  33
HETATM   33  C3  UNL     1      34.147  21.928  20.942  1.00  0.00     0.200 C
BRANCH  33  34
HETATM   34  C2  UNL     1      34.536  21.021  19.806  1.00  0.00     0.203 C
HETATM   35  C1  UNL     1      34.121  19.603  20.217  1.00  0.00     0.042 C
BRANCH  34  36
HETATM   36  N1  UNL     1      33.753  21.311  18.604  1.00  0.00    -0.073 N
ATOM     37  H13 UNL     1      33.164  20.537  18.298  1.00  0.00     0.274 HD
ATOM     38  H12 UNL     1      32.998  21.980  18.754  1.00  0.00     0.274 HD
ATOM     39  H11 UNL     1      34.438  21.608  17.909  1.00  0.00     0.274 HD
ENDBRANCH  34  36
ENDBRANCH  33  34
ENDBRANCH  32  33
ENDBRANCH  31  32
ENDBRANCH  30  31
BRANCH  30  40
HETATM   40  N2  UNL     1      35.576  25.582  22.166  1.00  0.00    -0.404 N
ATOM     41  H2  UNL     1      36.030  24.896  22.771  1.00  0.00     0.154 HD
BRANCH  40  42
HETATM   42  C6  UNL     1      35.122  26.749  22.746  1.00  0.00     0.077 C
HETATM   43  C7  UNL     1      36.076  27.860  23.057  1.00  0.00     0.024 C
HETATM   44  C8  UNL     1      35.436  29.230  22.782  1.00  0.00     0.002 C
HETATM   45  C9  UNL     1      34.093  29.213  23.498  1.00  0.00     0.000 C
HETATM   46  C10 UNL     1      33.193  28.339  22.648  1.00  0.00     0.002 C
HETATM   47  C11 UNL     1      33.995  27.334  21.851  1.00  0.00     0.024 C
ENDBRANCH  40  42
ENDBRANCH  30  40
ENDBRANCH  29  30
BRANCH  29  48
HETATM   48  O2  UNL     1      37.517  24.383  20.301  1.00  0.00    -0.348 OA
ATOM     49  H2  UNL     1      38.215  24.515  20.932  1.00  0.00     0.219 HD
ENDBRANCH  29  48
ENDBRANCH   1  29
TORSDOF 18
ENDMDL