MODEL 4
REMARK VINA RESULT: -6.907745927      2.978      7.493
REMARK  4 active torsions:
REMARK  status: ('A' for Active; 'I' for Inactive)
REMARK    1  A    between atoms: C2_2  and  O1_3
REMARK    2  A    between atoms: O1_3  and  N1_4
REMARK    3  A    between atoms: N1_4  and  C3_5
REMARK    4  A    between atoms: C15_17  and  O2_18
ROOT
HETATM    1  C3  UNL     1      30.557  30.906  19.733  1.00  0.00     0.203 C
HETATM    2  C4  UNL     1      31.462  31.470  18.703  1.00  0.00     0.046 C
HETATM    3  C5  UNL     1      32.898  31.079  18.796  1.00  0.00     0.019 C
HETATM    4  C6  UNL     1      33.088  29.601  19.073  1.00  0.00     0.002 C
HETATM    5  C7  UNL     1      32.444  28.853  17.891  1.00  0.00     0.022 C
HETATM    6  C8  UNL     1      32.320  29.178  20.255  1.00  0.00     0.011 C
HETATM    7  C9  UNL     1      32.807  28.379  21.149  1.00  0.00    -0.001 C
HETATM    8  C10 UNL     1      34.168  27.821  21.065  1.00  0.00     0.034 C
HETATM    9  C11 UNL     1      34.615  27.832  19.665  1.00  0.00    -0.001 C
HETATM   10  C12 UNL     1      35.989  27.339  19.380  1.00  0.00    -0.002 C
HETATM   11  C13 UNL     1      36.271  25.947  19.869  1.00  0.00     0.008 C
HETATM   12  C14 UNL     1      37.526  25.461  19.244  1.00  0.00     0.032 C
HETATM   13  C15 UNL     1      38.663  26.400  19.171  1.00  0.00     0.118 C
HETATM   14  C16 UNL     1      38.289  27.829  18.846  1.00  0.00     0.041 C
HETATM   15  C17 UNL     1      37.116  28.222  19.771  1.00  0.00    -0.038 C
HETATM   16  C18 UNL     1      37.657  28.033  21.157  1.00  0.00     0.015 C
HETATM   17  C19 UNL     1      36.880  29.689  19.532  1.00  0.00     0.010 C
HETATM   18  C20 UNL     1      35.456  30.110  19.797  1.00  0.00     0.007 C
HETATM   19  C21 UNL     1      34.519  29.235  19.051  1.00  0.00     0.004 C
HETATM   20  N2  UNL     1      30.996  29.708  20.367  1.00  0.00    -0.373 N
ATOM     21  H2  UNL     1      30.323  29.195  20.937  1.00  0.00     0.161 HD
ENDROOT
BRANCH   1  22
HETATM   22  N1  UNL     1      29.256  30.644  19.097  1.00  0.00    -0.076 NA
BRANCH  22  23
HETATM   23  O1  UNL     1      28.300  30.828  20.038  1.00  0.00    -0.285 OA
BRANCH  23  24
HETATM   24  C2  UNL     1      27.078  30.446  19.495  1.00  0.00     0.191 C
HETATM   25  C1  UNL     1      25.953  31.088  20.259  1.00  0.00     0.035 C
ENDBRANCH  23  24
ENDBRANCH  22  23
ENDBRANCH   1  22
BRANCH  13  26
HETATM   26  O2  UNL     1      39.529  25.973  18.162  1.00  0.00    -0.396 OA
ATOM     27  H2  UNL     1      40.083  25.285  18.510  1.00  0.00     0.210 HD
ENDBRANCH  13  26
TORSDOF 4
ENDMDL