MODEL 1
REMARK VINA RESULT: -6.713973065      0.000      0.000
REMARK  6 active torsions:
REMARK  status: ('A' for Active; 'I' for Inactive)
REMARK    1  A    between atoms: C3_3  and  O1_4
REMARK    2  A    between atoms: C6_8  and  C7_9
REMARK    3  A    between atoms: C7_9  and  O2_10
REMARK    4  A    between atoms: C11_15  and  C12_16
REMARK    5  A    between atoms: C15_19  and  O3_20
REMARK    6  A    between atoms: C19_24  and  O4_25
ROOT
HETATM    1  C1  UNL     1      37.337  27.362  21.519  1.00  0.00     0.022 C
HETATM    2  C2  UNL     1      36.064  27.667  21.458  1.00  0.00    -0.032 C
HETATM    3  C3  UNL     1      35.522  28.339  22.709  1.00  0.00     0.150 C
HETATM    4  C4  UNL     1      34.136  27.815  22.914  1.00  0.00     0.037 C
HETATM    5  C5  UNL     1      33.955  26.448  22.272  1.00  0.00     0.019 C
HETATM    6  C6  UNL     1      33.930  26.603  20.793  1.00  0.00     0.009 C
HETATM    7  C8  UNL     1      33.913  25.288  20.054  1.00  0.00     0.025 C
HETATM    8  C9  UNL     1      35.179  24.515  20.121  1.00  0.00     0.016 C
HETATM    9  C10 UNL     1      34.823  23.075  20.242  1.00  0.00    -0.016 C
HETATM   10  C11 UNL     1      35.337  22.071  19.598  1.00  0.00    -0.051 C
HETATM   11  C15 UNL     1      36.410  22.369  18.620  1.00  0.00     0.150 C
HETATM   12  C17 UNL     1      35.997  23.697  17.971  1.00  0.00     0.044 C
HETATM   13  C18 UNL     1      36.170  24.761  19.072  1.00  0.00     0.028 C
HETATM   14  C19 UNL     1      36.329  26.122  18.534  1.00  0.00     0.146 C
HETATM   15  C20 UNL     1      35.598  27.264  19.009  1.00  0.00     0.013 C
HETATM   16  C21 UNL     1      35.108  27.463  20.375  1.00  0.00    -0.041 C
ENDROOT
BRANCH   6  17
HETATM   17  C7  UNL     1      32.606  27.268  20.423  1.00  0.00     0.178 C
BRANCH  17  18
HETATM   18  O2  UNL     1      31.825  26.550  19.572  1.00  0.00    -0.400 OA
ATOM     19  H2  UNL     1      31.945  26.753  18.651  1.00  0.00     0.209 HD
ENDBRANCH  17  18
ENDBRANCH   6  17
BRANCH   3  20
HETATM   20  O1  UNL     1      35.541  29.731  22.539  1.00  0.00    -0.391 OA
ATOM     21  H1  UNL     1      36.349  30.083  22.892  1.00  0.00     0.210 HD
ENDBRANCH   3  20
BRANCH  14  22
HETATM   22  O4  UNL     1      35.997  26.009  17.140  1.00  0.00    -0.391 OA
ATOM     23  H4  UNL     1      35.050  25.935  17.120  1.00  0.00     0.210 HD
ENDBRANCH  14  22
BRANCH  10  24
HETATM   24  C12 UNL     1      34.907  20.682  19.800  1.00  0.00     0.009 C
HETATM   25  C13 UNL     1      33.656  20.317  19.044  1.00  0.00     0.014 C
HETATM   26  C14 UNL     1      34.628  20.406  21.278  1.00  0.00     0.014 C
ENDBRANCH  10  24
BRANCH  11  27
HETATM   27  O3  UNL     1      36.521  21.340  17.734  1.00  0.00    -0.386 OA
HETATM   28  C16 UNL     1      36.101  21.673  16.448  1.00  0.00     0.202 C
ENDBRANCH  11  27
TORSDOF 6
ENDMDL