MODEL 5
REMARK VINA RESULT: -6.628269920      2.382      3.708
REMARK  6 active torsions:
REMARK  status: ('A' for Active; 'I' for Inactive)
REMARK    1  A    between atoms: C2_2  and  C3_3
REMARK    2  A    between atoms: C3_3  and  O1_4
REMARK    3  A    between atoms: C17_20  and  C18_21
REMARK    4  A    between atoms: C17_20  and  C19_24
REMARK    5  A    between atoms: C18_21  and  O3_22
REMARK    6  A    between atoms: C19_24  and  O4_25
ROOT
HETATM    1  C1  UNL     1      31.948  28.823  16.008  1.00  0.00     0.018 C
HETATM    2  C2  UNL     1      31.107  29.085  17.215  1.00  0.00    -0.018 C
HETATM    3  C4  UNL     1      30.211  30.288  16.896  1.00  0.00     0.012 C
HETATM    4  C5  UNL     1      30.946  31.565  16.850  1.00  0.00     0.002 C
HETATM    5  C6  UNL     1      32.263  31.579  17.531  1.00  0.00     0.010 C
HETATM    6  C7  UNL     1      32.414  30.635  18.683  1.00  0.00    -0.035 C
HETATM    7  C8  UNL     1      31.965  31.255  19.962  1.00  0.00     0.016 C
HETATM    8  C9  UNL     1      33.801  30.034  18.643  1.00  0.00     0.001 C
HETATM    9  C10 UNL     1      34.590  30.454  19.823  1.00  0.00     0.032 C
HETATM   10  C11 UNL     1      35.900  29.743  19.990  1.00  0.00     0.169 C
HETATM   11  O2  UNL     1      35.922  28.421  19.843  1.00  0.00    -0.379 OA
HETATM   12  C12 UNL     1      34.935  27.593  20.133  1.00  0.00     0.073 C
HETATM   13  C13 UNL     1      35.092  26.406  19.154  1.00  0.00     0.047 C
HETATM   14  C14 UNL     1      33.513  28.045  19.982  1.00  0.00     0.026 C
HETATM   15  C15 UNL     1      32.798  26.746  20.301  1.00  0.00     0.009 C
HETATM   16  C16 UNL     1      33.607  26.169  21.428  1.00  0.00     0.017 C
HETATM   17  C17 UNL     1      34.913  26.959  21.482  1.00  0.00     0.033 C
HETATM   18  C20 UNL     1      33.176  28.671  18.687  1.00  0.00     0.003 C
HETATM   19  C21 UNL     1      31.833  29.265  18.496  1.00  0.00     0.009 C
ENDROOT
BRANCH  17  20
HETATM   20  C18 UNL     1      36.097  26.040  21.668  1.00  0.00     0.178 C
BRANCH  20  21
HETATM   21  O3  UNL     1      37.281  26.758  21.861  1.00  0.00    -0.400 OA
ATOM     22  H3  UNL     1      37.310  27.538  21.320  1.00  0.00     0.209 HD
ENDBRANCH  20  21
ENDBRANCH  17  20
BRANCH  17  23
HETATM   23  C19 UNL     1      34.806  27.917  22.631  1.00  0.00     0.178 C
BRANCH  23  24
HETATM   24  O4  UNL     1      35.271  27.302  23.819  1.00  0.00    -0.400 OA
ATOM     25  H4  UNL     1      35.497  26.396  23.647  1.00  0.00     0.209 HD
ENDBRANCH  23  24
ENDBRANCH  17  23
BRANCH   2  26
HETATM   26  C3  UNL     1      30.107  27.929  17.289  1.00  0.00     0.173 C
BRANCH  26  27
HETATM   27  O1  UNL     1      29.770  27.577  18.577  1.00  0.00    -0.400 OA
ATOM     28  H1  UNL     1      30.494  27.640  19.189  1.00  0.00     0.209 HD
ENDBRANCH  26  27
ENDBRANCH   2  26
TORSDOF 6
ENDMDL