MODEL 1
REMARK VINA RESULT: -7.689194147      0.000      0.000
REMARK  3 active torsions:
REMARK  status: ('A' for Active; 'I' for Inactive)
REMARK    1  A    between atoms: C2_2  and  C3_3
REMARK    2  A    between atoms: C17_17  and  C19_19
REMARK    3  A    between atoms: N1_20  and  N2_22
ROOT
HETATM    1  C3  UNL     1      31.506  30.529  18.058  1.00  0.00    -0.013 C
HETATM    2  C4  UNL     1      31.304  29.565  16.948  1.00  0.00     0.018 C
HETATM    3  C5  UNL     1      30.373  30.567  19.093  1.00  0.00     0.015 C
HETATM    4  C6  UNL     1      31.476  30.858  20.121  1.00  0.00     0.040 C
HETATM    5  C7  UNL     1      32.410  30.089  19.193  1.00  0.00     0.073 C
HETATM    6  C8  UNL     1      33.755  30.709  19.043  1.00  0.00     0.066 C
HETATM    7  C9  UNL     1      34.727  30.104  20.028  1.00  0.00    -0.017 C
HETATM    8  C10 UNL     1      34.528  28.875  20.462  1.00  0.00    -0.036 C
HETATM    9  C11 UNL     1      33.380  28.112  19.993  1.00  0.00     0.083 C
HETATM   10  C12 UNL     1      33.768  27.012  19.005  1.00  0.00     0.051 C
HETATM   11  C13 UNL     1      32.864  27.377  21.241  1.00  0.00     0.043 C
HETATM   12  C14 UNL     1      33.912  26.365  21.591  1.00  0.00     0.009 C
HETATM   13  C15 UNL     1      35.270  26.907  21.820  1.00  0.00    -0.001 C
HETATM   14  C16 UNL     1      35.615  26.649  23.298  1.00  0.00     0.011 C
HETATM   15  C17 UNL     1      35.508  28.315  21.433  1.00  0.00     0.019 C
HETATM   16  C18 UNL     1      35.610  29.242  22.652  1.00  0.00     0.026 C
HETATM   17  O1  UNL     1      32.358  28.771  19.439  1.00  0.00    -0.364 OA
ENDROOT
BRANCH  15  18
HETATM   18  C19 UNL     1      36.835  28.407  20.765  1.00  0.00     0.094 C
HETATM   19  N1  UNL     1      37.489  27.414  20.332  1.00  0.00    -0.313 N
ATOM     20  H1  UNL     1      37.100  26.477  20.436  1.00  0.00     0.185 HD
BRANCH  19  21
HETATM   21  N2  UNL     1      38.732  27.572  19.715  1.00  0.00    -0.277 N
HETATM   22  C20 UNL     1      38.883  27.226  18.489  1.00  0.00     0.215 C
HETATM   23  N3  UNL     1      40.159  27.396  17.878  1.00  0.00    -0.065 NA
HETATM   24  N4  UNL     1      37.826  26.680  17.719  1.00  0.00    -0.065 NA
ATOM     25  H2  UNL     1      39.516  27.960  20.237  1.00  0.00     0.189 HD
ENDBRANCH  19  21
ENDBRANCH  15  18
BRANCH   1  26
HETATM   26  C2  UNL     1      31.799  31.925  17.548  1.00  0.00     0.007 C
HETATM   27  C1  UNL     1      31.085  32.178  16.247  1.00  0.00     0.006 C
ENDBRANCH   1  26
TORSDOF 3
ENDMDL