MODEL 4
REMARK VINA RESULT: -6.767914329      2.956      4.591
REMARK  5 active torsions:
REMARK  status: ('A' for Active; 'I' for Inactive)
REMARK    1  A    between atoms: N1_1  and  C1_5
REMARK    2  A    between atoms: C1_5  and  C2_6
REMARK    3  A    between atoms: C1_5  and  C12_25
REMARK    4  A    between atoms: C4_10  and  N3_11
REMARK       I    between atoms: N3_11  and  C5_13
REMARK       I    between atoms: C5_13  and  N4_15
REMARK    5  A    between atoms: N4_15  and  C6_17
ROOT
HETATM    1  C2  UNL     1      36.877  24.190  20.832  1.00  0.00     0.032 A
HETATM    2  C3  UNL     1      36.355  24.709  21.988  1.00  0.00     0.107 A
HETATM    3  N2  UNL     1      36.194  26.010  22.044  1.00  0.00    -0.345 N
ATOM      4  H2  UNL     1      35.811  26.451  22.880  1.00  0.00     0.167 HD
HETATM    5  C4  UNL     1      36.543  26.743  20.989  1.00  0.00     0.152 A
HETATM    6  S1  UNL     1      37.111  25.582  19.886  1.00  0.00    -0.055 SA
ENDROOT
BRANCH   5   7
HETATM    7  N3  UNL     1      36.450  28.051  20.876  1.00  0.00    -0.289 N
HETATM    8  C5  UNL     1      35.529  28.606  19.950  1.00  0.00     0.324 C
HETATM    9  O1  UNL     1      35.904  28.946  18.787  1.00  0.00    -0.247 OA
HETATM   10  N4  UNL     1      34.164  28.792  20.314  1.00  0.00    -0.316 N
ATOM     11  H4  UNL     1      33.859  28.521  21.248  1.00  0.00     0.166 HD
ATOM     12  H3  UNL     1      37.033  28.660  21.449  1.00  0.00     0.172 HD
BRANCH  10  13
HETATM   13  C6  UNL     1      33.196  29.359  19.389  1.00  0.00     0.224 C
HETATM   14  C7  UNL     1      33.280  30.866  19.492  1.00  0.00     0.054 C
HETATM   15  C8  UNL     1      32.227  31.484  18.575  1.00  0.00     0.004 C
HETATM   16  C9  UNL     1      30.873  31.211  19.185  1.00  0.00     0.002 C
HETATM   17  C10 UNL     1      30.216  29.977  18.585  1.00  0.00     0.026 C
HETATM   18  C11 UNL     1      31.087  28.765  18.667  1.00  0.00     0.170 C
HETATM   19  O2  UNL     1      31.934  28.895  19.763  1.00  0.00    -0.367 OA
ENDBRANCH  10  13
ENDBRANCH   5   7
BRANCH   1  20
HETATM   20  C1  UNL     1      37.133  22.732  20.596  1.00  0.00     0.228 C
BRANCH  20  21
HETATM   21  N1  UNL     1      38.558  22.509  20.370  1.00  0.00    -0.070 N
ATOM     22  H13 UNL     1      39.134  23.213  20.831  1.00  0.00     0.275 HD
ATOM     23  H12 UNL     1      38.901  21.688  20.869  1.00  0.00     0.275 HD
ATOM     24  H11 UNL     1      38.745  22.455  19.369  1.00  0.00     0.275 HD
ENDBRANCH  20  21
BRANCH  20  25
HETATM   25  C12 UNL     1      36.319  22.169  19.499  1.00  0.00     0.021 C
HETATM   26  C13 UNL     1      34.890  22.553  19.417  1.00  0.00     0.007 C
HETATM   27  C14 UNL     1      34.221  21.453  18.559  1.00  0.00     0.000 C
HETATM   28  C15 UNL     1      34.756  21.650  17.169  1.00  0.00     0.000 C
HETATM   29  C16 UNL     1      36.236  21.703  17.052  1.00  0.00     0.000 C
HETATM   30  C17 UNL     1      36.935  22.496  18.132  1.00  0.00     0.007 C
ENDBRANCH  20  25
ENDBRANCH   1  20
TORSDOF 5
ENDMDL