MODEL 5
REMARK VINA RESULT: -7.046925787      2.607      3.756
REMARK  4 active torsions:
REMARK  status: ('A' for Active; 'I' for Inactive)
REMARK    1  A    between atoms: C2_2  and  C5_5
REMARK    2  A    between atoms: C8_8  and  N1_9
REMARK    3  A    between atoms: C8_8  and  C9_13
REMARK    4  A    between atoms: C12_16  and  C14_18
ROOT
HETATM    1  C9  UNL     1      35.734  27.530  19.996  1.00  0.00     0.116 C
HETATM    2  C10 UNL     1      36.284  27.344  18.626  1.00  0.00     0.051 C
HETATM    3  C11 UNL     1      35.088  26.234  20.450  1.00  0.00     0.072 C
HETATM    4  C12 UNL     1      36.191  25.514  21.195  1.00  0.00     0.068 C
HETATM    5  C13 UNL     1      35.892  25.436  22.682  1.00  0.00     0.037 C
HETATM    6  N3  UNL     1      37.301  26.393  21.028  1.00  0.00    -0.089 NA
HETATM    7  O2  UNL     1      36.804  27.623  20.885  1.00  0.00    -0.272 OA
ENDROOT
BRANCH   1   8
HETATM    8  C8  UNL     1      34.814  28.707  20.137  1.00  0.00     0.156 C
HETATM    9  C7  UNL     1      33.374  28.393  19.992  1.00  0.00     0.042 C
HETATM   10  C6  UNL     1      32.820  28.646  18.589  1.00  0.00     0.008 C
HETATM   11  C5  UNL     1      32.943  30.068  18.166  1.00  0.00    -0.007 C
HETATM   12  C20 UNL     1      33.974  30.764  18.992  1.00  0.00     0.008 C
HETATM   13  C19 UNL     1      35.159  29.799  19.120  1.00  0.00     0.042 C
BRANCH  11  14
HETATM   14  C2  UNL     1      31.658  30.840  18.191  1.00  0.00    -0.048 C
HETATM   15  C1  UNL     1      31.602  31.637  19.479  1.00  0.00     0.015 C
HETATM   16  C3  UNL     1      30.441  29.968  18.139  1.00  0.00     0.015 C
HETATM   17  C4  UNL     1      31.558  31.836  17.057  1.00  0.00     0.015 C
ENDBRANCH  11  14
BRANCH   8  18
HETATM   18  N1  UNL     1      35.032  29.325  21.435  1.00  0.00    -0.067 N
ATOM     19  H13 UNL     1      36.003  29.261  21.739  1.00  0.00     0.275 HD
ATOM     20  H12 UNL     1      34.962  30.342  21.399  1.00  0.00     0.275 HD
ATOM     21  H11 UNL     1      34.385  28.915  22.108  1.00  0.00     0.275 HD
ENDBRANCH   8  18
ENDBRANCH   1   8
BRANCH   4  22
HETATM   22  C14 UNL     1      36.419  24.106  20.724  1.00  0.00     0.104 C
HETATM   23  C15 UNL     1      35.090  23.579  20.201  1.00  0.00     0.018 C
HETATM   24  C16 UNL     1      35.349  22.315  19.369  1.00  0.00     0.020 C
HETATM   25  C17 UNL     1      36.044  22.767  18.104  1.00  0.00     0.122 C
HETATM   26  N2  UNL     1      37.339  23.291  18.490  1.00  0.00    -0.361 N
HETATM   27  C18 UNL     1      37.417  24.150  19.614  1.00  0.00     0.223 C
ATOM     28  H2  UNL     1      38.177  23.045  17.962  1.00  0.00     0.162 HD
HETATM   29  O1  UNL     1      38.352  24.968  19.674  1.00  0.00    -0.273 OA
ENDBRANCH   4  22
TORSDOF 4
ENDMDL