MODEL 1
REMARK VINA RESULT: -7.345136506      0.000      0.000
REMARK  4 active torsions:
REMARK  status: ('A' for Active; 'I' for Inactive)
REMARK    1  A    between atoms: N1_9  and  C9_10
REMARK    2  A    between atoms: C9_10  and  C10_11
REMARK    3  A    between atoms: C16_20  and  C18_22
REMARK    4  A    between atoms: C19_26  and  O1_27
ROOT
HETATM    1  C1  UNL     1      37.759  28.268  22.569  1.00  0.00     0.016 C
HETATM    2  C2  UNL     1      36.725  27.693  21.587  1.00  0.00    -0.030 C
HETATM    3  C3  UNL     1      36.209  26.454  22.219  1.00  0.00     0.016 C
HETATM    4  C4  UNL     1      35.662  28.782  21.492  1.00  0.00     0.023 C
HETATM    5  C5  UNL     1      36.091  29.607  20.301  1.00  0.00     0.013 C
HETATM    6  C6  UNL     1      36.554  28.522  19.312  1.00  0.00     0.002 C
HETATM    7  C7  UNL     1      35.472  28.143  18.415  1.00  0.00     0.036 C
HETATM    8  C8  UNL     1      34.150  27.748  19.001  1.00  0.00     0.273 C
HETATM    9  N1  UNL     1      33.674  28.620  20.021  1.00  0.00     0.089 N
HETATM   10  C15 UNL     1      34.288  28.259  21.311  1.00  0.00     0.277 C
HETATM   11  C16 UNL     1      37.243  27.571  20.189  1.00  0.00     0.006 C
HETATM   12  C17 UNL     1      38.705  28.080  20.251  1.00  0.00     0.022 C
ENDROOT
BRANCH   9  13
HETATM   13  C9  UNL     1      32.263  28.393  20.222  1.00  0.00     0.277 C
BRANCH  13  14
HETATM   14  C10 UNL     1      31.353  29.470  19.763  1.00  0.00     0.017 C
HETATM   15  C11 UNL     1      32.235  30.703  19.510  1.00  0.00     0.034 C
HETATM   16  C12 UNL     1      31.419  31.838  18.974  1.00  0.00     0.232 C
HETATM   17  N2  UNL     1      30.087  31.431  18.584  1.00  0.00    -0.075 N
HETATM   18  C13 UNL     1      30.120  30.267  17.731  1.00  0.00     0.232 C
ATOM     19  H22 UNL     1      29.489  31.282  19.396  1.00  0.00     0.277 HD
ATOM     20  H21 UNL     1      29.574  32.198  18.149  1.00  0.00     0.277 HD
HETATM   21  C14 UNL     1      30.723  29.087  18.436  1.00  0.00     0.034 C
ENDBRANCH  13  14
ENDBRANCH   9  13
BRANCH  11  22
HETATM   22  C18 UNL     1      37.356  26.162  19.697  1.00  0.00     0.060 A
HETATM   23  S1  UNL     1      36.439  24.753  19.534  1.00  0.00    -0.012 SA
HETATM   24  N3  UNL     1      37.865  24.255  18.936  1.00  0.00    -0.306 N
HETATM   25  C19 UNL     1      38.394  25.460  19.153  1.00  0.00     0.161 A
ATOM     26  H3  UNL     1      38.214  23.378  18.551  1.00  0.00     0.176 HD
BRANCH  25  27
HETATM   27  O1  UNL     1      39.757  25.763  18.825  1.00  0.00    -0.345 OA
ATOM     28  H1  UNL     1      40.186  26.411  18.277  1.00  0.00     0.219 HD
ENDBRANCH  25  27
ENDBRANCH  11  22
TORSDOF 4
ENDMDL