MODEL 2
REMARK VINA RESULT: -5.687401881      3.098      4.469
REMARK  6 active torsions:
REMARK  status: ('A' for Active; 'I' for Inactive)
REMARK    1  A    between atoms: C2_2  and  O1_5
REMARK    2  A    between atoms: O1_5  and  C5_6
REMARK    3  A    between atoms: C5_6  and  C6_8
REMARK    4  A    between atoms: C6_8  and  N1_9
REMARK    5  A    between atoms: C9_12  and  N2_13
REMARK       I    between atoms: N2_13  and  C10_15
REMARK       I    between atoms: C10_15  and  N4_19
REMARK    6  A    between atoms: N4_19  and  C11_21
ROOT
HETATM    1  N1  UNL     1      36.563  27.001  22.186  1.00  0.00     0.095 N
HETATM    2  C7  UNL     1      35.519  26.014  22.414  1.00  0.00     0.275 C
HETATM    3  C8  UNL     1      34.219  26.584  21.901  1.00  0.00     0.056 C
HETATM    4  C9  UNL     1      33.745  27.612  22.906  1.00  0.00     0.102 C
HETATM    5  C17 UNL     1      34.908  28.397  23.386  1.00  0.00     0.056 C
HETATM    6  C18 UNL     1      36.148  28.322  22.536  1.00  0.00     0.275 C
ENDROOT
BRANCH   4   7
HETATM    7  N2  UNL     1      32.662  28.414  22.371  1.00  0.00    -0.222 N
HETATM    8  C10 UNL     1      32.744  28.824  20.995  1.00  0.00     0.668 C
HETATM    9  N3  UNL     1      33.869  28.853  20.379  1.00  0.00    -0.235 N
HETATM   10  N4  UNL     1      31.586  29.212  20.272  1.00  0.00    -0.222 N
ATOM     11  H32 UNL     1      34.702  28.575  20.898  1.00  0.00     0.174 HD
ATOM     12  H31 UNL     1      33.927  29.144  19.403  1.00  0.00     0.174 HD
ATOM     13  H4  UNL     1      31.023  28.482  19.836  1.00  0.00     0.178 HD
ATOM     14  H2  UNL     1      31.866  28.678  22.953  1.00  0.00     0.178 HD
BRANCH  10  15
HETATM   15  C11 UNL     1      31.161  30.583  20.123  1.00  0.00     0.099 C
HETATM   16  C12 UNL     1      32.185  31.492  19.526  1.00  0.00     0.026 C
HETATM   17  C13 UNL     1      32.351  31.304  18.038  1.00  0.00     0.002 C
HETATM   18  C14 UNL     1      31.029  31.179  17.325  1.00  0.00     0.000 C
HETATM   19  C15 UNL     1      30.097  30.192  17.972  1.00  0.00     0.002 C
HETATM   20  C16 UNL     1      29.830  30.667  19.387  1.00  0.00     0.026 C
ENDBRANCH  10  15
ENDBRANCH   4   7
BRANCH   1  21
HETATM   21  C6  UNL     1      37.021  26.831  20.855  1.00  0.00     0.348 C
BRANCH  21  22
HETATM   22  C5  UNL     1      37.580  28.003  20.180  1.00  0.00     0.141 C
HETATM   23  S1  UNL     1      39.096  28.512  20.427  1.00  0.00    -0.056 SA
BRANCH  22  24
HETATM   24  O1  UNL     1      36.810  28.746  19.271  1.00  0.00    -0.332 OA
BRANCH  24  25
HETATM   25  C2  UNL     1      36.638  28.377  17.929  1.00  0.00     0.058 C
HETATM   26  C1  UNL     1      35.513  27.396  17.712  1.00  0.00     0.045 C
HETATM   27  C3  UNL     1      37.894  27.725  17.368  1.00  0.00     0.045 C
HETATM   28  C4  UNL     1      36.378  29.652  17.144  1.00  0.00     0.045 C
ENDBRANCH  24  25
ENDBRANCH  22  24
ENDBRANCH  21  22
ENDBRANCH   1  21
TORSDOF 6
ENDMDL