MODEL 4
REMARK VINA RESULT: -7.098843367      3.872      6.425
REMARK  6 active torsions:
REMARK  status: ('A' for Active; 'I' for Inactive)
REMARK    1  A    between atoms: O1_2  and  N1_3
REMARK       I    between atoms: N1_3  and  C2_5
REMARK    2  A    between atoms: C2_5  and  C3_7
REMARK    3  A    between atoms: C3_7  and  C4_8
REMARK    4  A    between atoms: C4_8  and  C5_9
REMARK    5  A    between atoms: C5_9  and  O3_10
REMARK    6  A    between atoms: C16_22  and  O4_23
ROOT
HETATM    1  C4  UNL     1      34.688  27.134  20.983  1.00  0.00     0.011 C
HETATM    2  C6  UNL     1      34.781  27.806  22.328  1.00  0.00    -0.004 C
HETATM    3  C7  UNL     1      35.351  26.978  23.429  1.00  0.00     0.011 C
HETATM    4  C8  UNL     1      33.414  28.282  22.741  1.00  0.00     0.006 C
HETATM    5  C9  UNL     1      32.564  28.923  21.728  1.00  0.00     0.006 C
HETATM    6  C10 UNL     1      32.808  28.645  20.283  1.00  0.00    -0.001 C
HETATM    7  C11 UNL     1      34.309  28.257  20.068  1.00  0.00     0.005 C
HETATM    8  C12 UNL     1      34.957  29.567  20.248  1.00  0.00     0.006 C
HETATM    9  C13 UNL     1      34.783  30.364  18.943  1.00  0.00     0.006 C
HETATM   10  C14 UNL     1      33.478  30.038  18.338  1.00  0.00    -0.004 C
HETATM   11  C15 UNL     1      33.084  31.172  17.425  1.00  0.00     0.037 C
HETATM   12  C16 UNL     1      31.797  30.907  16.684  1.00  0.00     0.118 C
HETATM   13  C17 UNL     1      30.717  30.308  17.536  1.00  0.00     0.032 C
HETATM   14  C18 UNL     1      31.221  29.252  18.442  1.00  0.00     0.012 C
HETATM   15  C19 UNL     1      32.375  29.733  19.353  1.00  0.00    -0.036 C
HETATM   16  C20 UNL     1      31.828  30.957  19.987  1.00  0.00     0.016 C
ENDROOT
BRANCH   1  17
HETATM   17  C3  UNL     1      35.766  26.250  20.564  1.00  0.00     0.062 C
BRANCH  17  18
HETATM   18  C2  UNL     1      37.132  26.484  20.356  1.00  0.00     0.261 C
HETATM   19  N1  UNL     1      37.784  25.851  19.230  1.00  0.00    -0.232 N
ATOM     20  H1  UNL     1      37.248  25.251  18.603  1.00  0.00     0.197 HD
HETATM   21  O2  UNL     1      37.878  27.200  21.061  1.00  0.00    -0.267 OA
BRANCH  19  22
HETATM   22  O1  UNL     1      39.065  26.047  19.012  1.00  0.00    -0.282 OA
HETATM   23  C1  UNL     1      39.369  27.048  18.112  1.00  0.00     0.237 C
ENDBRANCH  19  22
ENDBRANCH  17  18
ENDBRANCH   1  17
BRANCH   1  24
HETATM   24  C5  UNL     1      33.545  26.115  21.145  1.00  0.00     0.178 C
BRANCH  24  25
HETATM   25  O3  UNL     1      34.067  24.804  20.983  1.00  0.00    -0.400 OA
ATOM     26  H3  UNL     1      34.157  24.619  20.055  1.00  0.00     0.209 HD
ENDBRANCH  24  25
ENDBRANCH   1  24
BRANCH  12  27
HETATM   27  O4  UNL     1      32.047  30.083  15.603  1.00  0.00    -0.396 OA
ATOM     28  H4  UNL     1      31.829  30.540  14.799  1.00  0.00     0.210 HD
ENDBRANCH  12  27
TORSDOF 6
ENDMDL