MODEL 3
REMARK VINA RESULT: -7.091106064      1.815      2.411
REMARK  6 active torsions:
REMARK  status: ('A' for Active; 'I' for Inactive)
REMARK    1  A    between atoms: C3_3  and  C4_4
REMARK    2  A    between atoms: C11_11  and  O1_12
REMARK    3  A    between atoms: C17_19  and  C18_20
REMARK    4  A    between atoms: C17_19  and  C19_25
REMARK    5  A    between atoms: C18_20  and  N1_21
REMARK    6  A    between atoms: C21_28  and  O2_29
ROOT
HETATM    1  C19 UNL     1      38.066  28.171  19.782  1.00  0.00     0.138 C
HETATM    2  C20 UNL     1      39.024  27.622  18.826  1.00  0.00     0.060 C
HETATM    3  N2  UNL     1      39.824  27.204  18.061  1.00  0.00    -0.197 NA
ENDROOT
BRANCH   1   4
HETATM    4  C17 UNL     1      36.643  28.079  19.270  1.00  0.00     0.033 C
HETATM    5  C15 UNL     1      35.689  27.602  20.331  1.00  0.00    -0.004 C
HETATM    6  C9  UNL     1      34.616  28.587  20.657  1.00  0.00    -0.065 C
HETATM    7  C13 UNL     1      36.393  27.043  21.536  1.00  0.00    -0.003 C
HETATM    8  C16 UNL     1      34.863  26.387  19.843  1.00  0.00     0.021 C
HETATM    9  C8  UNL     1      34.312  29.588  19.928  1.00  0.00    -0.066 C
HETATM   10  C10 UNL     1      33.822  28.383  21.936  1.00  0.00     0.067 C
HETATM   11  C7  UNL     1      35.030  29.894  18.636  1.00  0.00     0.045 C
HETATM   12  C22 UNL     1      33.227  30.631  20.166  1.00  0.00     0.069 C
HETATM   13  C6  UNL     1      34.061  29.551  17.552  1.00  0.00     0.016 C
HETATM   14  C21 UNL     1      36.373  29.376  18.624  1.00  0.00     0.138 C
HETATM   15  C5  UNL     1      32.738  30.171  17.707  1.00  0.00     0.035 C
HETATM   16  C4  UNL     1      32.214  30.450  19.088  1.00  0.00    -0.076 C
HETATM   17  C11 UNL     1      34.919  28.456  23.017  1.00  0.00     0.122 C
HETATM   18  C12 UNL     1      35.638  27.174  22.839  1.00  0.00     0.037 C
HETATM   19  C14 UNL     1      36.666  25.552  21.474  1.00  0.00     0.011 C
BRANCH  16  20
HETATM   20  C3  UNL     1      31.119  31.418  19.058  1.00  0.00    -0.001 C
HETATM   21  C2  UNL     1      29.874  31.261  18.830  1.00  0.00    -0.031 C
HETATM   22  C1  UNL     1      29.103  30.063  18.509  1.00  0.00     0.036 C
ENDBRANCH  16  20
BRANCH  14  23
HETATM   23  O2  UNL     1      37.223  30.372  19.184  1.00  0.00    -0.394 OA
ATOM     24  H2  UNL     1      37.649  30.824  18.464  1.00  0.00     0.210 HD
ENDBRANCH  14  23
BRANCH  17  25
HETATM   25  O1  UNL     1      35.665  29.601  22.900  1.00  0.00    -0.395 OA
ATOM     26  H1  UNL     1      36.095  29.822  23.717  1.00  0.00     0.210 HD
ENDBRANCH  17  25
BRANCH   4  27
HETATM   27  C18 UNL     1      36.643  26.991  18.186  1.00  0.00     0.243 C
BRANCH  27  28
HETATM   28  N1  UNL     1      36.712  27.501  16.852  1.00  0.00    -0.078 N
ATOM     29  H13 UNL     1      35.775  27.625  16.467  1.00  0.00     0.274 HD
ATOM     30  H12 UNL     1      37.028  28.470  16.855  1.00  0.00     0.274 HD
ATOM     31  H11 UNL     1      37.286  26.939  16.223  1.00  0.00     0.274 HD
ENDBRANCH  27  28
ENDBRANCH   4  27
ENDBRANCH   1   4
TORSDOF 6
ENDMDL