MODEL 2
REMARK VINA RESULT: -8.869445875      0.082      1.038
REMARK  5 active torsions:
REMARK  status: ('A' for Active; 'I' for Inactive)
REMARK    1  A    between atoms: C4_4  and  C5_5
REMARK    2  A    between atoms: C5_5  and  S1_6
REMARK    3  A    between atoms: S1_6  and  C6_7
REMARK    4  A    between atoms: C6_7  and  C7_8
REMARK    5  A    between atoms: C6_7  and  C13_14
ROOT
HETATM    1  C6  UNL     1     -12.586  58.235  38.132  1.00  0.00     0.113 C
ENDROOT
BRANCH   1   2
HETATM    2  S1  UNL     1     -14.207  58.702  37.422  1.00  0.00    -0.150 SA
BRANCH   2   3
HETATM    3  C5  UNL     1     -14.662  60.305  38.097  1.00  0.00     0.113 C
BRANCH   3   4
HETATM    4  C4  UNL     1     -14.275  61.430  37.188  1.00  0.00    -0.049 A
HETATM    5  C3  UNL     1     -13.558  62.531  37.593  1.00  0.00     0.008 A
HETATM    6  C2  UNL     1     -13.225  63.548  36.709  1.00  0.00     0.001 A
HETATM    7  C1  UNL     1     -13.599  63.499  35.384  1.00  0.00     0.000 A
HETATM    8  C20 UNL     1     -14.318  62.399  34.969  1.00  0.00     0.001 A
HETATM    9  C19 UNL     1     -14.652  61.389  35.840  1.00  0.00     0.008 A
ENDBRANCH   3   4
ENDBRANCH   2   3
ENDBRANCH   1   2
BRANCH   1  10
HETATM   10  C7  UNL     1     -11.656  58.126  36.975  1.00  0.00    -0.040 A
HETATM   11  C8  UNL     1     -11.763  59.000  35.937  1.00  0.00     0.009 A
HETATM   12  C9  UNL     1     -10.918  58.915  34.846  1.00  0.00     0.001 A
HETATM   13  C10 UNL     1      -9.942  57.958  34.759  1.00  0.00     0.000 A
HETATM   14  C11 UNL     1      -9.830  57.071  35.811  1.00  0.00     0.001 A
HETATM   15  C12 UNL     1     -10.679  57.152  36.910  1.00  0.00     0.009 A
ENDBRANCH   1  10
BRANCH   1  16
HETATM   16  C13 UNL     1     -12.689  57.015  38.936  1.00  0.00    -0.040 A
HETATM   17  C14 UNL     1     -13.527  55.965  38.651  1.00  0.00     0.009 A
HETATM   18  C15 UNL     1     -13.549  54.865  39.467  1.00  0.00     0.001 A
HETATM   19  C16 UNL     1     -12.754  54.760  40.584  1.00  0.00     0.000 A
HETATM   20  C17 UNL     1     -11.892  55.814  40.895  1.00  0.00     0.001 A
HETATM   21  C18 UNL     1     -11.883  56.911  40.065  1.00  0.00     0.009 A
ENDBRANCH   1  16
TORSDOF 5
ENDMDL