MODEL 1
REMARK VINA RESULT: -8.591445385      0.000      0.000
REMARK  5 active torsions:
REMARK  status: ('A' for Active; 'I' for Inactive)
REMARK    1  A    between atoms: C4_4  and  C5_5
REMARK    2  A    between atoms: C5_5  and  S1_6
REMARK    3  A    between atoms: S1_6  and  C6_7
REMARK    4  A    between atoms: C6_7  and  C7_8
REMARK    5  A    between atoms: C11_12  and  C12_13
ROOT
HETATM    1  C7  UNL     1     -10.934  59.169  35.164  1.00  0.00    -0.048 A
HETATM    2  C8  UNL     1      -9.986  58.445  34.485  1.00  0.00     0.008 A
HETATM    3  C9  UNL     1      -9.696  57.161  34.953  1.00  0.00     0.001 A
HETATM    4  C10 UNL     1     -10.344  56.669  36.040  1.00  0.00     0.012 A
HETATM    5  C11 UNL     1     -11.309  57.382  36.745  1.00  0.00    -0.025 A
HETATM    6  C18 UNL     1     -11.588  58.647  36.277  1.00  0.00     0.020 A
ENDROOT
BRANCH   1   7
HETATM    7  C6  UNL     1     -11.317  60.556  34.762  1.00  0.00     0.112 C
BRANCH   7   8
HETATM    8  S1  UNL     1     -12.588  60.529  33.487  1.00  0.00    -0.160 SA
BRANCH   8   9
HETATM    9  C5  UNL     1     -14.144  61.236  33.989  1.00  0.00     0.112 C
BRANCH   9  10
HETATM   10  C4  UNL     1     -14.538  60.681  35.310  1.00  0.00    -0.049 A
HETATM   11  C3  UNL     1     -15.095  59.447  35.452  1.00  0.00     0.008 A
HETATM   12  C2  UNL     1     -15.446  58.944  36.699  1.00  0.00     0.001 A
HETATM   13  C1  UNL     1     -15.212  59.740  37.802  1.00  0.00     0.000 A
HETATM   14  C20 UNL     1     -14.650  60.995  37.695  1.00  0.00     0.001 A
HETATM   15  C19 UNL     1     -14.324  61.442  36.456  1.00  0.00     0.008 A
ENDBRANCH   9  10
ENDBRANCH   8   9
ENDBRANCH   7   8
ENDBRANCH   1   7
BRANCH   5  16
HETATM   16  C12 UNL     1     -11.964  56.791  37.903  1.00  0.00    -0.026 A
HETATM   17  C13 UNL     1     -11.368  56.797  39.165  1.00  0.00     0.012 A
HETATM   18  C14 UNL     1     -11.989  56.237  40.261  1.00  0.00     0.001 A
HETATM   19  C15 UNL     1     -13.233  55.645  40.143  1.00  0.00     0.000 A
HETATM   20  C16 UNL     1     -13.840  55.628  38.907  1.00  0.00     0.001 A
HETATM   21  C17 UNL     1     -13.202  56.196  37.814  1.00  0.00     0.012 A
ENDBRANCH   5  16
TORSDOF 5
ENDMDL