MODEL 1
REMARK VINA RESULT: -9.028274898      0.000      0.000
REMARK  5 active torsions:
REMARK  status: ('A' for Active; 'I' for Inactive)
REMARK    1  A    between atoms: C4_4  and  C5_5
REMARK    2  A    between atoms: C5_5  and  C6_6
REMARK    3  A    between atoms: C6_6  and  C7_7
REMARK    4  A    between atoms: C7_7  and  C8_8
REMARK    5  A    between atoms: C11_11  and  C12_12
ROOT
HETATM    1  C8  UNL     1     -12.252  54.959  37.725  1.00  0.00    -0.017 A
HETATM    2  C9  UNL     1     -13.378  55.556  38.217  1.00  0.00     0.016 A
HETATM    3  C10 UNL     1     -13.534  56.865  38.001  1.00  0.00     0.021 A
HETATM    4  C11 UNL     1     -12.548  57.509  37.299  1.00  0.00     0.015 A
HETATM    5  S1  UNL     1     -11.436  56.250  36.969  1.00  0.00    -0.094 SA
ENDROOT
BRANCH   1   6
HETATM    6  C7  UNL     1     -11.849  53.508  37.836  1.00  0.00     0.046 C
BRANCH   6   7
HETATM    7  C6  UNL     1     -12.654  52.846  38.946  1.00  0.00     0.010 C
BRANCH   7   8
HETATM    8  C5  UNL     1     -11.761  52.676  40.154  1.00  0.00     0.039 C
BRANCH   8   9
HETATM    9  C4  UNL     1     -12.639  52.284  41.289  1.00  0.00    -0.058 A
HETATM   10  C3  UNL     1     -12.229  52.470  42.608  1.00  0.00     0.007 A
HETATM   11  C2  UNL     1     -13.020  52.118  43.672  1.00  0.00     0.001 A
HETATM   12  C1  UNL     1     -14.253  51.565  43.431  1.00  0.00     0.000 A
HETATM   13  C19 UNL     1     -14.692  51.366  42.127  1.00  0.00     0.001 A
HETATM   14  C18 UNL     1     -13.870  51.732  41.084  1.00  0.00     0.007 A
ENDBRANCH   8   9
ENDBRANCH   7   8
ENDBRANCH   6   7
ENDBRANCH   1   6
BRANCH   4  15
HETATM   15  C12 UNL     1     -12.470  58.934  36.925  1.00  0.00    -0.019 A
HETATM   16  C13 UNL     1     -11.934  59.284  35.721  1.00  0.00     0.013 A
HETATM   17  C14 UNL     1     -11.852  60.630  35.350  1.00  0.00     0.001 A
HETATM   18  C15 UNL     1     -12.308  61.622  36.188  1.00  0.00     0.000 A
HETATM   19  C16 UNL     1     -12.851  61.251  37.413  1.00  0.00     0.001 A
HETATM   20  C17 UNL     1     -12.933  59.907  37.783  1.00  0.00     0.013 A
ENDBRANCH   4  15
TORSDOF 5
ENDMDL