MODEL 4
REMARK VINA RESULT: -8.370459536      4.318      7.282
REMARK  5 active torsions:
REMARK  status: ('A' for Active; 'I' for Inactive)
REMARK    1  A    between atoms: C4_4  and  C5_5
REMARK    2  A    between atoms: C5_5  and  C6_6
REMARK    3  A    between atoms: C6_6  and  C7_7
REMARK    4  A    between atoms: C7_7  and  C8_8
REMARK    5  A    between atoms: C7_7  and  C14_14
ROOT
HETATM    1  C7  UNL     1     -13.013  53.671  40.293  1.00  0.00     0.059 C
ENDROOT
BRANCH   1   2
HETATM    2  C6  UNL     1     -14.149  54.354  39.612  1.00  0.00     0.019 C
BRANCH   2   3
HETATM    3  C5  UNL     1     -13.931  55.790  39.271  1.00  0.00     0.039 C
BRANCH   3   4
HETATM    4  C4  UNL     1     -12.615  56.109  38.696  1.00  0.00    -0.058 A
HETATM    5  C3  UNL     1     -12.389  55.828  37.344  1.00  0.00     0.007 A
HETATM    6  C2  UNL     1     -11.164  56.102  36.762  1.00  0.00     0.001 A
HETATM    7  C1  UNL     1     -10.139  56.660  37.498  1.00  0.00     0.000 A
HETATM    8  C19 UNL     1     -10.349  56.941  38.834  1.00  0.00     0.001 A
HETATM    9  C18 UNL     1     -11.587  56.656  39.396  1.00  0.00     0.007 A
ENDBRANCH   3   4
ENDBRANCH   2   3
ENDBRANCH   1   2
BRANCH   1  10
HETATM   10  C8  UNL     1     -13.416  52.918  41.498  1.00  0.00    -0.049 A
HETATM   11  C9  UNL     1     -12.515  52.652  42.496  1.00  0.00     0.008 A
HETATM   12  C10 UNL     1     -12.914  51.936  43.632  1.00  0.00     0.001 A
HETATM   13  C11 UNL     1     -14.203  51.493  43.766  1.00  0.00     0.000 A
HETATM   14  C12 UNL     1     -15.113  51.757  42.766  1.00  0.00     0.001 A
HETATM   15  C13 UNL     1     -14.708  52.455  41.668  1.00  0.00     0.008 A
ENDBRANCH   1  10
BRANCH   1  16
HETATM   16  C14 UNL     1     -12.355  52.668  39.376  1.00  0.00    -0.009 A
HETATM   17  C15 UNL     1     -12.900  51.507  38.902  1.00  0.00     0.016 A
HETATM   18  C16 UNL     1     -12.128  50.762  38.092  1.00  0.00     0.008 A
HETATM   19  C17 UNL     1     -10.871  51.224  37.812  1.00  0.00     0.050 A
HETATM   20  S1  UNL     1     -10.803  52.687  38.687  1.00  0.00    -0.106 SA
ENDBRANCH   1  16
TORSDOF 5
ENDMDL