MODEL 4
REMARK VINA RESULT: -8.957299743      2.492      7.214
REMARK  7 active torsions:
REMARK  status: ('A' for Active; 'I' for Inactive)
REMARK    1  A    between atoms: N1_1  and  N2_4
REMARK    2  A    between atoms: N2_4  and  N3_5
REMARK    3  A    between atoms: N3_5  and  C1_7
REMARK    4  A    between atoms: C10_16  and  C11_17
REMARK    5  A    between atoms: C11_17  and  C12_18
REMARK    6  A    between atoms: C12_18  and  C13_19
REMARK    7  A    between atoms: C13_19  and  C14_20
ROOT
HETATM    1  C1  UNL     1     -12.293  56.707  39.175  1.00  0.00     0.145 C
HETATM    2  C2  UNL     1     -12.903  57.929  38.669  1.00  0.00     0.002 C
HETATM    3  C3  UNL     1     -12.616  58.498  37.536  1.00  0.00     0.010 C
HETATM    4  C4  UNL     1     -11.609  57.866  36.688  1.00  0.00    -0.030 A
HETATM    5  C5  UNL     1     -11.159  58.568  35.551  1.00  0.00     0.012 A
HETATM    6  C6  UNL     1     -10.105  58.109  34.800  1.00  0.00     0.001 A
HETATM    7  C7  UNL     1      -9.487  56.939  35.179  1.00  0.00     0.001 A
HETATM    8  C8  UNL     1      -9.920  56.227  36.303  1.00  0.00     0.008 A
HETATM    9  C9  UNL     1     -10.993  56.707  37.049  1.00  0.00    -0.041 A
HETATM   10  C10 UNL     1     -11.554  55.871  38.163  1.00  0.00     0.048 C
ENDROOT
BRANCH  10  11
HETATM   11  C11 UNL     1     -12.568  54.887  37.618  1.00  0.00     0.012 C
BRANCH  11  12
HETATM   12  C12 UNL     1     -12.360  53.463  37.842  1.00  0.00     0.005 C
BRANCH  12  13
HETATM   13  C13 UNL     1     -11.497  53.056  38.998  1.00  0.00     0.038 C
BRANCH  13  14
HETATM   14  C14 UNL     1     -12.292  52.626  40.189  1.00  0.00    -0.058 A
HETATM   15  C15 UNL     1     -13.515  52.052  40.020  1.00  0.00     0.007 A
HETATM   16  C16 UNL     1     -14.287  51.634  41.108  1.00  0.00     0.001 A
HETATM   17  C17 UNL     1     -13.769  51.821  42.368  1.00  0.00     0.000 A
HETATM   18  C18 UNL     1     -12.547  52.394  42.543  1.00  0.00     0.001 A
HETATM   19  C19 UNL     1     -11.808  52.796  41.470  1.00  0.00     0.007 A
ENDBRANCH  13  14
ENDBRANCH  12  13
ENDBRANCH  11  12
ENDBRANCH  10  11
BRANCH   1  20
HETATM   20  N3  UNL     1     -11.337  57.091  40.224  1.00  0.00    -0.244 N
ATOM     21  H3  UNL     1     -10.337  57.082  40.023  1.00  0.00     0.197 HD
BRANCH  20  22
HETATM   22  N2  UNL     1     -11.727  57.422  41.335  1.00  0.00    -0.248 NA
BRANCH  22  23
HETATM   23  N1  UNL     1     -12.306  57.785  42.343  1.00  0.00    -0.261 N
ATOM     24  H12 UNL     1     -12.903  56.962  42.270  1.00  0.00     0.193 HD
ATOM     25  H11 UNL     1     -12.676  58.230  43.184  1.00  0.00     0.193 HD
ENDBRANCH  22  23
ENDBRANCH  20  22
ENDBRANCH   1  20
TORSDOF 7
ENDMDL