MODEL 2
REMARK VINA RESULT: -9.613703246      0.471      1.544
REMARK  5 active torsions:
REMARK  status: ('A' for Active; 'I' for Inactive)
REMARK    1  A    between atoms: C4_4  and  C5_5
REMARK    2  A    between atoms: C5_5  and  S1_6
REMARK    3  A    between atoms: S1_6  and  C6_7
REMARK    4  A    between atoms: C6_7  and  C7_8
REMARK    5  A    between atoms: C10_11  and  C11_12
ROOT
HETATM    1  C7  UNL     1     -11.488  54.496  37.528  1.00  0.00    -0.049 A
HETATM    2  C8  UNL     1     -10.487  55.333  37.072  1.00  0.00     0.009 A
HETATM    3  C9  UNL     1     -10.681  56.669  36.845  1.00  0.00     0.013 A
HETATM    4  C10 UNL     1     -11.920  57.255  37.070  1.00  0.00    -0.026 A
HETATM    5  C17 UNL     1     -12.925  56.432  37.523  1.00  0.00     0.013 A
HETATM    6  C18 UNL     1     -12.716  55.076  37.749  1.00  0.00     0.009 A
ENDROOT
BRANCH   1   7
HETATM    7  C6  UNL     1     -11.197  53.045  37.749  1.00  0.00     0.112 C
BRANCH   7   8
HETATM    8  S1  UNL     1     -12.219  52.299  39.004  1.00  0.00    -0.160 SA
BRANCH   8   9
HETATM    9  C5  UNL     1     -11.891  52.793  40.681  1.00  0.00     0.112 C
BRANCH   9  10
HETATM   10  C4  UNL     1     -12.865  52.261  41.674  1.00  0.00    -0.049 A
HETATM   11  C3  UNL     1     -12.705  52.287  43.029  1.00  0.00     0.008 A
HETATM   12  C2  UNL     1     -13.697  51.771  43.830  1.00  0.00     0.001 A
HETATM   13  C1  UNL     1     -14.844  51.231  43.295  1.00  0.00     0.000 A
HETATM   14  C20 UNL     1     -15.003  51.206  41.916  1.00  0.00     0.001 A
HETATM   15  C19 UNL     1     -14.022  51.717  41.126  1.00  0.00     0.008 A
ENDBRANCH   9  10
ENDBRANCH   8   9
ENDBRANCH   7   8
ENDBRANCH   1   7
BRANCH   4  16
HETATM   16  C11 UNL     1     -12.134  58.687  36.834  1.00  0.00    -0.026 A
HETATM   17  C12 UNL     1     -11.718  59.274  35.649  1.00  0.00     0.012 A
HETATM   18  C13 UNL     1     -11.894  60.611  35.372  1.00  0.00     0.001 A
HETATM   19  C14 UNL     1     -12.512  61.395  36.318  1.00  0.00     0.000 A
HETATM   20  C15 UNL     1     -12.935  60.841  37.505  1.00  0.00     0.001 A
HETATM   21  C16 UNL     1     -12.749  59.483  37.770  1.00  0.00     0.012 A
ENDBRANCH   4  16
TORSDOF 5
ENDMDL