MODEL 2
REMARK VINA RESULT: -9.108300659      0.073      1.058
REMARK  5 active torsions:
REMARK  status: ('A' for Active; 'I' for Inactive)
REMARK    1  A    between atoms: C4_4  and  C5_5
REMARK    2  A    between atoms: C5_5  and  C6_6
REMARK    3  A    between atoms: C6_6  and  C7_7
REMARK    4  A    between atoms: C7_7  and  C8_8
REMARK    5  A    between atoms: C11_11  and  C12_12
ROOT
HETATM    1  C8  UNL     1     -11.886  54.855  37.534  1.00  0.00    -0.058 A
HETATM    2  C9  UNL     1     -10.834  55.580  37.039  1.00  0.00     0.008 A
HETATM    3  C10 UNL     1     -10.997  56.930  36.813  1.00  0.00     0.013 A
HETATM    4  C11 UNL     1     -12.185  57.583  37.068  1.00  0.00    -0.025 A
HETATM    5  C16 UNL     1     -13.225  56.829  37.566  1.00  0.00     0.013 A
HETATM    6  C17 UNL     1     -13.071  55.470  37.796  1.00  0.00     0.008 A
ENDROOT
BRANCH   1   7
HETATM    7  C7  UNL     1     -11.739  53.401  37.786  1.00  0.00     0.039 C
BRANCH   7   8
HETATM    8  C6  UNL     1     -12.577  53.037  38.980  1.00  0.00     0.009 C
BRANCH   8   9
HETATM    9  C5  UNL     1     -11.735  52.784  40.211  1.00  0.00     0.039 C
BRANCH   9  10
HETATM   10  C4  UNL     1     -12.653  52.333  41.283  1.00  0.00    -0.058 A
HETATM   11  C3  UNL     1     -12.328  52.455  42.623  1.00  0.00     0.007 A
HETATM   12  C2  UNL     1     -13.180  52.035  43.615  1.00  0.00     0.001 A
HETATM   13  C1  UNL     1     -14.398  51.473  43.326  1.00  0.00     0.000 A
HETATM   14  C19 UNL     1     -14.738  51.345  41.984  1.00  0.00     0.001 A
HETATM   15  C18 UNL     1     -13.873  51.771  40.973  1.00  0.00     0.007 A
ENDBRANCH   9  10
ENDBRANCH   8   9
ENDBRANCH   7   8
ENDBRANCH   1   7
BRANCH   4  16
HETATM   16  C12 UNL     1     -12.324  59.046  36.811  1.00  0.00    -0.019 A
HETATM   17  C13 UNL     1     -12.828  59.887  37.724  1.00  0.00     0.020 A
HETATM   18  C14 UNL     1     -12.908  61.211  37.378  1.00  0.00     0.050 A
HETATM   19  S1  UNL     1     -12.279  61.234  35.794  1.00  0.00    -0.113 SA
HETATM   20  C15 UNL     1     -11.933  59.578  35.611  1.00  0.00     0.061 A
ENDBRANCH   4  16
TORSDOF 5
ENDMDL