MODEL 5
REMARK VINA RESULT: -8.245313419      4.953      7.491
REMARK  5 active torsions:
REMARK  status: ('A' for Active; 'I' for Inactive)
REMARK    1  A    between atoms: C4_4  and  C5_5
REMARK    2  A    between atoms: C5_5  and  C6_6
REMARK    3  A    between atoms: C6_6  and  C7_7
REMARK    4  A    between atoms: C7_7  and  S1_8
REMARK    5  A    between atoms: S1_8  and  C8_9
ROOT
HETATM    1  C8  UNL     1     -11.736  55.549  37.635  1.00  0.00     0.011 A
HETATM    2  C9  UNL     1     -12.919  55.737  38.318  1.00  0.00     0.019 A
HETATM    3  C10 UNL     1     -13.563  56.948  38.154  1.00  0.00     0.002 A
HETATM    4  C11 UNL     1     -13.022  57.926  37.330  1.00  0.00     0.012 A
HETATM    5  C12 UNL     1     -11.834  57.696  36.664  1.00  0.00    -0.025 A
HETATM    6  C13 UNL     1     -11.273  58.648  35.839  1.00  0.00     0.012 A
HETATM    7  C14 UNL     1     -10.076  58.415  35.171  1.00  0.00     0.001 A
HETATM    8  C15 UNL     1      -9.407  57.215  35.312  1.00  0.00     0.001 A
HETATM    9  C16 UNL     1      -9.971  56.263  36.138  1.00  0.00     0.013 A
HETATM   10  C17 UNL     1     -11.172  56.495  36.809  1.00  0.00    -0.009 A
ENDROOT
BRANCH   1  11
HETATM   11  S1  UNL     1     -10.862  53.998  37.810  1.00  0.00    -0.129 SA
BRANCH  11  12
HETATM   12  C7  UNL     1     -12.135  52.693  37.708  1.00  0.00     0.080 C
BRANCH  12  13
HETATM   13  C6  UNL     1     -12.123  51.848  38.974  1.00  0.00     0.015 C
BRANCH  13  14
HETATM   14  C5  UNL     1     -11.939  52.728  40.172  1.00  0.00     0.039 C
BRANCH  14  15
HETATM   15  C4  UNL     1     -12.819  52.250  41.288  1.00  0.00    -0.058 A
HETATM   16  C3  UNL     1     -12.438  52.392  42.598  1.00  0.00     0.007 A
HETATM   17  C2  UNL     1     -13.280  51.944  43.592  1.00  0.00     0.001 A
HETATM   18  C1  UNL     1     -14.501  51.353  43.310  1.00  0.00     0.000 A
HETATM   19  C19 UNL     1     -14.845  51.229  41.983  1.00  0.00     0.001 A
HETATM   20  C18 UNL     1     -14.021  51.669  40.971  1.00  0.00     0.007 A
ENDBRANCH  14  15
ENDBRANCH  13  14
ENDBRANCH  12  13
ENDBRANCH  11  12
ENDBRANCH   1  11
TORSDOF 5
ENDMDL