MODEL 2
REMARK VINA RESULT: -8.936552347      0.114      1.067
REMARK  5 active torsions:
REMARK  status: ('A' for Active; 'I' for Inactive)
REMARK    1  A    between atoms: C4_4  and  C5_5
REMARK    2  A    between atoms: C8_8  and  C9_9
REMARK    3  A    between atoms: C9_9  and  C10_10
REMARK    4  A    between atoms: C10_10  and  C11_11
REMARK    5  A    between atoms: C11_11  and  C12_12
ROOT
HETATM    1  C5  UNL     1     -11.957  57.304  37.059  1.00  0.00    -0.026 A
HETATM    2  C6  UNL     1     -12.996  56.552  37.567  1.00  0.00     0.013 A
HETATM    3  C7  UNL     1     -12.867  55.207  37.838  1.00  0.00     0.008 A
HETATM    4  C8  UNL     1     -11.663  54.535  37.611  1.00  0.00    -0.058 A
HETATM    5  C16 UNL     1     -10.624  55.278  37.106  1.00  0.00     0.008 A
HETATM    6  C17 UNL     1     -10.769  56.644  36.834  1.00  0.00     0.013 A
ENDROOT
BRANCH   4   7
HETATM    7  C9  UNL     1     -11.541  53.076  37.921  1.00  0.00     0.039 C
BRANCH   7   8
HETATM    8  C10 UNL     1     -11.792  52.762  39.351  1.00  0.00     0.010 C
BRANCH   8   9
HETATM    9  C11 UNL     1     -12.996  51.982  39.693  1.00  0.00     0.046 C
BRANCH   9  10
HETATM   10  C12 UNL     1     -13.282  51.940  41.162  1.00  0.00    -0.018 A
HETATM   11  C13 UNL     1     -12.422  52.332  42.153  1.00  0.00     0.015 A
HETATM   12  C14 UNL     1     -12.843  52.212  43.412  1.00  0.00     0.008 A
HETATM   13  C15 UNL     1     -14.104  51.707  43.618  1.00  0.00     0.050 A
HETATM   14  S1  UNL     1     -14.653  51.418  42.034  1.00  0.00    -0.106 SA
ENDBRANCH   9  10
ENDBRANCH   8   9
ENDBRANCH   7   8
ENDBRANCH   4   7
BRANCH   1  15
HETATM   15  C4  UNL     1     -12.111  58.729  36.776  1.00  0.00    -0.026 A
HETATM   16  C3  UNL     1     -11.678  59.262  35.578  1.00  0.00     0.012 A
HETATM   17  C2  UNL     1     -11.816  60.606  35.294  1.00  0.00     0.001 A
HETATM   18  C1  UNL     1     -12.397  61.448  36.220  1.00  0.00     0.000 A
HETATM   19  C19 UNL     1     -12.844  60.953  37.430  1.00  0.00     0.001 A
HETATM   20  C18 UNL     1     -12.687  59.606  37.673  1.00  0.00     0.012 A
ENDBRANCH   1  15
TORSDOF 5
ENDMDL