MODEL 2
REMARK VINA RESULT: -9.111090198      0.056      1.043
REMARK  5 active torsions:
REMARK  status: ('A' for Active; 'I' for Inactive)
REMARK    1  A    between atoms: C4_4  and  C5_5
REMARK    2  A    between atoms: C5_5  and  S1_6
REMARK    3  A    between atoms: S1_6  and  C6_7
REMARK    4  A    between atoms: C6_7  and  C7_8
REMARK    5  A    between atoms: C12_13  and  C13_14
ROOT
HETATM    1  C7  UNL     1     -12.770  53.819  39.390  1.00  0.00    -0.038 A
HETATM    2  C8  UNL     1     -12.378  54.064  38.091  1.00  0.00     0.009 A
HETATM    3  C9  UNL     1     -12.025  53.012  37.286  1.00  0.00     0.001 A
HETATM    4  C10 UNL     1     -12.050  51.712  37.731  1.00  0.00     0.001 A
HETATM    5  C11 UNL     1     -12.443  51.502  39.022  1.00  0.00     0.013 A
HETATM    6  C12 UNL     1     -12.815  52.539  39.889  1.00  0.00    -0.019 A
ENDROOT
BRANCH   1   7
HETATM    7  C6  UNL     1     -13.161  54.957  40.294  1.00  0.00     0.113 C
BRANCH   7   8
HETATM    8  S1  UNL     1     -11.726  55.723  41.087  1.00  0.00    -0.160 SA
BRANCH   8   9
HETATM    9  C5  UNL     1     -11.543  57.438  40.581  1.00  0.00     0.112 C
BRANCH   9  10
HETATM   10  C4  UNL     1     -11.366  57.531  39.107  1.00  0.00    -0.049 A
HETATM   11  C3  UNL     1     -12.206  58.267  38.301  1.00  0.00     0.008 A
HETATM   12  C2  UNL     1     -11.993  58.319  36.931  1.00  0.00     0.001 A
HETATM   13  C1  UNL     1     -10.929  57.626  36.371  1.00  0.00     0.000 A
HETATM   14  C20 UNL     1     -10.087  56.890  37.172  1.00  0.00     0.001 A
HETATM   15  C19 UNL     1     -10.309  56.847  38.531  1.00  0.00     0.008 A
ENDBRANCH   9  10
ENDBRANCH   8   9
ENDBRANCH   7   8
ENDBRANCH   1   7
BRANCH   6  16
HETATM   16  C13 UNL     1     -13.244  52.193  41.247  1.00  0.00    -0.025 A
HETATM   17  C14 UNL     1     -14.526  51.681  41.403  1.00  0.00     0.012 A
HETATM   18  C15 UNL     1     -15.033  51.351  42.638  1.00  0.00     0.001 A
HETATM   19  C16 UNL     1     -14.273  51.522  43.773  1.00  0.00     0.000 A
HETATM   20  C17 UNL     1     -12.987  52.032  43.646  1.00  0.00     0.001 A
HETATM   21  C18 UNL     1     -12.506  52.356  42.383  1.00  0.00     0.012 A
ENDBRANCH   6  16
TORSDOF 5
ENDMDL