MODEL 1
REMARK VINA RESULT: -7.506196925      0.000      0.000
REMARK  8 active torsions:
REMARK  status: ('A' for Active; 'I' for Inactive)
REMARK    1  A    between atoms: C6_6  and  O1_7
REMARK    2  A    between atoms: O1_7  and  C7_8
REMARK    3  A    between atoms: C7_8  and  C8_9
REMARK    4  A    between atoms: C8_9  and  O2_10
REMARK    5  A    between atoms: C10_13  and  C11_14
REMARK    6  A    between atoms: C11_14  and  C13_16
REMARK       I    between atoms: N1_20  and  C14_21
REMARK    7  A    between atoms: C14_21  and  O4_23
REMARK    8  A    between atoms: O4_23  and  C15_24
ROOT
HETATM    1  C1  UNL     1      21.085   5.748  11.371  1.00  0.00     0.014 C
HETATM    2  C2  UNL     1      19.777   5.813  11.548  1.00  0.00    -0.084 C
HETATM    3  C3  UNL     1      18.932   5.991  10.349  1.00  0.00     0.059 C
HETATM    4  C4  UNL     1      17.550   5.506  10.665  1.00  0.00     0.097 C
HETATM    5  C5  UNL     1      17.710   4.383  11.667  1.00  0.00     0.066 C
HETATM    6  C6  UNL     1      17.809   5.168  12.971  1.00  0.00     0.087 C
HETATM    7  C9  UNL     1      19.197   5.708  12.936  1.00  0.00     0.073 C
HETATM    8  C10 UNL     1      16.712   6.139  12.731  1.00  0.00     0.137 C
HETATM    9  N1  UNL     1      16.883   6.586  11.373  1.00  0.00    -0.315 N
HETATM   10  C14 UNL     1      16.522   7.783  10.702  1.00  0.00     0.364 C
HETATM   11  O3  UNL     1      16.791   7.887   9.450  1.00  0.00    -0.238 OA
ENDROOT
BRANCH   8  12
HETATM   12  C11 UNL     1      16.332   7.167  13.679  1.00  0.00     0.115 C
HETATM   13  C12 UNL     1      17.381   7.660  14.633  1.00  0.00     0.021 C
BRANCH  12  14
HETATM   14  C13 UNL     1      15.102   6.894  14.548  1.00  0.00     0.393 C
HETATM   15  F1  UNL     1      14.682   5.595  14.495  1.00  0.00    -0.171 F
HETATM   16  F2  UNL     1      14.001   7.597  13.945  1.00  0.00    -0.171 F
HETATM   17  F3  UNL     1      15.161   7.460  15.788  1.00  0.00    -0.171 F
ENDBRANCH  12  14
ENDBRANCH   8  12
BRANCH  10  18
HETATM   18  O4  UNL     1      15.899   8.883  11.239  1.00  0.00    -0.294 OA
BRANCH  18  19
HETATM   19  C15 UNL     1      14.769   9.502  10.694  1.00  0.00     0.061 C
HETATM   20  C16 UNL     1      15.149  10.918  10.273  1.00  0.00     0.046 C
HETATM   21  C17 UNL     1      13.627   9.610  11.663  1.00  0.00     0.046 C
HETATM   22  C18 UNL     1      14.254   8.809   9.448  1.00  0.00     0.046 C
ENDBRANCH  18  19
ENDBRANCH  10  18
BRANCH   6  23
HETATM   23  O1  UNL     1      17.489   4.362  13.967  1.00  0.00    -0.376 OA
BRANCH  23  24
HETATM   24  C7  UNL     1      16.868   3.226  14.063  1.00  0.00     0.195 C
BRANCH  24  25
HETATM   25  C8  UNL     1      16.737   2.582  15.399  1.00  0.00     0.190 C
BRANCH  25  26
HETATM   26  O2  UNL     1      17.815   3.037  16.231  1.00  0.00    -0.399 OA
ATOM     27  H2  UNL     1      17.462   3.269  17.082  1.00  0.00     0.209 HD
ENDBRANCH  25  26
ENDBRANCH  24  25
ENDBRANCH  23  24
ENDBRANCH   6  23
TORSDOF 8
ENDMDL