MODEL 1
REMARK VINA RESULT: -8.249335858      0.000      0.000
REMARK  4 active torsions:
REMARK  status: ('A' for Active; 'I' for Inactive)
REMARK    1  A    between atoms: C2_2  and  C3_5
REMARK    2  A    between atoms: C6_8  and  C7_9
REMARK    3  A    between atoms: C7_9  and  N1_10
REMARK    4  A    between atoms: C16_21  and  C17_22
ROOT
HETATM    1  C3  UNL     1      17.257   2.985  12.166  1.00  0.00     0.007 C
HETATM    2  C4  UNL     1      15.966   3.414  11.588  1.00  0.00     0.020 C
HETATM    3  C5  UNL     1      18.268   4.111  12.396  1.00  0.00     0.020 C
HETATM    4  C6  UNL     1      17.542   5.198  13.086  1.00  0.00     0.015 C
HETATM    5  C15 UNL     1      16.631   4.796  14.198  1.00  0.00     0.022 C
HETATM    6  C16 UNL     1      16.462   3.369  14.513  1.00  0.00     0.088 C
HETATM    7  C18 UNL     1      17.051   2.393  13.546  1.00  0.00     0.029 C
ENDROOT
BRANCH   4   8
HETATM    8  C7  UNL     1      18.371   6.405  13.431  1.00  0.00     0.277 C
BRANCH   8   9
HETATM    9  N1  UNL     1      18.510   7.408  12.416  1.00  0.00     0.089 N
HETATM   10  C8  UNL     1      17.520   8.440  12.795  1.00  0.00     0.277 C
HETATM   11  C9  UNL     1      16.147   8.033  12.332  1.00  0.00     0.099 C
HETATM   12  C10 UNL     1      16.093   8.514  10.868  1.00  0.00     0.167 C
HETATM   13  C11 UNL     1      17.413   8.088  10.287  1.00  0.00     0.099 C
HETATM   14  O1  UNL     1      15.017   8.035  10.181  1.00  0.00    -0.353 OA
HETATM   15  O2  UNL     1      15.986   9.899  10.943  1.00  0.00    -0.353 OA
HETATM   16  C12 UNL     1      18.061   6.965  11.100  1.00  0.00     0.277 C
HETATM   17  C13 UNL     1      14.185   9.083   9.848  1.00  0.00     0.197 C
HETATM   18  C14 UNL     1      14.652  10.193  10.754  1.00  0.00     0.197 C
ENDBRANCH   8   9
ENDBRANCH   4   8
BRANCH   1  19
HETATM   19  C2  UNL     1      17.943   1.922  11.316  1.00  0.00     0.182 C
HETATM   20  C1  UNL     1      19.357   2.259  10.972  1.00  0.00     0.071 C
HETATM   21  F1  UNL     1      17.861   0.683  11.927  1.00  0.00    -0.225 F
HETATM   22 CL1  UNL     1      17.037   1.778   9.768  1.00  0.00    -0.082 Cl
ENDBRANCH   1  19
BRANCH   6  23
HETATM   23  C17 UNL     1      16.980   3.045  15.861  1.00  0.00     0.177 C
HETATM   24  O3  UNL     1      18.083   3.497  16.216  1.00  0.00    -0.648 OA
HETATM   25  O4  UNL     1      16.250   2.257  16.705  1.00  0.00    -0.648 OA
ENDBRANCH   6  23
TORSDOF 4
ENDMDL