MODEL 3
REMARK VINA RESULT: -7.182042601      3.685      4.265
REMARK  3 active torsions:
REMARK  status: ('A' for Active; 'I' for Inactive)
REMARK    1  A    between atoms: C1_2  and  C2_3
REMARK       I    between atoms: C1_2  and  N2_15
REMARK    2  A    between atoms: C7_12  and  C8_13
REMARK    3  A    between atoms: N2_15  and  C9_17
ROOT
HETATM    1  O1  UNL     1      18.417   7.121  12.717  1.00  0.00    -0.269 OA
HETATM    2  C1  UNL     1      17.491   6.396  12.177  1.00  0.00     0.243 C
HETATM    3  N2  UNL     1      16.757   5.626  13.094  1.00  0.00    -0.347 N
ATOM      4  H2  UNL     1      16.003   5.018  12.774  1.00  0.00     0.163 HD
ENDROOT
BRANCH   2   5
HETATM    5  C2  UNL     1      17.347   6.474  10.769  1.00  0.00     0.099 C
HETATM    6  C3  UNL     1      17.118   7.539   9.999  1.00  0.00     0.025 A
HETATM    7  N1  UNL     1      16.986   8.813  10.572  1.00  0.00    -0.367 N
HETATM    8  C7  UNL     1      17.007   7.379   8.532  1.00  0.00     0.096 A
HETATM    9  C4  UNL     1      16.812   9.890   9.915  1.00  0.00     0.113 A
ATOM     10  H1  UNL     1      17.033   8.882  11.589  1.00  0.00     0.165 HD
HETATM   11  C5  UNL     1      16.743   9.774   8.446  1.00  0.00     0.067 A
HETATM   12 CL1  UNL     1      16.510  11.263   7.532  1.00  0.00    -0.081 Cl
HETATM   13  C6  UNL     1      16.848   8.628   7.832  1.00  0.00     0.045 A
HETATM   14 CL2  UNL     1      16.744   8.693   6.050  1.00  0.00    -0.086 Cl
BRANCH   8  15
HETATM   15  C8  UNL     1      15.955   6.343   8.169  1.00  0.00     0.131 C
HETATM   16 CL3  UNL     1      14.319   6.968   8.374  1.00  0.00    -0.129 Cl
ENDBRANCH   8  15
ENDBRANCH   2   5
BRANCH   3  17
HETATM   17  C9  UNL     1      17.094   5.711  14.524  1.00  0.00     0.136 C
HETATM   18  C10 UNL     1      16.492   6.947  15.141  1.00  0.00     0.032 C
HETATM   19  C11 UNL     1      14.975   6.877  15.127  1.00  0.00     0.007 C
HETATM   20  C12 UNL     1      14.588   5.806  16.124  1.00  0.00     0.041 C
HETATM   21  C13 UNL     1      15.419   4.581  15.991  1.00  0.00    -0.031 A
HETATM   22  C14 UNL     1      14.944   3.455  16.675  1.00  0.00     0.027 A
HETATM   23  C16 UNL     1      16.578   4.529  15.254  1.00  0.00     0.054 A
HETATM   24  C15 UNL     1      15.670   2.288  16.592  1.00  0.00     0.107 A
HETATM   25  N3  UNL     1      16.793   2.294  15.858  1.00  0.00    -0.312 N
HETATM   26  N4  UNL     1      17.240   3.360  15.212  1.00  0.00    -0.303 N
ATOM     27  H3  UNL     1      17.332   1.431  15.794  1.00  0.00     0.186 HD
ATOM     28  H4  UNL     1      18.103   3.294  14.673  1.00  0.00     0.186 HD
ENDBRANCH   3  17
TORSDOF 3
ENDMDL