MODEL 4
REMARK VINA RESULT: -7.534531228      3.248      6.200
REMARK  4 active torsions:
REMARK  status: ('A' for Active; 'I' for Inactive)
REMARK       I    between atoms: N1_8  and  C6_9
REMARK    1  A    between atoms: C6_9  and  O3_11
REMARK    2  A    between atoms: O3_11  and  C7_12
REMARK    3  A    between atoms: C9_14  and  C10_15
REMARK    4  A    between atoms: C10_15  and  C11_16
ROOT
HETATM    1  C7  UNL     1      17.188   5.932  12.733  1.00  0.00     0.103 A
HETATM    2  C8  UNL     1      17.064   4.716  12.113  1.00  0.00     0.048 A
HETATM    3  C9  UNL     1      16.922   3.540  12.873  1.00  0.00    -0.024 A
HETATM    4  C12 UNL     1      16.905   3.603  14.237  1.00  0.00     0.042 A
HETATM    5 CL2  UNL     1      16.688   2.156  15.173  1.00  0.00    -0.084 Cl
HETATM    6  C13 UNL     1      17.032   4.847  14.873  1.00  0.00     0.051 A
HETATM    7  C14 UNL     1      17.170   5.966  14.100  1.00  0.00     0.069 A
HETATM    8 CL3  UNL     1      17.321   7.502  14.940  1.00  0.00    -0.081 Cl
ENDROOT
BRANCH   1   9
HETATM    9  O3  UNL     1      17.321   7.081  12.004  1.00  0.00    -0.259 OA
BRANCH   9  10
HETATM   10  C6  UNL     1      16.251   7.647  11.305  1.00  0.00     0.376 C
HETATM   11  N1  UNL     1      16.052   7.655   9.934  1.00  0.00    -0.240 N
HETATM   12  C2  UNL     1      14.923   8.286   9.220  1.00  0.00     0.119 C
HETATM   13  C5  UNL     1      16.811   7.095   8.863  1.00  0.00     0.230 C
HETATM   14  C1  UNL     1      14.167   7.237   8.476  1.00  0.00     0.057 C
HETATM   15 CL1  UNL     1      13.958   9.302  10.258  1.00  0.00    -0.095 Cl
HETATM   16  C3  UNL     1      15.771   9.098   8.213  1.00  0.00     0.057 C
HETATM   17  C4  UNL     1      16.661   7.995   7.663  1.00  0.00     0.107 C
HETATM   18  O1  UNL     1      17.480   6.023   8.955  1.00  0.00    -0.273 OA
HETATM   19  O2  UNL     1      15.390   8.206  12.061  1.00  0.00    -0.237 OA
ENDBRANCH   9  10
ENDBRANCH   1   9
BRANCH   3  20
HETATM   20  C10 UNL     1      16.833   2.275  12.114  1.00  0.00     0.153 C
BRANCH  20  21
HETATM   21  C11 UNL     1      17.785   2.195  11.003  1.00  0.00     0.177 C
HETATM   22  O4  UNL     1      17.382   2.073   9.823  1.00  0.00    -0.648 OA
HETATM   23  O5  UNL     1      19.147   2.246  11.215  1.00  0.00    -0.648 OA
ENDBRANCH  20  21
ENDBRANCH   3  20
TORSDOF 4
ENDMDL