MODEL 1
REMARK VINA RESULT: -6.443640569      0.000      0.000
REMARK  5 active torsions:
REMARK  status: ('A' for Active; 'I' for Inactive)
REMARK    1  A    between atoms: O1_2  and  C2_3
REMARK    2  A    between atoms: C5_6  and  C6_7
REMARK    3  A    between atoms: N1_8  and  N2_10
REMARK    4  A    between atoms: N2_10  and  C7_12
REMARK    5  A    between atoms: C7_12  and  N3_14
ROOT
HETATM    1  C6  UNL     1      17.161   6.158  11.847  1.00  0.00     0.120 C
HETATM    2  N1  UNL     1      16.596   5.851  10.738  1.00  0.00    -0.309 N
ATOM      3  H1  UNL     1      15.805   5.207  10.747  1.00  0.00     0.186 HD
ENDROOT
BRANCH   2   4
HETATM    4  N2  UNL     1      17.031   6.369   9.524  1.00  0.00    -0.277 N
ATOM      5  H2  UNL     1      17.969   6.125   9.206  1.00  0.00     0.189 HD
BRANCH   4   6
HETATM    6  C7  UNL     1      16.247   7.219   8.699  1.00  0.00     0.188 C
HETATM    7  S1  UNL     1      15.933   6.691   7.184  1.00  0.00    -0.039 SA
BRANCH   6   8
HETATM    8  N3  UNL     1      15.742   8.458   9.115  1.00  0.00    -0.354 N
HETATM    9  C8  UNL     1      14.318   8.633   9.302  1.00  0.00     0.129 C
HETATM   10  C9  UNL     1      13.995   9.643  10.366  1.00  0.00     0.002 C
HETATM   11  C10 UNL     1      14.396   9.051  11.712  1.00  0.00     0.011 C
HETATM   12  C11 UNL     1      14.698  10.959  10.176  1.00  0.00     0.044 C
HETATM   13  C12 UNL     1      15.857  10.890   9.230  1.00  0.00     0.188 C
HETATM   14  F1  UNL     1      15.500  11.094   7.911  1.00  0.00    -0.248 F
HETATM   15  C13 UNL     1      16.630   9.592   9.369  1.00  0.00     0.162 C
ENDBRANCH   6   8
ENDBRANCH   4   6
ENDBRANCH   2   4
BRANCH   1  16
HETATM   16  C5  UNL     1      16.684   5.601  13.094  1.00  0.00     0.004 A
HETATM   17  C4  UNL     1      15.955   6.407  13.973  1.00  0.00     0.017 A
HETATM   18  C3  UNL     1      15.485   5.911  15.170  1.00  0.00     0.039 A
HETATM   19  C2  UNL     1      15.719   4.604  15.541  1.00  0.00     0.091 A
HETATM   20  C15 UNL     1      16.439   3.811  14.670  1.00  0.00     0.089 A
HETATM   21  C14 UNL     1      16.916   4.291  13.470  1.00  0.00     0.070 A
HETATM   22 CL2  UNL     1      16.734   2.147  15.147  1.00  0.00    -0.080 Cl
HETATM   23 CL1  UNL     1      17.828   3.281  12.372  1.00  0.00    -0.081 Cl
BRANCH  19  24
HETATM   24  O1  UNL     1      15.236   4.128  16.751  1.00  0.00    -0.354 OA
HETATM   25  C1  UNL     1      13.961   3.522  16.831  1.00  0.00     0.210 C
ENDBRANCH  19  24
ENDBRANCH   1  16
TORSDOF 5
ENDMDL