MODEL 1
REMARK VINA RESULT: -6.428816830      0.000      0.000
REMARK  3 active torsions:
REMARK  status: ('A' for Active; 'I' for Inactive)
REMARK    1  A    between atoms: C8_12  and  N2_13
REMARK       I    between atoms: N2_13  and  C9_15
REMARK    2  A    between atoms: C9_15  and  C10_17
REMARK    3  A    between atoms: C10_17  and  N3_18
ROOT
HETATM    1  C1  UNL     1      14.971   7.174  14.903  1.00  0.00     0.052 C
HETATM    2  C2  UNL     1      15.508   5.809  14.786  1.00  0.00    -0.010 A
HETATM    3  C3  UNL     1      15.282   4.848  15.749  1.00  0.00     0.064 A
HETATM    4 CL1  UNL     1      14.319   5.238  17.174  1.00  0.00    -0.082 Cl
HETATM    5  C4  UNL     1      15.783   3.555  15.662  1.00  0.00     0.090 A
HETATM    6  C5  UNL     1      15.513   2.604  16.700  1.00  0.00     0.103 C
HETATM    7  N1  UNL     1      15.278   1.834  17.522  1.00  0.00    -0.191 NA
HETATM    8  C6  UNL     1      16.533   3.249  14.554  1.00  0.00     0.080 A
HETATM    9 CL2  UNL     1      17.176   1.632  14.407  1.00  0.00    -0.081 Cl
HETATM   10  C7  UNL     1      16.760   4.206  13.588  1.00  0.00     0.084 A
HETATM   11 CL3  UNL     1      17.731   3.748  12.193  1.00  0.00    -0.080 Cl
HETATM   12  C8  UNL     1      16.273   5.487  13.658  1.00  0.00     0.066 A
ENDROOT
BRANCH  12  13
HETATM   13  N2  UNL     1      16.509   6.459  12.653  1.00  0.00    -0.324 N
HETATM   14  C9  UNL     1      17.710   7.200  12.648  1.00  0.00     0.250 C
HETATM   15  O1  UNL     1      18.545   6.958  13.572  1.00  0.00    -0.271 OA
ATOM     16  H2  UNL     1      15.808   6.625  11.931  1.00  0.00     0.169 HD
BRANCH  14  17
HETATM   17  C10 UNL     1      18.084   8.224  11.679  1.00  0.00     0.375 C
BRANCH  17  18
HETATM   18  N3  UNL     1      19.147   7.740  10.826  1.00  0.00     0.100 N
HETATM   19  C11 UNL     1      18.674   6.667   9.956  1.00  0.00     0.303 C
HETATM   20  C12 UNL     1      17.605   7.067   9.007  1.00  0.00     0.302 C
HETATM   21  N4  UNL     1      17.691   8.418   8.558  1.00  0.00     0.087 N
HETATM   22  C13 UNL     1      17.333   8.449   7.153  1.00  0.00     0.310 C
HETATM   23  C14 UNL     1      18.941   9.056   8.731  1.00  0.00     0.302 C
HETATM   24  C15 UNL     1      19.676   8.826   9.997  1.00  0.00     0.303 C
ENDBRANCH  17  18
ENDBRANCH  14  17
ENDBRANCH  12  13
TORSDOF 3
ENDMDL