MODEL 5
REMARK VINA RESULT: -8.534351434      1.182      1.717
REMARK  3 active torsions:
REMARK  status: ('A' for Active; 'I' for Inactive)
REMARK    1  A    between atoms: C3_8  and  C4_9
REMARK       I    between atoms: C4_9  and  N4_11
REMARK    2  A    between atoms: C10_18  and  C11_19
REMARK    3  A    between atoms: C11_19  and  C12_20
ROOT
HETATM    1  N1  UNL     1      19.339   2.512  11.358  1.00  0.00    -0.172 NA
HETATM    2  C1  UNL     1      18.764   3.510  11.316  1.00  0.00     0.183 C
HETATM    3  N2  UNL     1      18.096   4.706  11.248  1.00  0.00    -0.283 N
ATOM      4  H2  UNL     1      18.143   5.154  10.333  1.00  0.00     0.179 HD
HETATM    5  C2  UNL     1      17.437   5.356  12.099  1.00  0.00     0.092 C
HETATM    6  N3  UNL     1      16.870   6.616  11.630  1.00  0.00    -0.357 N
ATOM      7  H3  UNL     1      16.503   6.719  10.684  1.00  0.00     0.162 HD
HETATM    8  C3  UNL     1      16.853   7.721  12.585  1.00  0.00     0.238 C
HETATM    9  S1  UNL     1      18.194   7.499  13.809  1.00  0.00    -0.134 SA
HETATM   10  C9  UNL     1      18.339   5.723  14.276  1.00  0.00     0.089 C
HETATM   11  C10 UNL     1      17.181   5.065  13.509  1.00  0.00     0.067 C
ENDROOT
BRANCH  11  12
HETATM   12  C11 UNL     1      16.836   3.703  13.931  1.00  0.00     0.050 C
BRANCH  12  13
HETATM   13  C12 UNL     1      16.049   3.637  15.194  1.00  0.00    -0.044 C
HETATM   14  C13 UNL     1      16.245   2.665  16.066  1.00  0.00    -0.021 C
HETATM   15  C14 UNL     1      15.506   2.516  17.354  1.00  0.00     0.033 C
HETATM   16  C15 UNL     1      15.208   3.952  17.809  1.00  0.00     0.086 C
HETATM   17  C16 UNL     1      14.293   4.518  16.744  1.00  0.00     0.278 C
HETATM   18  F1  UNL     1      13.768   5.695  17.246  1.00  0.00    -0.203 F
HETATM   19  F2  UNL     1      13.275   3.592  16.566  1.00  0.00    -0.203 F
HETATM   20  C17 UNL     1      15.015   4.709  15.459  1.00  0.00     0.271 C
HETATM   21  F3  UNL     1      15.576   5.953  15.413  1.00  0.00    -0.238 F
ENDBRANCH  12  13
ENDBRANCH  11  12
BRANCH   8  22
HETATM   22  C4  UNL     1      17.095   8.964  11.818  1.00  0.00     0.252 C
HETATM   23  O1  UNL     1      18.258   9.446  11.711  1.00  0.00    -0.270 OA
HETATM   24  N4  UNL     1      16.022   9.644  11.184  1.00  0.00    -0.350 N
HETATM   25  C5  UNL     1      16.125  10.845  10.422  1.00  0.00     0.126 C
HETATM   26  C8  UNL     1      14.645   9.195  11.217  1.00  0.00     0.126 C
HETATM   27  C6  UNL     1      14.714  11.354  10.314  1.00  0.00     0.021 C
HETATM   28  C7  UNL     1      13.927  10.041  10.174  1.00  0.00     0.021 C
ENDBRANCH   8  22
TORSDOF 3
ENDMDL