MODEL 3
REMARK VINA RESULT: -7.856521543      1.289      2.714
REMARK  3 active torsions:
REMARK  status: ('A' for Active; 'I' for Inactive)
REMARK    1  A    between atoms: C4_5  and  C5_6
REMARK    2  A    between atoms: C5_6  and  C6_8
REMARK    3  A    between atoms: C8_10  and  N1_11
ROOT
HETATM    1  C1  UNL     1      18.916   3.610  11.349  1.00  0.00     0.051 C
HETATM    2  C2  UNL     1      18.471   4.676  12.247  1.00  0.00    -0.026 A
HETATM    3  C3  UNL     1      17.291   4.546  12.996  1.00  0.00     0.056 A
HETATM    4 CL1  UNL     1      16.368   3.049  12.810  1.00  0.00    -0.083 Cl
HETATM    5  C4  UNL     1      16.781   5.457  13.853  1.00  0.00     0.055 A
HETATM    6  C9  UNL     1      17.485   6.631  14.012  1.00  0.00     0.062 A
HETATM    7 CL2  UNL     1      16.939   7.894  15.090  1.00  0.00    -0.082 Cl
HETATM    8  C10 UNL     1      18.658   6.855  13.321  1.00  0.00     0.015 A
HETATM    9  C11 UNL     1      19.373   8.019  13.467  1.00  0.00     0.105 A
HETATM   10  N2  UNL     1      20.511   8.252  12.805  1.00  0.00    -0.331 N
ATOM     11  H2  UNL     1      21.013   9.129  12.940  1.00  0.00     0.168 HD
HETATM   12  C12 UNL     1      20.985   7.330  11.966  1.00  0.00     0.268 A
HETATM   13  O4  UNL     1      22.048   7.486  11.313  1.00  0.00    -0.266 OA
HETATM   14  C13 UNL     1      20.316   6.128  11.767  1.00  0.00     0.113 A
HETATM   15 CL3  UNL     1      20.947   4.936  10.671  1.00  0.00    -0.077 Cl
HETATM   16  C14 UNL     1      19.149   5.881  12.442  1.00  0.00     0.012 A
ENDROOT
BRANCH   5  17
HETATM   17  C5  UNL     1      15.554   5.310  14.625  1.00  0.00     0.169 C
HETATM   18  O1  UNL     1      14.482   5.351  13.976  1.00  0.00    -0.292 OA
BRANCH  17  19
HETATM   19  C6  UNL     1      15.530   5.122  16.081  1.00  0.00     0.092 A
HETATM   20  C7  UNL     1      14.583   4.054  16.594  1.00  0.00     0.047 A
HETATM   21  C8  UNL     1      16.053   3.968  16.797  1.00  0.00     0.168 A
BRANCH  21  22
HETATM   22  N1  UNL     1      16.708   2.835  16.228  1.00  0.00    -0.150 N
HETATM   23  O2  UNL     1      17.959   2.916  16.038  1.00  0.00    -0.536 OA
HETATM   24  O3  UNL     1      16.112   1.652  15.858  1.00  0.00    -0.536 OA
ENDBRANCH  21  22
ENDBRANCH  17  19
ENDBRANCH   5  17
TORSDOF 3
ENDMDL