MODEL 2
REMARK VINA RESULT: -7.520765572      1.994      2.879
REMARK  4 active torsions:
REMARK  status: ('A' for Active; 'I' for Inactive)
REMARK    1  A    between atoms: N2_4  and  C3_5
REMARK    2  A    between atoms: C7_13  and  N5_14
REMARK    3  A    between atoms: N5_14  and  C8_16
REMARK    4  A    between atoms: C8_16  and  C9_17
ROOT
HETATM    1  N1  UNL     1      20.891   7.968  12.451  1.00  0.00    -0.195 NA
HETATM    2  C1  UNL     1      19.852   8.466  12.484  1.00  0.00     0.088 C
HETATM    3  C2  UNL     1      18.521   9.080  12.542  1.00  0.00     0.231 C
HETATM    4  N2  UNL     1      17.463   8.126  12.277  1.00  0.00    -0.358 N
HETATM    5  C15 UNL     1      16.626   8.620  11.207  1.00  0.00     0.128 C
HETATM    6  C16 UNL     1      16.947  10.123  11.135  1.00  0.00     0.065 C
HETATM    7  C17 UNL     1      18.417  10.129  11.456  1.00  0.00     0.147 C
HETATM    8 CL1  UNL     1      19.404   9.659  10.044  1.00  0.00    -0.098 Cl
HETATM    9 CL2  UNL     1      18.961  11.721  12.029  1.00  0.00    -0.098 Cl
ENDROOT
BRANCH   4  10
HETATM   10  C3  UNL     1      17.263   6.902  12.972  1.00  0.00     0.072 A
HETATM   11  C4  UNL     1      17.280   5.692  12.286  1.00  0.00     0.063 A
HETATM   12  C5  UNL     1      17.109   4.461  12.909  1.00  0.00     0.049 A
HETATM   13  N3  UNL     1      17.139   3.315  12.165  1.00  0.00    -0.351 N
HETATM   14  C12 UNL     1      16.914   4.432  14.259  1.00  0.00     0.037 A
HETATM   15  C6  UNL     1      16.969   2.164  12.817  1.00  0.00     0.182 A
ATOM     16  H3  UNL     1      17.284   3.339  11.156  1.00  0.00     0.166 HD
HETATM   17  N4  UNL     1      16.776   2.104  14.138  1.00  0.00    -0.338 N
HETATM   18  C7  UNL     1      16.744   3.218  14.885  1.00  0.00     0.114 A
ATOM     19  H4  UNL     1      16.653   1.196  14.586  1.00  0.00     0.168 HD
HETATM   20  C13 UNL     1      16.887   5.591  14.991  1.00  0.00     0.062 A
HETATM   21  C14 UNL     1      17.062   6.799  14.331  1.00  0.00     0.143 A
HETATM   22  F1  UNL     1      17.019   7.925  15.076  1.00  0.00    -0.204 F
BRANCH  18  23
HETATM   23  N5  UNL     1      16.556   3.194  16.182  1.00  0.00    -0.375 N
ATOM     24  H5  UNL     1      17.106   3.773  16.818  1.00  0.00     0.161 HD
BRANCH  23  25
HETATM   25  C8  UNL     1      15.523   2.298  16.660  1.00  0.00     0.126 C
BRANCH  25  26
HETATM   26  C9  UNL     1      14.388   3.003  17.315  1.00  0.00     0.003 A
HETATM   27  C10 UNL     1      14.094   4.433  17.070  1.00  0.00     0.007 A
HETATM   28  C11 UNL     1      14.818   4.033  18.372  1.00  0.00     0.007 A
ENDBRANCH  25  26
ENDBRANCH  23  25
ENDBRANCH  18  23
ENDBRANCH   4  10
TORSDOF 4
ENDMDL