MODEL 5
REMARK VINA RESULT: -7.054269375      0.980      1.128
REMARK  3 active torsions:
REMARK  status: ('A' for Active; 'I' for Inactive)
REMARK       I    between atoms: C1_2  and  N1_3
REMARK    1  A    between atoms: C1_2  and  C12_18
REMARK    2  A    between atoms: N1_3  and  C2_5
REMARK    3  A    between atoms: N2_9  and  C6_10
ROOT
HETATM    1  C2  UNL     1      18.133   5.401  12.791  1.00  0.00     0.102 C
HETATM    2  C3  UNL     1      18.348   4.315  11.770  1.00  0.00     0.028 C
HETATM    3  C4  UNL     1      17.151   3.433  11.696  1.00  0.00     0.022 C
HETATM    4  C5  UNL     1      16.763   3.017  13.109  1.00  0.00     0.120 C
HETATM    5  N2  UNL     1      16.346   4.144  13.875  1.00  0.00    -0.375 N
HETATM    6  C11 UNL     1      16.713   5.401  13.318  1.00  0.00     0.145 C
ENDROOT
BRANCH   1   7
HETATM    7  N1  UNL     1      18.440   6.685  12.207  1.00  0.00    -0.350 N
HETATM    8  C1  UNL     1      19.003   7.776  12.873  1.00  0.00     0.259 C
HETATM    9  O1  UNL     1      19.302   7.725  14.084  1.00  0.00    -0.267 OA
ATOM     10  H1  UNL     1      18.226   6.807  11.217  1.00  0.00     0.163 HD
BRANCH   8  11
HETATM   11  C12 UNL     1      19.276   9.053  12.185  1.00  0.00     0.075 A
HETATM   12  C13 UNL     1      18.492  10.179  12.132  1.00  0.00     0.050 A
HETATM   13  C14 UNL     1      18.963  11.218  11.436  1.00  0.00     0.064 A
HETATM   14 CL1  UNL     1      18.059  12.749  11.277  1.00  0.00    -0.082 Cl
HETATM   15  C15 UNL     1      20.181  11.079  10.833  1.00  0.00     0.097 A
HETATM   16 CL2  UNL     1      21.053  12.273   9.852  1.00  0.00    -0.074 Cl
HETATM   17  S1  UNL     1      20.635   9.490  11.261  1.00  0.00    -0.071 SA
ENDBRANCH   8  11
ENDBRANCH   1   7
BRANCH   5  18
HETATM   18  C6  UNL     1      16.289   3.990  15.263  1.00  0.00     0.195 C
HETATM   19  F1  UNL     1      17.297   4.774  15.840  1.00  0.00    -0.217 F
HETATM   20  C7  UNL     1      14.998   4.436  15.849  1.00  0.00     0.071 C
HETATM   21  C8  UNL     1      14.927   3.977  17.310  1.00  0.00     0.031 C
HETATM   22  C9  UNL     1      15.090   2.475  17.302  1.00  0.00     0.168 C
HETATM   23  O2  UNL     1      16.420   2.237  16.936  1.00  0.00    -0.386 OA
HETATM   24  C10 UNL     1      16.651   2.545  15.620  1.00  0.00     0.233 C
ENDBRANCH   5  18
TORSDOF 3
ENDMDL