MODEL 1
REMARK VINA RESULT: -6.351452996      0.000      0.000
REMARK  4 active torsions:
REMARK  status: ('A' for Active; 'I' for Inactive)
REMARK    1  A    between atoms: C5_6  and  C6_7
REMARK    2  A    between atoms: C12_24  and  C13_25
REMARK    3  A    between atoms: C13_25  and  C14_26
REMARK    4  A    between atoms: C19_37  and  C20_38
ROOT
HETATM    1  C14 UNL     1      25.955  45.793  32.050  1.00  0.00     0.126 C
HETATM    2  C15 UNL     1      27.289  45.741  31.401  1.00  0.00     0.059 C
HETATM    3  N6  UNL     1      28.322  45.705  30.880  1.00  0.00    -0.197 NA
ENDROOT
BRANCH   1   4
HETATM    4  C13 UNL     1      25.228  44.565  31.624  1.00  0.00     0.047 C
BRANCH   4   5
HETATM    5  C12 UNL     1      24.957  43.589  32.744  1.00  0.00     0.152 C
HETATM    6  C11 UNL     1      25.945  42.512  32.823  1.00  0.00     0.093 C
HETATM    7  N4  UNL     1      25.817  41.218  32.285  1.00  0.00    -0.377 N
HETATM    8  N5  UNL     1      27.059  42.795  33.461  1.00  0.00    -0.387 N
HETATM    9  C10 UNL     1      24.649  40.401  32.213  1.00  0.00     0.148 C
ATOM     10  H4  UNL     1      26.669  40.812  31.896  1.00  0.00     0.160 HD
HETATM   11  C9  UNL     1      25.044  38.943  32.325  1.00  0.00     0.252 C
HETATM   12  N3  UNL     1      23.968  38.128  32.819  1.00  0.00    -0.065 N
HETATM   13  C8  UNL     1      24.535  37.101  33.668  1.00  0.00     0.334 C
ATOM     14  H32 UNL     1      23.388  37.746  32.071  1.00  0.00     0.277 HD
ATOM     15  H31 UNL     1      23.244  38.673  33.288  1.00  0.00     0.277 HD
HETATM   16  C7  UNL     1      23.650  35.914  33.772  1.00  0.00     0.244 C
HETATM   17  N2  UNL     1      22.385  35.938  34.370  1.00  0.00    -0.344 N
HETATM   18  O1  UNL     1      24.075  34.831  33.289  1.00  0.00    -0.272 OA
HETATM   19  C6  UNL     1      22.055  36.714  35.564  1.00  0.00     0.210 C
ATOM     20  H2  UNL     1      21.645  35.379  33.945  1.00  0.00     0.163 HD
HETATM   21  C21 UNL     1      21.075  37.772  35.197  1.00  0.00     0.243 C
HETATM   22  N8  UNL     1      21.275  39.149  35.413  1.00  0.00    -0.344 N
HETATM   23  O6  UNL     1      20.001  37.372  34.657  1.00  0.00    -0.271 OA
HETATM   24  C19 UNL     1      21.864  39.713  36.612  1.00  0.00     0.197 C
ATOM     25  H8  UNL     1      20.987  39.793  34.677  1.00  0.00     0.163 HD
HETATM   26  C18 UNL     1      22.805  40.824  36.205  1.00  0.00     0.145 C
HETATM   27  S1  UNL     1      21.956  42.372  36.031  1.00  0.00     0.026 S
HETATM   28  C17 UNL     1      22.860  43.516  35.044  1.00  0.00     0.211 C
HETATM   29  O3  UNL     1      20.408  42.184  35.452  1.00  0.00    -0.258 OA
HETATM   30  C16 UNL     1      22.595  43.393  33.603  1.00  0.00     0.229 C
HETATM   31  N7  UNL     1      23.591  43.167  32.619  1.00  0.00    -0.349 N
HETATM   32  O2  UNL     1      21.403  43.496  33.211  1.00  0.00    -0.273 OA
ATOM     33  H7  UNL     1      23.319  42.673  31.769  1.00  0.00     0.163 HD
ATOM     34  H52 UNL     1      27.747  42.044  33.516  1.00  0.00     0.157 HD
ATOM     35  H51 UNL     1      27.150  43.733  33.851  1.00  0.00     0.157 HD
BRANCH  19  36
HETATM   36  C5  UNL     1      21.350  35.753  36.528  1.00  0.00     0.254 C
HETATM   37  N1  UNL     1      22.272  34.930  37.247  1.00  0.00     0.091 N
HETATM   38  C1  UNL     1      22.071  35.019  38.697  1.00  0.00     0.310 C
HETATM   39  C2  UNL     1      22.018  33.559  36.880  1.00  0.00     0.272 C
HETATM   40  C3  UNL     1      20.541  33.546  36.539  1.00  0.00     0.032 C
HETATM   41  C4  UNL     1      20.393  34.856  35.793  1.00  0.00     0.040 C
ENDBRANCH  19  36
BRANCH  24  42
HETATM   42  C20 UNL     1      20.839  40.183  37.567  1.00  0.00     0.197 C
HETATM   43  O4  UNL     1      19.633  39.984  37.309  1.00  0.00    -0.646 OA
HETATM   44  O5  UNL     1      21.189  40.831  38.725  1.00  0.00    -0.646 OA
ENDBRANCH  24  42
ENDBRANCH   4   5
ENDBRANCH   1   4
TORSDOF 4
ENDMDL