MODEL 3
REMARK VINA RESULT: -8.426296985      2.490      8.286
REMARK  6 active torsions:
REMARK  status: ('A' for Active; 'I' for Inactive)
REMARK    1  A    between atoms: C1_2  and  C2_4
REMARK    2  A    between atoms: C2_4  and  N2_5
REMARK    3  A    between atoms: C2_4  and  C3_9
REMARK    4  A    between atoms: C4_12  and  N4_13
REMARK    5  A    between atoms: C4_12  and  C16_33
REMARK       I    between atoms: N4_13  and  C5_15
REMARK    6  A    between atoms: C5_15  and  C6_17
ROOT
HETATM    1  C3  UNL     1      21.828  33.827  35.854  1.00  0.00     0.211 C
HETATM    2  N3  UNL     1      21.617  35.072  35.261  1.00  0.00    -0.374 N
ATOM      3  H3  UNL     1      20.989  35.723  35.733  1.00  0.00     0.157 HD
HETATM    4  C4  UNL     1      22.202  35.485  34.073  1.00  0.00     0.183 C
HETATM    5  C17 UNL     1      21.485  34.856  32.873  1.00  0.00     0.065 C
HETATM    6  C18 UNL     1      20.106  35.424  32.816  1.00  0.00     0.024 C
HETATM    7  C19 UNL     1      19.023  34.402  32.598  1.00  0.00     0.114 C
HETATM    8  N8  UNL     1      17.862  34.714  33.387  1.00  0.00    -0.420 N
ATOM      9  H8  UNL     1      17.285  35.536  33.209  1.00  0.00     0.153 HD
HETATM   10  C20 UNL     1      17.573  33.788  34.438  1.00  0.00     0.133 C
HETATM   11  C21 UNL     1      18.655  33.832  35.518  1.00  0.00     0.141 C
HETATM   12  N9  UNL     1      19.556  32.728  35.364  1.00  0.00    -0.358 N
ATOM     13  H9  UNL     1      19.115  31.819  35.224  1.00  0.00     0.162 HD
HETATM   14  C22 UNL     1      20.957  32.723  35.381  1.00  0.00     0.242 C
HETATM   15  O5  UNL     1      21.559  31.665  34.946  1.00  0.00    -0.271 OA
ENDROOT
BRANCH   4  16
HETATM   16  N4  UNL     1      21.909  36.938  33.929  1.00  0.00    -0.325 N
HETATM   17  C5  UNL     1      22.099  37.837  35.011  1.00  0.00     0.250 C
HETATM   18  O2  UNL     1      22.525  37.380  36.091  1.00  0.00    -0.271 OA
ATOM     19  H4  UNL     1      21.564  37.293  33.037  1.00  0.00     0.165 HD
BRANCH  17  20
HETATM   20  C6  UNL     1      21.816  39.286  34.900  1.00  0.00     0.277 C
HETATM   21  C7  UNL     1      22.467  39.878  33.667  1.00  0.00     0.043 C
HETATM   22  C8  UNL     1      23.268  41.118  33.978  1.00  0.00     0.004 C
HETATM   23  C9  UNL     1      22.853  42.176  32.970  1.00  0.00     0.020 C
HETATM   24  C10 UNL     1      22.939  43.558  33.526  1.00  0.00     0.122 C
HETATM   25  N5  UNL     1      22.873  43.593  34.969  1.00  0.00    -0.361 N
HETATM   26  C11 UNL     1      21.678  43.748  35.723  1.00  0.00     0.217 C
ATOM     27  H5  UNL     1      23.749  43.501  35.484  1.00  0.00     0.162 HD
HETATM   28  O3  UNL     1      21.674  44.506  36.727  1.00  0.00    -0.274 OA
HETATM   29  C12 UNL     1      20.401  43.060  35.401  1.00  0.00     0.103 C
HETATM   30  C13 UNL     1      19.966  42.342  36.680  1.00  0.00     0.011 C
HETATM   31  C14 UNL     1      21.099  41.633  37.345  1.00  0.00     0.028 C
HETATM   32  C15 UNL     1      21.166  40.166  37.018  1.00  0.00     0.233 C
HETATM   33  N6  UNL     1      22.270  39.941  36.108  1.00  0.00    -0.062 N
ATOM     34  H62 UNL     1      23.029  39.426  36.554  1.00  0.00     0.278 HD
ATOM     35  H61 UNL     1      22.772  40.805  35.903  1.00  0.00     0.278 HD
ENDBRANCH  17  20
ENDBRANCH   4  16
BRANCH   4  36
HETATM   36  C16 UNL     1      23.645  35.306  33.874  1.00  0.00     0.280 C
HETATM   37  N7  UNL     1      24.432  36.295  33.174  1.00  0.00    -0.058 NA
HETATM   38  O4  UNL     1      24.262  34.320  34.285  1.00  0.00    -0.272 OA
ENDBRANCH   4  36
BRANCH   1  39
HETATM   39  C2  UNL     1      21.481  33.978  37.361  1.00  0.00     0.303 C
BRANCH  39  40
HETATM   40  C1  UNL     1      22.720  33.828  38.146  1.00  0.00     0.264 C
HETATM   41  N1  UNL     1      23.803  33.093  37.609  1.00  0.00    -0.060 NA
HETATM   42  O1  UNL     1      22.868  34.325  39.285  1.00  0.00    -0.274 OA
ENDBRANCH  39  40
BRANCH  39  43
HETATM   43  N2  UNL     1      20.981  35.337  37.523  1.00  0.00    -0.064 N
ATOM     44  H23 UNL     1      20.516  35.476  38.419  1.00  0.00     0.275 HD
ATOM     45  H22 UNL     1      21.733  36.015  37.645  1.00  0.00     0.275 HD
ATOM     46  H21 UNL     1      20.378  35.563  36.732  1.00  0.00     0.275 HD
ENDBRANCH  39  43
ENDBRANCH   1  39
TORSDOF 6
ENDMDL