MODEL 5
REMARK VINA RESULT: -2.222732571      2.118      3.172
REMARK  8 active torsions:
REMARK  status: ('A' for Active; 'I' for Inactive)
REMARK    1  A    between atoms: C3_3  and  C4_4
REMARK    2  A    between atoms: C4_4  and  N2_8
REMARK    3  A    between atoms: C15_26  and  C16_27
REMARK    4  A    between atoms: C18_34  and  C19_35
REMARK    5  A    between atoms: C19_35  and  C20_36
REMARK    6  A    between atoms: C20_36  and  C21_37
REMARK    7  A    between atoms: C21_37  and  N6_38
REMARK    8  A    between atoms: C22_44  and  O7_45
ROOT
HETATM    1  C1  UNL     1      23.368  43.731  32.850  1.00  0.00     0.097 C
HETATM    2  C2  UNL     1      23.060  43.246  33.935  1.00  0.00    -0.180 C
HETATM    3  C3  UNL     1      22.704  42.690  35.244  1.00  0.00     0.155 C
ENDROOT
BRANCH   3   4
HETATM    4  C4  UNL     1      22.112  41.368  35.066  1.00  0.00     0.094 C
HETATM    5  N1  UNL     1      20.948  41.225  34.544  1.00  0.00    -0.388 N
ATOM      6  H12 UNL     1      20.485  42.084  34.248  1.00  0.00     0.157 HD
ATOM      7  H11 UNL     1      20.534  40.301  34.420  1.00  0.00     0.157 HD
BRANCH   4   8
HETATM    8  N2  UNL     1      22.767  40.152  35.485  1.00  0.00    -0.272 N
HETATM    9  C5  UNL     1      23.823  39.632  34.709  1.00  0.00     0.175 C
HETATM   10  C6  UNL     1      23.802  39.803  33.264  1.00  0.00     0.257 C
HETATM   11  O1  UNL     1      24.731  40.516  32.780  1.00  0.00    -0.267 OA
HETATM   12  N3  UNL     1      22.896  39.287  32.314  1.00  0.00    -0.354 N
HETATM   13  C7  UNL     1      21.775  38.400  32.548  1.00  0.00     0.149 C
ATOM     14  H3  UNL     1      23.048  39.573  31.347  1.00  0.00     0.162 HD
HETATM   15  C8  UNL     1      22.123  37.056  31.942  1.00  0.00     0.188 C
HETATM   16  O2  UNL     1      22.031  37.173  30.559  1.00  0.00    -0.380 OA
HETATM   17  C9  UNL     1      20.696  37.219  30.202  1.00  0.00     0.270 C
HETATM   18  C10 UNL     1      20.477  36.234  29.106  1.00  0.00     0.241 C
HETATM   19  O3  UNL     1      20.915  36.562  27.955  1.00  0.00    -0.271 OA
HETATM   20  N4  UNL     1      19.828  35.010  29.309  1.00  0.00    -0.359 N
HETATM   21  C11 UNL     1      19.995  34.135  30.444  1.00  0.00     0.122 C
ATOM     22  H4  UNL     1      19.175  34.708  28.586  1.00  0.00     0.162 HD
HETATM   23  C12 UNL     1      18.892  34.247  31.450  1.00  0.00     0.020 C
HETATM   24  C13 UNL     1      19.340  33.901  32.845  1.00  0.00     0.004 C
HETATM   25  C14 UNL     1      19.002  34.990  33.812  1.00  0.00     0.036 C
HETATM   26  C15 UNL     1      19.835  34.978  35.068  1.00  0.00     0.185 C
HETATM   27  N5  UNL     1      19.632  36.221  35.778  1.00  0.00    -0.345 N
HETATM   28  C17 UNL     1      20.505  36.817  36.703  1.00  0.00     0.241 C
ATOM     29  H5  UNL     1      18.761  36.719  35.587  1.00  0.00     0.163 HD
HETATM   30  O6  UNL     1      20.094  37.196  37.829  1.00  0.00    -0.271 OA
HETATM   31  C18 UNL     1      21.989  37.055  36.448  1.00  0.00     0.177 C
HETATM   32  N7  UNL     1      22.366  38.279  37.154  1.00  0.00    -0.343 N
HETATM   33  C22 UNL     1      22.260  39.595  36.687  1.00  0.00     0.225 C
ATOM     34  H7  UNL     1      22.747  38.161  38.093  1.00  0.00     0.164 HD
BRANCH  26  35
HETATM   35  C16 UNL     1      19.362  33.823  35.898  1.00  0.00     0.196 C
HETATM   36  O4  UNL     1      18.132  33.573  35.875  1.00  0.00    -0.646 OA
HETATM   37  O5  UNL     1      20.228  33.073  36.646  1.00  0.00    -0.646 OA
ENDBRANCH  26  35
BRANCH  31  38
HETATM   38  C19 UNL     1      22.669  35.878  37.082  1.00  0.00     0.036 C
BRANCH  38  39
HETATM   39  C20 UNL     1      21.955  35.122  38.125  1.00  0.00     0.030 C
BRANCH  39  40
HETATM   40  C21 UNL     1      22.708  34.673  39.321  1.00  0.00     0.230 C
BRANCH  40  41
HETATM   41  N6  UNL     1      23.897  33.879  38.928  1.00  0.00    -0.079 N
ATOM     42  H63 UNL     1      23.891  32.953  39.357  1.00  0.00     0.274 HD
ATOM     43  H62 UNL     1      23.854  33.596  37.949  1.00  0.00     0.274 HD
ATOM     44  H61 UNL     1      24.756  34.387  39.137  1.00  0.00     0.274 HD
ENDBRANCH  40  41
ENDBRANCH  39  40
ENDBRANCH  38  39
ENDBRANCH  31  38
BRANCH  33  45
HETATM   45  O7  UNL     1      21.600  40.382  37.501  1.00  0.00    -0.332 OA
ATOM     46  H7  UNL     1      20.809  40.797  37.178  1.00  0.00     0.221 HD
ENDBRANCH  33  45
ENDBRANCH   4   8
ENDBRANCH   3   4
TORSDOF 8
ENDMDL