MODEL 5
REMARK VINA RESULT: -10.105230227      3.125     11.802
REMARK  7 active torsions:
REMARK  status: ('A' for Active; 'I' for Inactive)
REMARK    1  A    between atoms: C2_2  and  C4_16
REMARK    2  A    between atoms: N1_3  and  N2_5
REMARK       I    between atoms: N2_5  and  C3_7
REMARK       I    between atoms: C3_7  and  N4_11
REMARK    3  A    between atoms: N4_11  and  N5_13
REMARK       I    between atoms: C4_16  and  N6_18
REMARK       I    between atoms: C5_20  and  N8_22
REMARK    4  A    between atoms: N8_22  and  N9_24
REMARK       I    between atoms: N9_24  and  C6_26
REMARK       I    between atoms: C6_26  and  N10_28
REMARK    5  A    between atoms: N11_31  and  C9_32
REMARK    6  A    between atoms: C9_32  and  N12_34
REMARK    7  A    between atoms: N12_34  and  C10_36
ROOT
HETATM    1  C4  UNL     1      21.019  35.291  33.892  1.00  0.00     0.271 C
HETATM    2  O3  UNL     1      20.537  36.329  34.459  1.00  0.00    -0.266 OA
HETATM    3  N6  UNL     1      22.364  35.231  33.517  1.00  0.00    -0.295 N
ATOM      4  H6  UNL     1      22.613  34.505  32.844  1.00  0.00     0.171 HD
HETATM    5  C5  UNL     1      23.309  35.972  33.917  1.00  0.00     0.210 C
HETATM    6  N7  UNL     1      24.618  35.744  33.410  1.00  0.00    -0.062 NA
HETATM    7  N8  UNL     1      23.134  37.023  34.841  1.00  0.00    -0.269 N
ATOM      8  H8  UNL     1      22.517  36.932  35.648  1.00  0.00     0.190 HD
ENDROOT
BRANCH   7   9
HETATM    9  N9  UNL     1      23.866  38.217  34.587  1.00  0.00    -0.249 N
HETATM   10  C6  UNL     1      23.572  38.890  33.387  1.00  0.00     0.337 C
HETATM   11  O4  UNL     1      22.708  38.474  32.575  1.00  0.00    -0.245 OA
HETATM   12  N10 UNL     1      24.308  40.111  33.090  1.00  0.00    -0.330 N
HETATM   13  C7  UNL     1      23.939  40.790  31.886  1.00  0.00     0.147 C
HETATM   14  C16 UNL     1      25.341  40.538  33.989  1.00  0.00     0.147 C
HETATM   15  C8  UNL     1      24.760  41.935  31.499  1.00  0.00     0.145 C
HETATM   16  N11 UNL     1      25.700  42.344  32.504  1.00  0.00    -0.355 N
HETATM   17  C15 UNL     1      26.401  41.354  33.253  1.00  0.00     0.145 C
ATOM     18  H9  UNL     1      24.567  38.567  35.240  1.00  0.00     0.192 HD
BRANCH  16  19
HETATM   19  C9  UNL     1      25.906  43.736  32.709  1.00  0.00     0.170 C
HETATM   20  S1  UNL     1      24.631  44.732  32.391  1.00  0.00    -0.041 SA
BRANCH  19  21
HETATM   21  N12 UNL     1      27.122  44.252  33.198  1.00  0.00    -0.354 N
ATOM     22  H12 UNL     1      27.169  44.565  34.169  1.00  0.00     0.162 HD
BRANCH  21  23
HETATM   23  C10 UNL     1      28.307  44.355  32.376  1.00  0.00     0.176 C
HETATM   24  C11 UNL     1      27.900  45.084  31.091  1.00  0.00     0.036 C
HETATM   25  C12 UNL     1      27.988  46.589  31.363  1.00  0.00     0.022 C
HETATM   26  C13 UNL     1      29.488  46.918  31.338  1.00  0.00     0.122 C
HETATM   27  N13 UNL     1      30.043  46.213  32.470  1.00  0.00    -0.359 N
HETATM   28  C14 UNL     1      29.279  45.219  33.118  1.00  0.00     0.240 C
ATOM     29  H13 UNL     1      30.984  46.433  32.800  1.00  0.00     0.162 HD
HETATM   30  O5  UNL     1      29.412  45.052  34.343  1.00  0.00    -0.271 OA
ENDBRANCH  21  23
ENDBRANCH  19  21
ENDBRANCH  16  19
ENDBRANCH   7   9
BRANCH   1  31
HETATM   31  C2  UNL     1      20.142  34.160  33.637  1.00  0.00     0.090 C
HETATM   32  C1  UNL     1      18.866  34.447  32.862  1.00  0.00     0.076 C
HETATM   33  N1  UNL     1      20.297  32.967  33.983  1.00  0.00    -0.285 N
ATOM     34  H1  UNL     1      19.530  32.363  33.684  1.00  0.00     0.187 HD
BRANCH  33  35
HETATM   35  N2  UNL     1      21.265  32.299  34.670  1.00  0.00    -0.131 N
HETATM   36  C3  UNL     1      21.658  32.735  35.976  1.00  0.00     0.709 C
HETATM   37  N3  UNL     1      20.824  32.756  36.946  1.00  0.00    -0.232 N
HETATM   38  N4  UNL     1      22.990  33.147  36.187  1.00  0.00    -0.071 N
ATOM     39  H32 UNL     1      19.860  32.458  36.794  1.00  0.00     0.174 HD
ATOM     40  H31 UNL     1      21.104  33.067  37.877  1.00  0.00     0.174 HD
ATOM     41  H4  UNL     1      23.570  33.457  35.408  1.00  0.00     0.212 HD
ATOM     42  H2  UNL     1      21.713  31.484  34.251  1.00  0.00     0.205 HD
BRANCH  38  43
HETATM   43  N5  UNL     1      23.493  33.122  37.481  1.00  0.00    -0.024 N
HETATM   44  O1  UNL     1      24.254  32.212  37.824  1.00  0.00    -0.516 OA
HETATM   45  O2  UNL     1      23.147  34.098  38.364  1.00  0.00    -0.516 OA
ENDBRANCH  38  43
ENDBRANCH  33  35
ENDBRANCH   1  31
TORSDOF 7
ENDMDL