MODEL 5
REMARK VINA RESULT: -8.384203744      3.989      9.850
REMARK  10 active torsions:
REMARK  status: ('A' for Active; 'I' for Inactive)
REMARK    1  A    between atoms: C2_2  and  C12_12
REMARK    2  A    between atoms: C3_3  and  C4_4
REMARK    3  A    between atoms: C4_4  and  C5_5
REMARK    4  A    between atoms: C5_5  and  C6_6
REMARK       I    between atoms: C12_12  and  N1_14
REMARK    5  A    between atoms: N1_14  and  N2_16
REMARK       I    between atoms: N2_16  and  C13_18
REMARK    6  A    between atoms: C13_18  and  C14_20
REMARK       I    between atoms: C14_20  and  N3_22
REMARK    7  A    between atoms: N3_22  and  N4_24
REMARK       I    between atoms: C15_26  and  N6_28
REMARK       I    between atoms: C16_30  and  N7_31
REMARK       I    between atoms: C16_30  and  N11_41
REMARK    8  A    between atoms: N7_31  and  N8_33
REMARK    9  A    between atoms: N8_33  and  C17_35
REMARK   10  A    between atoms: C17_35  and  N9_37
REMARK       I    between atoms: N11_41  and  C19_43
ROOT
HETATM    1  N9  UNL     1      19.953  36.526  30.759  1.00  0.00    -0.269 N
ATOM      2  H9  UNL     1      18.984  36.699  31.031  1.00  0.00     0.180 HD
HETATM    3  C18 UNL     1      20.256  36.103  29.442  1.00  0.00     0.184 C
HETATM    4  N10 UNL     1      20.512  35.760  28.366  1.00  0.00    -0.172 NA
ENDROOT
BRANCH   1   5
HETATM    5  C17 UNL     1      20.988  36.708  31.690  1.00  0.00     0.200 C
HETATM    6  S1  UNL     1      21.788  38.126  31.762  1.00  0.00    -0.038 SA
BRANCH   5   7
HETATM    7  N8  UNL     1      21.361  35.674  32.580  1.00  0.00    -0.261 N
ATOM      8  H8  UNL     1      22.221  35.149  32.419  1.00  0.00     0.190 HD
BRANCH   7   9
HETATM    9  N7  UNL     1      20.560  35.372  33.670  1.00  0.00    -0.130 N
HETATM   10  C16 UNL     1      20.839  35.946  34.933  1.00  0.00     0.703 C
HETATM   11  N6  UNL     1      20.329  37.103  35.156  1.00  0.00    -0.161 N
HETATM   12  N11 UNL     1      21.624  35.325  35.911  1.00  0.00    -0.142 N
HETATM   13  C15 UNL     1      20.561  37.744  36.398  1.00  0.00     0.221 C
ATOM     14  H6  UNL     1      19.759  37.558  34.442  1.00  0.00     0.187 HD
HETATM   15  N4  UNL     1      21.515  38.589  36.502  1.00  0.00    -0.270 N
HETATM   16  N5  UNL     1      19.720  37.433  37.522  1.00  0.00    -0.061 NA
ATOM     17  H4  UNL     1      21.684  39.051  37.396  1.00  0.00     0.189 HD
HETATM   18  C19 UNL     1      22.220  34.033  35.726  1.00  0.00     0.347 C
ATOM     19  H11 UNL     1      21.780  35.812  36.794  1.00  0.00     0.189 HD
HETATM   20  N12 UNL     1      23.009  33.445  36.747  1.00  0.00    -0.039 NA
HETATM   21  O4  UNL     1      22.063  33.390  34.668  1.00  0.00    -0.250 OA
ATOM     22  H7  UNL     1      19.769  34.737  33.562  1.00  0.00     0.205 HD
BRANCH  15  23
HETATM   23  N3  UNL     1      22.320  38.885  35.420  1.00  0.00    -0.259 N
HETATM   24  C14 UNL     1      23.715  38.760  35.538  1.00  0.00     0.329 C
HETATM   25  O3  UNL     1      24.207  38.382  36.630  1.00  0.00    -0.261 OA
ATOM     26  H3  UNL     1      21.905  39.192  34.541  1.00  0.00     0.190 HD
BRANCH  24  27
HETATM   27  C13 UNL     1      24.583  39.060  34.421  1.00  0.00     0.329 C
HETATM   28  N2  UNL     1      24.607  40.376  33.862  1.00  0.00    -0.259 N
ATOM     29  H2  UNL     1      23.992  41.073  34.281  1.00  0.00     0.190 HD
HETATM   30  O2  UNL     1      25.340  38.216  33.893  1.00  0.00    -0.261 OA
BRANCH  28  31
HETATM   31  N1  UNL     1      25.389  40.778  32.811  1.00  0.00    -0.263 N
HETATM   32  C12 UNL     1      25.112  41.999  32.106  1.00  0.00     0.265 C
HETATM   33  O1  UNL     1      24.117  42.641  32.520  1.00  0.00    -0.266 OA
ATOM     34  H1  UNL     1      26.180  40.201  32.525  1.00  0.00     0.190 HD
BRANCH  32  35
HETATM   35  C2  UNL     1      25.945  42.427  31.003  1.00  0.00     0.004 C
HETATM   36  C1  UNL     1      25.781  41.690  29.684  1.00  0.00     0.054 C
HETATM   37  C3  UNL     1      26.823  43.366  31.070  1.00  0.00    -0.014 C
BRANCH  37  38
HETATM   38  C4  UNL     1      27.223  44.251  32.158  1.00  0.00     0.032 C
BRANCH  38  39
HETATM   39  C5  UNL     1      28.713  44.519  32.075  1.00  0.00     0.042 C
BRANCH  39  40
HETATM   40  C6  UNL     1      29.063  45.846  31.562  1.00  0.00    -0.058 A
HETATM   41  C7  UNL     1      29.068  46.170  30.225  1.00  0.00     0.007 A
HETATM   42  C8  UNL     1      29.398  47.447  29.787  1.00  0.00     0.001 A
HETATM   43  C9  UNL     1      29.734  48.431  30.700  1.00  0.00     0.000 A
HETATM   44  C10 UNL     1      29.732  48.117  32.035  1.00  0.00     0.001 A
HETATM   45  C11 UNL     1      29.400  46.836  32.459  1.00  0.00     0.007 A
ENDBRANCH  39  40
ENDBRANCH  38  39
ENDBRANCH  37  38
ENDBRANCH  32  35
ENDBRANCH  28  31
ENDBRANCH  24  27
ENDBRANCH  15  23
ENDBRANCH   7   9
ENDBRANCH   5   7
ENDBRANCH   1   5
TORSDOF 10
ENDMDL