MODEL 4
REMARK VINA RESULT: -4.819073202      3.272      9.433
REMARK  5 active torsions:
REMARK  status: ('A' for Active; 'I' for Inactive)
REMARK    1  A    between atoms: C2_2  and  C4_4
REMARK    2  A    between atoms: C11_22  and  C12_23
REMARK    3  A    between atoms: C12_23  and  O3_24
REMARK    4  A    between atoms: O3_24  and  C13_25
REMARK    5  A    between atoms: C19_40  and  C20_41
ROOT
HETATM    1  C4  UNL     1      23.582  41.048  33.533  1.00  0.00     0.180 C
HETATM    2  N1  UNL     1      24.430  41.499  34.616  1.00  0.00    -0.346 N
ATOM      3  H1  UNL     1      25.427  41.579  34.413  1.00  0.00     0.163 HD
HETATM    4  C5  UNL     1      24.021  41.840  35.926  1.00  0.00     0.236 C
HETATM    5  O1  UNL     1      24.476  42.895  36.468  1.00  0.00    -0.272 OA
HETATM    6  C6  UNL     1      23.079  41.071  36.772  1.00  0.00     0.227 C
HETATM    7  N2  UNL     1      21.737  41.560  36.585  1.00  0.00    -0.334 N
ATOM      8  H2  UNL     1      21.599  42.272  35.867  1.00  0.00     0.164 HD
HETATM    9  C7  UNL     1      20.596  41.143  37.304  1.00  0.00     0.316 C
HETATM   10  O2  UNL     1      19.745  42.039  37.634  1.00  0.00    -0.247 OA
HETATM   11  N3  UNL     1      20.302  39.817  37.698  1.00  0.00    -0.342 N
ATOM     12  H3  UNL     1      19.989  39.667  38.657  1.00  0.00     0.164 HD
HETATM   13  C8  UNL     1      20.412  38.651  36.837  1.00  0.00     0.152 C
HETATM   14  C9  UNL     1      19.514  37.522  37.313  1.00  0.00     0.252 C
HETATM   15  N4  UNL     1      19.992  36.269  36.736  1.00  0.00    -0.072 N
ATOM     16  H41 UNL     1      19.636  35.463  37.251  1.00  0.00     0.277 HD
ATOM     17  H42 UNL     1      20.989  36.139  36.904  1.00  0.00     0.277 HD
HETATM   18  C10 UNL     1      19.683  36.175  35.345  1.00  0.00     0.259 C
HETATM   19  C11 UNL     1      20.636  35.300  34.560  1.00  0.00     0.134 C
HETATM   20  N7  UNL     1      21.961  35.260  35.142  1.00  0.00    -0.353 N
ATOM     21  H7  UNL     1      22.031  35.214  36.158  1.00  0.00     0.163 HD
HETATM   22  C16 UNL     1      23.171  35.278  34.399  1.00  0.00     0.218 C
HETATM   23  O6  UNL     1      24.152  34.587  34.798  1.00  0.00    -0.274 OA
HETATM   24  C17 UNL     1      23.378  36.068  33.155  1.00  0.00     0.105 C
HETATM   25  C18 UNL     1      24.800  36.525  33.124  1.00  0.00     0.041 C
HETATM   26  C19 UNL     1      24.978  38.018  33.357  1.00  0.00     0.146 C
HETATM   27  N8  UNL     1      23.810  38.522  34.042  1.00  0.00    -0.348 N
ATOM     28  H8  UNL     1      23.489  37.982  34.846  1.00  0.00     0.163 HD
HETATM   29  C21 UNL     1      23.062  39.679  33.724  1.00  0.00     0.241 C
HETATM   30  O8  UNL     1      21.787  39.587  33.573  1.00  0.00    -0.271 OA
ENDROOT
BRANCH  19  31
HETATM   31  C12 UNL     1      20.078  33.882  34.639  1.00  0.00     0.198 C
BRANCH  31  32
HETATM   32  O3  UNL     1      19.674  33.657  35.942  1.00  0.00    -0.355 OA
BRANCH  32  33
HETATM   33  C13 UNL     1      20.645  33.011  36.700  1.00  0.00     0.306 C
HETATM   34  C14 UNL     1      21.545  32.147  35.871  1.00  0.00     0.187 C
HETATM   35  N5  UNL     1      22.949  32.350  36.126  1.00  0.00    -0.337 N
HETATM   36  C15 UNL     1      23.326  32.756  37.441  1.00  0.00     0.340 C
ATOM     37  H5  UNL     1      23.646  32.209  35.394  1.00  0.00     0.164 HD
HETATM   38  O4  UNL     1      24.460  32.528  37.908  1.00  0.00    -0.245 OA
HETATM   39  N6  UNL     1      22.313  33.441  38.185  1.00  0.00    -0.214 N
HETATM   40  O5  UNL     1      21.295  33.957  37.455  1.00  0.00    -0.242 OA
ATOM     41  H6  UNL     1      22.355  33.536  39.200  1.00  0.00     0.199 HD
ENDBRANCH  32  33
ENDBRANCH  31  32
ENDBRANCH  19  31
BRANCH  26  42
HETATM   42  C20 UNL     1      26.215  38.119  34.199  1.00  0.00     0.256 C
HETATM   43  O7  UNL     1      26.389  38.955  35.052  1.00  0.00    -0.305 OA
ENDBRANCH  26  42
BRANCH   1  44
HETATM   44  C2  UNL     1      24.286  41.241  32.211  1.00  0.00     0.009 C
HETATM   45  C1  UNL     1      23.849  42.535  31.554  1.00  0.00     0.012 C
HETATM   46  C3  UNL     1      25.771  41.448  32.563  1.00  0.00     0.012 C
ENDBRANCH   1  44
TORSDOF 5
ENDMDL