MODEL 4
REMARK VINA RESULT: -2.093652814      1.730      2.050
REMARK  5 active torsions:
REMARK  status: ('A' for Active; 'I' for Inactive)
REMARK    1  A    between atoms: S1_2  and  C2_3
REMARK    2  A    between atoms: C2_3  and  C3_4
REMARK    3  A    between atoms: C3_4  and  C4_5
REMARK    4  A    between atoms: C16_34  and  C17_35
REMARK    5  A    between atoms: C17_35  and  C18_36
ROOT
HETATM    1  C4  UNL     1      22.531  35.740  32.809  1.00  0.00     0.177 C
HETATM    2  N1  UNL     1      22.601  37.157  32.514  1.00  0.00    -0.347 N
ATOM      3  H1  UNL     1      21.811  37.543  31.996  1.00  0.00     0.163 HD
HETATM    4  C5  UNL     1      23.614  38.065  32.848  1.00  0.00     0.230 C
HETATM    5  O1  UNL     1      24.138  38.758  31.902  1.00  0.00    -0.273 OA
HETATM    6  C6  UNL     1      24.179  38.343  34.187  1.00  0.00     0.211 C
HETATM    7  S2  UNL     1      24.836  40.020  34.263  1.00  0.00     0.025 S
HETATM    8  O2  UNL     1      25.226  40.439  35.818  1.00  0.00    -0.258 OA
HETATM    9  C7  UNL     1      23.776  41.172  33.473  1.00  0.00     0.136 C
HETATM   10  C8  UNL     1      24.086  42.554  34.019  1.00  0.00     0.244 C
HETATM   11  N2  UNL     1      22.842  43.273  34.188  1.00  0.00    -0.074 N
ATOM     12  H21 UNL     1      22.228  43.205  33.376  1.00  0.00     0.277 HD
ATOM     13  H22 UNL     1      22.962  44.287  34.177  1.00  0.00     0.277 HD
HETATM   14  C9  UNL     1      22.225  42.790  35.406  1.00  0.00     0.234 C
HETATM   15  C10 UNL     1      21.477  43.840  36.157  1.00  0.00     0.055 C
HETATM   16  C11 UNL     1      20.084  43.381  36.535  1.00  0.00     0.236 C
HETATM   17  N3  UNL     1      20.065  42.605  37.750  1.00  0.00    -0.059 N
ATOM     18  H31 UNL     1      19.313  42.912  38.368  1.00  0.00     0.279 HD
ATOM     19  H32 UNL     1      20.866  42.830  38.340  1.00  0.00     0.279 HD
HETATM   20  C12 UNL     1      19.987  41.177  37.504  1.00  0.00     0.357 C
HETATM   21  N4  UNL     1      21.233  40.510  37.785  1.00  0.00    -0.337 N
ATOM     22  H4  UNL     1      21.975  41.061  38.218  1.00  0.00     0.164 HD
HETATM   23  C13 UNL     1      21.506  39.159  37.510  1.00  0.00     0.236 C
HETATM   24  O3  UNL     1      22.649  38.689  37.760  1.00  0.00    -0.272 OA
HETATM   25  C14 UNL     1      20.525  38.204  36.932  1.00  0.00     0.225 C
HETATM   26  N5  UNL     1      20.419  38.319  35.488  1.00  0.00    -0.351 N
ATOM     27  H5  UNL     1      20.748  39.178  35.049  1.00  0.00     0.163 HD
HETATM   28  C15 UNL     1      19.891  37.321  34.666  1.00  0.00     0.241 C
HETATM   29  O4  UNL     1      19.276  37.654  33.622  1.00  0.00    -0.271 OA
HETATM   30  C16 UNL     1      20.016  35.856  34.959  1.00  0.00     0.186 C
HETATM   31  N6  UNL     1      20.199  35.092  33.755  1.00  0.00    -0.346 N
ATOM     32  H6  UNL     1      19.543  34.323  33.627  1.00  0.00     0.163 HD
HETATM   33  C19 UNL     1      21.136  35.244  32.740  1.00  0.00     0.241 C
HETATM   34  O7  UNL     1      20.761  34.913  31.562  1.00  0.00    -0.271 OA
ENDROOT
BRANCH   1  35
HETATM   35  C3  UNL     1      23.290  35.353  34.044  1.00  0.00     0.045 C
BRANCH  35  36
HETATM   36  C2  UNL     1      23.131  33.883  34.360  1.00  0.00     0.076 C
BRANCH  36  37
HETATM   37  S1  UNL     1      22.667  33.688  36.124  1.00  0.00    -0.173 SA
HETATM   38  C1  UNL     1      22.023  32.026  36.427  1.00  0.00     0.089 C
ENDBRANCH  36  37
ENDBRANCH  35  36
ENDBRANCH   1  35
BRANCH  30  39
HETATM   39  C17 UNL     1      18.767  35.448  35.717  1.00  0.00     0.147 C
BRANCH  39  40
HETATM   40  C18 UNL     1      18.181  34.183  35.259  1.00  0.00     0.175 C
HETATM   41  O5  UNL     1      17.219  34.138  34.469  1.00  0.00    -0.648 OA
HETATM   42  O6  UNL     1      18.742  32.987  35.746  1.00  0.00    -0.648 OA
ENDBRANCH  39  40
ENDBRANCH  30  39
TORSDOF 5
ENDMDL