MODEL 2
REMARK VINA RESULT: -5.482892057      1.897      2.282
REMARK  6 active torsions:
REMARK  status: ('A' for Active; 'I' for Inactive)
REMARK    1  A    between atoms: N1_1  and  C1_5
REMARK    2  A    between atoms: C1_5  and  C2_6
REMARK    3  A    between atoms: C8_14  and  C9_15
REMARK    4  A    between atoms: C9_15  and  C10_16
REMARK    5  A    between atoms: C10_16  and  C11_17
REMARK    6  A    between atoms: C11_17  and  N3_18
ROOT
HETATM    1  C2  UNL     1      20.030  41.065  37.302  1.00  0.00     0.156 C
HETATM    2  C3  UNL     1      20.105  39.996  38.352  1.00  0.00     0.034 C
HETATM    3  C4  UNL     1      19.436  38.753  37.828  1.00  0.00     0.004 C
HETATM    4  C5  UNL     1      20.376  37.581  37.754  1.00  0.00     0.020 C
HETATM    5  C6  UNL     1      21.740  37.951  37.260  1.00  0.00     0.134 C
HETATM    6  N2  UNL     1      21.696  38.753  36.029  1.00  0.00    -0.292 N
HETATM    7  C7  UNL     1      21.705  37.766  35.035  1.00  0.00     0.248 C
HETATM    8  O1  UNL     1      21.472  36.548  35.368  1.00  0.00    -0.271 OA
HETATM    9  C8  UNL     1      21.957  37.929  33.584  1.00  0.00     0.179 C
HETATM   10  N6  UNL     1      23.075  37.097  33.149  1.00  0.00    -0.330 N
ATOM     11  H6  UNL     1      22.864  36.144  32.851  1.00  0.00     0.165 HD
HETATM   12  C13 UNL     1      24.423  37.504  33.107  1.00  0.00     0.316 C
HETATM   13  O2  UNL     1      25.280  36.685  33.607  1.00  0.00    -0.247 OA
HETATM   14  N7  UNL     1      24.940  38.706  32.579  1.00  0.00    -0.342 N
ATOM     15  H7  UNL     1      25.605  39.213  33.162  1.00  0.00     0.164 HD
HETATM   16  C14 UNL     1      24.620  39.291  31.295  1.00  0.00     0.144 C
HETATM   17  C15 UNL     1      24.126  40.710  31.410  1.00  0.00     0.142 C
HETATM   18  N8  UNL     1      25.171  41.682  31.148  1.00  0.00    -0.359 N
ATOM     19  H8  UNL     1      25.387  41.881  30.171  1.00  0.00     0.162 HD
HETATM   20  C16 UNL     1      25.908  42.372  32.116  1.00  0.00     0.227 C
HETATM   21  O3  UNL     1      27.152  42.554  31.857  1.00  0.00    -0.273 OA
HETATM   22  C17 UNL     1      25.413  42.904  33.383  1.00  0.00     0.182 C
HETATM   23  S1  UNL     1      23.700  43.411  33.384  1.00  0.00    -0.115 SA
HETATM   24  C18 UNL     1      22.727  42.797  34.741  1.00  0.00     0.137 C
HETATM   25  N9  UNL     1      23.445  42.043  35.715  1.00  0.00    -0.324 N
ATOM     26  H9  UNL     1      24.373  42.346  36.008  1.00  0.00     0.169 HD
HETATM   27  C19 UNL     1      22.874  40.874  36.279  1.00  0.00     0.297 C
HETATM   28  O4  UNL     1      23.481  40.391  37.265  1.00  0.00    -0.263 OA
HETATM   29  C20 UNL     1      21.649  40.197  35.810  1.00  0.00     0.217 C
HETATM   30  O5  UNL     1      20.481  40.795  36.082  1.00  0.00    -0.324 OA
ENDROOT
BRANCH   9  31
HETATM   31  C9  UNL     1      20.727  37.412  32.833  1.00  0.00     0.037 C
BRANCH  31  32
HETATM   32  C10 UNL     1      21.068  36.159  32.057  1.00  0.00     0.022 C
BRANCH  32  33
HETATM   33  C11 UNL     1      19.995  35.105  32.247  1.00  0.00     0.122 C
BRANCH  33  34
HETATM   34  N3  UNL     1      19.821  34.931  33.671  1.00  0.00    -0.367 N
HETATM   35  C12 UNL     1      18.750  34.399  34.109  1.00  0.00     0.196 C
HETATM   36  N4  UNL     1      18.639  34.255  35.533  1.00  0.00    -0.067 NA
HETATM   37  N5  UNL     1      17.729  33.974  33.239  1.00  0.00    -0.067 NA
ATOM     38  H3  UNL     1      20.549  35.232  34.319  1.00  0.00     0.161 HD
ENDBRANCH  33  34
ENDBRANCH  32  33
ENDBRANCH  31  32
ENDBRANCH   9  31
BRANCH   1  39
HETATM   39  C1  UNL     1      20.505  42.391  37.918  1.00  0.00     0.262 C
BRANCH  39  40
HETATM   40  N1  UNL     1      20.389  43.448  36.899  1.00  0.00    -0.077 N
ATOM     41  H13 UNL     1      19.424  43.743  36.749  1.00  0.00     0.274 HD
ATOM     42  H12 UNL     1      20.761  44.343  37.219  1.00  0.00     0.274 HD
ATOM     43  H11 UNL     1      20.837  43.124  36.042  1.00  0.00     0.274 HD
ENDBRANCH  39  40
ENDBRANCH   1  39
TORSDOF 6
ENDMDL