MODEL 1
REMARK VINA RESULT: -9.814366232      0.000      0.000
REMARK  8 active torsions:
REMARK  status: ('A' for Active; 'I' for Inactive)
REMARK    1  A    between atoms: N3_4  and  C2_6
REMARK    2  A    between atoms: C2_6  and  C3_7
REMARK    3  A    between atoms: C4_8  and  O1_9
REMARK    4  A    between atoms: C5_11  and  O2_12
REMARK    5  A    between atoms: C6_14  and  C7_15
REMARK       I    between atoms: C7_15  and  N4_17
REMARK    6  A    between atoms: N4_17  and  C8_19
REMARK    7  A    between atoms: C13_24  and  C14_25
REMARK       I    between atoms: N6_35  and  C20_36
REMARK    8  A    between atoms: C20_36  and  C21_38
ROOT
HETATM    1  C3  UNL     1      25.872  42.223  32.132  1.00  0.00     0.137 C
HETATM    2  C4  UNL     1      25.317  41.019  31.351  1.00  0.00     0.173 C
HETATM    3  C5  UNL     1      23.906  40.913  31.917  1.00  0.00     0.181 C
HETATM    4  C6  UNL     1      23.515  42.308  32.306  1.00  0.00     0.211 C
HETATM    5  N6  UNL     1      24.744  43.095  32.294  1.00  0.00    -0.325 N
HETATM    6  C20 UNL     1      24.761  44.495  32.391  1.00  0.00     0.253 C
HETATM    7  O5  UNL     1      23.676  45.159  32.529  1.00  0.00    -0.271 OA
ENDROOT
BRANCH   4   8
HETATM    8  C7  UNL     1      22.925  42.286  33.658  1.00  0.00     0.243 C
HETATM    9  O3  UNL     1      22.994  43.326  34.394  1.00  0.00    -0.271 OA
HETATM   10  N4  UNL     1      22.273  41.140  34.182  1.00  0.00    -0.354 N
ATOM     11  H4  UNL     1      22.200  40.295  33.617  1.00  0.00     0.162 HD
BRANCH  10  12
HETATM   12  C8  UNL     1      21.722  41.166  35.489  1.00  0.00     0.091 C
HETATM   13  C9  UNL     1      20.301  41.750  35.436  1.00  0.00     0.026 C
HETATM   14  C10 UNL     1      20.007  42.271  36.826  1.00  0.00     0.002 C
HETATM   15  C11 UNL     1      20.619  41.331  37.843  1.00  0.00     0.001 C
HETATM   16  C12 UNL     1      20.691  39.911  37.310  1.00  0.00     0.009 C
HETATM   17  C13 UNL     1      21.752  39.862  36.215  1.00  0.00     0.046 C
BRANCH  17  18
HETATM   18  C14 UNL     1      21.581  38.646  35.382  1.00  0.00     0.260 C
HETATM   19  N5  UNL     1      20.264  38.406  34.891  1.00  0.00    -0.064 N
HETATM   20  C15 UNL     1      20.300  37.349  33.898  1.00  0.00     0.233 C
ATOM     21  H52 UNL     1      19.603  38.205  35.642  1.00  0.00     0.278 HD
ATOM     22  H51 UNL     1      19.826  39.255  34.534  1.00  0.00     0.278 HD
HETATM   23  C16 UNL     1      20.694  36.025  34.488  1.00  0.00     0.028 C
HETATM   24  C17 UNL     1      20.206  35.832  35.900  1.00  0.00     0.009 C
HETATM   25  C18 UNL     1      21.104  36.467  36.922  1.00  0.00     0.080 C
HETATM   26  C19 UNL     1      21.966  37.466  36.240  1.00  0.00     0.158 C
HETATM   27  O4  UNL     1      23.190  37.326  36.388  1.00  0.00    -0.296 OA
ENDBRANCH  17  18
ENDBRANCH  10  12
ENDBRANCH   4   8
BRANCH   3  28
HETATM   28  O2  UNL     1      23.023  40.400  30.982  1.00  0.00    -0.390 OA
ATOM     29  H2  UNL     1      23.103  39.456  30.908  1.00  0.00     0.210 HD
ENDBRANCH   3  28
BRANCH   2  30
HETATM   30  O1  UNL     1      25.263  41.383  30.018  1.00  0.00    -0.391 OA
ATOM     31  H1  UNL     1      24.416  41.113  29.686  1.00  0.00     0.210 HD
ENDBRANCH   2  30
BRANCH   1  32
HETATM   32  C2  UNL     1      26.416  41.731  33.438  1.00  0.00     0.150 C
BRANCH  32  33
HETATM   33  N3  UNL     1      26.257  40.283  33.528  1.00  0.00    -0.365 N
HETATM   34  C1  UNL     1      25.752  39.790  34.587  1.00  0.00     0.197 C
HETATM   35  N1  UNL     1      25.353  40.624  35.650  1.00  0.00    -0.067 NA
HETATM   36  N2  UNL     1      25.589  38.391  34.703  1.00  0.00    -0.067 NA
ATOM     37  H3  UNL     1      26.545  39.678  32.758  1.00  0.00     0.161 HD
ENDBRANCH  32  33
ENDBRANCH   1  32
BRANCH   6  38
HETATM   38  C21 UNL     1      26.005  45.296  32.340  1.00  0.00     0.294 C
HETATM   39  C22 UNL     1      25.684  46.688  31.840  1.00  0.00     0.156 C
HETATM   40  N7  UNL     1      26.818  47.506  31.636  1.00  0.00    -0.417 N
HETATM   41  C23 UNL     1      28.070  46.872  31.497  1.00  0.00     0.141 C
ATOM     42  H7  UNL     1      26.733  48.521  31.590  1.00  0.00     0.153 HD
HETATM   43  C24 UNL     1      28.101  45.410  31.347  1.00  0.00     0.252 C
HETATM   44  N8  UNL     1      26.834  44.744  31.238  1.00  0.00    -0.059 N
ATOM     45  H82 UNL     1      26.903  43.727  31.244  1.00  0.00     0.278 HD
ATOM     46  H81 UNL     1      26.403  44.828  30.317  1.00  0.00     0.278 HD
ENDBRANCH   6  38
TORSDOF 8
ENDMDL