MODEL 5
REMARK VINA RESULT: -7.333456477      3.410      5.742
REMARK  9 active torsions:
REMARK  status: ('A' for Active; 'I' for Inactive)
REMARK    1  A    between atoms: C1_2  and  C2_4
REMARK    2  A    between atoms: C5_9  and  N2_10
REMARK    3  A    between atoms: C7_17  and  C8_18
REMARK    4  A    between atoms: C8_18  and  N4_19
REMARK       I    between atoms: N4_19  and  C9_21
REMARK       I    between atoms: C9_21  and  N6_31
REMARK       I    between atoms: N5_22  and  C10_24
REMARK    5  A    between atoms: C10_24  and  C11_26
REMARK    6  A    between atoms: C12_27  and  C13_28
REMARK       I    between atoms: N6_31  and  C16_33
REMARK    7  A    between atoms: N8_35  and  C17_37
REMARK    8  A    between atoms: C17_37  and  C18_38
REMARK    9  A    between atoms: C18_38  and  O3_39
ROOT
HETATM    1  C8  UNL     1      20.612  38.013  33.883  1.00  0.00     0.172 C
ENDROOT
BRANCH   1   2
HETATM    2  C7  UNL     1      21.971  37.628  34.440  1.00  0.00     0.191 C
HETATM    3  N3  UNL     1      23.016  37.745  33.473  1.00  0.00    -0.386 N
HETATM    4  C6  UNL     1      23.866  38.865  33.548  1.00  0.00     0.089 C
ATOM      5  H3  UNL     1      23.143  37.037  32.750  1.00  0.00     0.159 HD
HETATM    6  C5  UNL     1      23.964  39.685  32.294  1.00  0.00     0.231 C
HETATM    7  C4  UNL     1      23.740  41.124  32.707  1.00  0.00     0.124 C
HETATM    8  S2  UNL     1      24.441  41.522  34.300  1.00  0.00    -0.095 SA
HETATM    9  S1  UNL     1      23.070  41.913  35.816  1.00  0.00    -0.095 SA
HETATM   10  C3  UNL     1      21.371  41.506  35.464  1.00  0.00     0.120 C
HETATM   11  C2  UNL     1      20.874  40.287  36.260  1.00  0.00     0.183 C
HETATM   12  N9  UNL     1      21.998  39.398  36.342  1.00  0.00    -0.346 N
HETATM   13  C19 UNL     1      22.252  38.158  35.782  1.00  0.00     0.242 C
ATOM     14  H9  UNL     1      22.758  39.749  36.926  1.00  0.00     0.163 HD
HETATM   15  O4  UNL     1      22.840  37.333  36.590  1.00  0.00    -0.271 OA
BRANCH   6  16
HETATM   16  N2  UNL     1      22.890  39.336  31.377  1.00  0.00    -0.070 N
ATOM     17  H23 UNL     1      22.248  38.640  31.756  1.00  0.00     0.275 HD
ATOM     18  H22 UNL     1      22.210  40.086  31.252  1.00  0.00     0.275 HD
ATOM     19  H21 UNL     1      23.328  39.044  30.504  1.00  0.00     0.275 HD
ENDBRANCH   6  16
BRANCH  11  20
HETATM   20  C1  UNL     1      20.412  40.705  37.602  1.00  0.00     0.254 C
HETATM   21  N1  UNL     1      20.045  42.036  37.853  1.00  0.00    -0.060 NA
HETATM   22  O1  UNL     1      20.353  39.854  38.504  1.00  0.00    -0.275 OA
ENDBRANCH  11  20
ENDBRANCH   1   2
BRANCH   1  23
HETATM   23  N4  UNL     1      20.362  37.393  32.601  1.00  0.00    -0.223 N
HETATM   24  C9  UNL     1      20.381  35.993  32.384  1.00  0.00     0.683 C
HETATM   25  N5  UNL     1      20.687  35.514  31.242  1.00  0.00    -0.149 N
HETATM   26  N6  UNL     1      20.060  35.049  33.401  1.00  0.00    -0.164 N
HETATM   27  C10 UNL     1      21.030  36.244  30.092  1.00  0.00     0.314 C
ATOM     28  H5  UNL     1      20.683  34.498  31.155  1.00  0.00     0.188 HD
HETATM   29  O2  UNL     1      22.062  36.955  30.025  1.00  0.00    -0.257 OA
HETATM   30  C16 UNL     1      18.818  34.366  33.477  1.00  0.00     0.202 C
ATOM     31  H6  UNL     1      20.762  34.853  34.115  1.00  0.00     0.187 HD
HETATM   32  N7  UNL     1      17.641  34.962  33.003  1.00  0.00    -0.063 NA
HETATM   33  N8  UNL     1      18.776  33.182  33.987  1.00  0.00    -0.362 N
ATOM     34  H8  UNL     1      19.650  32.777  34.320  1.00  0.00     0.162 HD
ATOM     35  H4  UNL     1      20.160  37.999  31.806  1.00  0.00     0.177 HD
BRANCH  27  36
HETATM   36  C11 UNL     1      20.217  36.232  28.887  1.00  0.00    -0.004 C
HETATM   37  C12 UNL     1      19.554  36.207  27.878  1.00  0.00    -0.092 C
BRANCH  37  38
HETATM   38  C13 UNL     1      18.761  36.155  26.648  1.00  0.00     0.065 A
HETATM   39  C14 UNL     1      18.778  37.420  25.795  1.00  0.00     0.018 A
HETATM   40  C15 UNL     1      19.533  36.234  25.331  1.00  0.00     0.018 A
ENDBRANCH  37  38
ENDBRANCH  27  36
BRANCH  33  41
HETATM   41  C17 UNL     1      17.589  32.399  34.117  1.00  0.00     0.148 C
BRANCH  41  42
HETATM   42  C18 UNL     1      17.178  31.710  32.829  1.00  0.00     0.183 C
BRANCH  42  43
HETATM   43  O3  UNL     1      16.009  32.302  32.393  1.00  0.00    -0.399 OA
ATOM     44  H3  UNL     1      15.954  32.171  31.454  1.00  0.00     0.209 HD
ENDBRANCH  42  43
ENDBRANCH  41  42
ENDBRANCH  33  41
ENDBRANCH   1  23
TORSDOF 9
ENDMDL