MODEL 1
REMARK VINA RESULT: -11.282574773      0.000      0.000
REMARK  7 active torsions:
REMARK  status: ('A' for Active; 'I' for Inactive)
REMARK    1  A    between atoms: C1_4  and  N2_5
REMARK    2  A    between atoms: C1_4  and  C15_23
REMARK    3  A    between atoms: N2_5  and  C2_7
REMARK    4  A    between atoms: C5_10  and  C6_11
REMARK    5  A    between atoms: C18_26  and  N4_27
REMARK    6  A    between atoms: N4_27  and  C19_29
REMARK    7  A    between atoms: C19_29  and  C20_30
ROOT
HETATM    1  N1  UNL     1      40.588  13.623  49.996  1.00  0.00    -0.385 N
ATOM      2  H11 UNL     1      40.014  12.900  50.427  1.00  0.00     0.157 HD
ATOM      3  H12 UNL     1      40.791  13.794  49.011  1.00  0.00     0.157 HD
HETATM    4  C1  UNL     1      41.034  14.501  50.876  1.00  0.00     0.110 C
ENDROOT
BRANCH   4   5
HETATM    5  N2  UNL     1      41.829  15.503  50.278  1.00  0.00    -0.342 N
ATOM      6  H2  UNL     1      42.530  15.970  50.851  1.00  0.00     0.167 HD
BRANCH   5   7
HETATM    7  C2  UNL     1      41.699  15.900  48.894  1.00  0.00     0.033 A
HETATM    8  C3  UNL     1      40.618  16.612  48.431  1.00  0.00     0.030 A
HETATM    9  C4  UNL     1      40.531  16.966  47.082  1.00  0.00     0.016 A
HETATM   10  C5  UNL     1      41.504  16.621  46.179  1.00  0.00    -0.002 A
HETATM   11  C13 UNL     1      42.590  15.908  46.640  1.00  0.00     0.016 A
HETATM   12  C14 UNL     1      42.691  15.550  47.978  1.00  0.00     0.030 A
BRANCH  10  13
HETATM   13  C6  UNL     1      41.425  16.986  44.764  1.00  0.00     0.085 A
HETATM   14  N3  UNL     1      40.604  17.862  44.223  1.00  0.00    -0.349 N
HETATM   15  C7  UNL     1      40.646  18.085  42.935  1.00  0.00     0.050 A
ATOM     16  H3  UNL     1      39.936  18.366  44.808  1.00  0.00     0.166 HD
HETATM   17  C8  UNL     1      39.828  18.994  42.226  1.00  0.00     0.031 A
HETATM   18  C12 UNL     1      41.562  17.383  42.201  1.00  0.00     0.033 A
HETATM   19  C9  UNL     1      39.988  19.119  40.887  1.00  0.00     0.002 A
HETATM   20  C10 UNL     1      40.893  18.432  40.120  1.00  0.00     0.002 A
HETATM   21  C11 UNL     1      41.702  17.536  40.812  1.00  0.00     0.021 A
HETATM   22  S1  UNL     1      42.312  16.434  43.417  1.00  0.00    -0.070 SA
ENDBRANCH  10  13
ENDBRANCH   5   7
ENDBRANCH   4   5
BRANCH   4  23
HETATM   23  C15 UNL     1      40.748  14.261  52.258  1.00  0.00     0.019 A
HETATM   24  C16 UNL     1      41.586  13.365  52.957  1.00  0.00     0.018 A
HETATM   25  C17 UNL     1      41.508  13.119  54.300  1.00  0.00     0.031 A
HETATM   26  C18 UNL     1      40.565  13.766  55.051  1.00  0.00     0.039 A
HETATM   27  C25 UNL     1      39.699  14.664  54.430  1.00  0.00     0.001 A
HETATM   28  C26 UNL     1      38.733  15.296  55.183  1.00  0.00     0.014 A
HETATM   29  C30 UNL     1      39.811  14.888  53.050  1.00  0.00    -0.010 A
HETATM   30  C27 UNL     1      37.860  16.161  54.556  1.00  0.00     0.001 A
HETATM   31  C28 UNL     1      37.937  16.399  53.223  1.00  0.00     0.001 A
HETATM   32  C29 UNL     1      38.921  15.754  52.466  1.00  0.00     0.013 A
BRANCH  26  33
HETATM   33  N4  UNL     1      40.514  13.523  56.441  1.00  0.00    -0.384 N
ATOM     34  H4  UNL     1      39.611  13.453  56.909  1.00  0.00     0.160 HD
BRANCH  33  35
HETATM   35  C19 UNL     1      41.743  13.370  57.212  1.00  0.00     0.176 C
BRANCH  35  36
HETATM   36  C20 UNL     1      41.385  13.291  58.656  1.00  0.00     0.026 A
HETATM   37  C21 UNL     1      42.067  14.036  59.592  1.00  0.00     0.027 A
HETATM   38  C22 UNL     1      41.682  13.923  60.932  1.00  0.00     0.003 A
HETATM   39  C23 UNL     1      40.655  13.094  61.313  1.00  0.00     0.017 A
HETATM   40  C24 UNL     1      39.986  12.354  60.339  1.00  0.00     0.088 A
HETATM   41  N5  UNL     1      40.368  12.474  59.059  1.00  0.00    -0.368 N
ATOM     42  H5  UNL     1      39.874  11.928  58.351  1.00  0.00     0.165 HD
ENDBRANCH  35  36
ENDBRANCH  33  35
ENDBRANCH  26  33
ENDBRANCH   4  23
TORSDOF 7
ENDMDL