MODEL 4
REMARK VINA RESULT: -9.629976270      4.299      7.017
REMARK  6 active torsions:
REMARK  status: ('A' for Active; 'I' for Inactive)
REMARK       I    between atoms: C1_2  and  N1_3
REMARK       I    between atoms: C1_2  and  N2_10
REMARK    1  A    between atoms: N1_3  and  C2_4
REMARK    2  A    between atoms: N2_10  and  C8_12
REMARK    3  A    between atoms: C11_15  and  O2_16
REMARK    4  A    between atoms: O2_16  and  C12_17
REMARK    5  A    between atoms: C13_20  and  O3_21
REMARK    6  A    between atoms: O3_21  and  C14_22
ROOT
HETATM    1  C12 UNL     1      41.452  15.100  55.114  1.00  0.00     0.163 A
HETATM    2  N3  UNL     1      42.535  14.716  54.364  1.00  0.00    -0.301 N
ATOM      3  H3  UNL     1      43.387  14.418  54.841  1.00  0.00     0.171 HD
HETATM    4  C13 UNL     1      42.508  14.720  53.023  1.00  0.00     0.231 A
HETATM    5  N6  UNL     1      41.384  15.108  52.358  1.00  0.00    -0.321 N
ATOM      6  H6  UNL     1      41.377  15.106  51.338  1.00  0.00     0.169 HD
HETATM    7  C21 UNL     1      40.278  15.497  53.034  1.00  0.00     0.049 A
HETATM    8  C22 UNL     1      39.131  15.905  52.384  1.00  0.00     0.030 A
HETATM    9  C23 UNL     1      38.026  16.309  53.066  1.00  0.00     0.002 A
HETATM   10  C24 UNL     1      38.079  16.299  54.457  1.00  0.00     0.001 A
HETATM   11  C25 UNL     1      39.203  15.897  55.142  1.00  0.00     0.018 A
HETATM   12  C26 UNL     1      40.318  15.490  54.404  1.00  0.00     0.042 A
ENDROOT
BRANCH   1  13
HETATM   13  O2  UNL     1      41.431  15.125  56.434  1.00  0.00    -0.293 OA
BRANCH  13  14
HETATM   14  C11 UNL     1      41.543  14.203  57.415  1.00  0.00     0.078 A
HETATM   15  C10 UNL     1      40.475  13.321  57.651  1.00  0.00     0.039 A
HETATM   16  C9  UNL     1      40.534  12.390  58.625  1.00  0.00     0.032 A
HETATM   17  C8  UNL     1      41.648  12.228  59.472  1.00  0.00     0.037 A
HETATM   18  C28 UNL     1      42.693  13.077  59.252  1.00  0.00     0.032 A
HETATM   19  C27 UNL     1      42.621  14.020  58.254  1.00  0.00     0.039 A
BRANCH  17  20
HETATM   20  N2  UNL     1      41.555  11.263  60.492  1.00  0.00    -0.297 N
HETATM   21  C1  UNL     1      40.768  11.580  61.694  1.00  0.00     0.398 C
HETATM   22  O1  UNL     1      40.277  12.759  61.666  1.00  0.00    -0.230 OA
HETATM   23  N1  UNL     1      40.602  10.686  62.682  1.00  0.00    -0.352 NA
ATOM     24  H2  UNL     1      42.023  10.362  60.399  1.00  0.00     0.172 HD
BRANCH  23  25
HETATM   25  C2  UNL     1      40.431   9.780  63.690  1.00  0.00     0.112 A
HETATM   26  C3  UNL     1      41.368   8.714  63.752  1.00  0.00     0.045 A
HETATM   27  C4  UNL     1      41.331   7.759  64.720  1.00  0.00     0.003 A
HETATM   28  C5  UNL     1      40.355   7.831  65.666  1.00  0.00     0.000 A
HETATM   29  C6  UNL     1      39.408   8.820  65.692  1.00  0.00     0.003 A
HETATM   30  C7  UNL     1      39.483   9.768  64.688  1.00  0.00     0.045 A
ENDBRANCH  23  25
ENDBRANCH  17  20
ENDBRANCH  13  14
ENDBRANCH   1  13
BRANCH   4  31
HETATM   31  O3  UNL     1      43.623  14.327  52.275  1.00  0.00    -0.279 OA
BRANCH  31  32
HETATM   32  C14 UNL     1      43.503  13.270  51.371  1.00  0.00     0.081 A
HETATM   33  C15 UNL     1      43.240  12.001  51.814  1.00  0.00     0.040 A
HETATM   34  C16 UNL     1      43.115  10.923  50.942  1.00  0.00     0.035 A
HETATM   35  C17 UNL     1      43.253  11.107  49.581  1.00  0.00     0.060 A
HETATM   36  N4  UNL     1      43.185  10.281  48.513  1.00  0.00    -0.351 N
HETATM   37  C19 UNL     1      43.519  12.379  49.118  1.00  0.00     0.062 A
HETATM   38  C18 UNL     1      43.400  10.994  47.393  1.00  0.00     0.181 A
ATOM     39  H4  UNL     1      43.000   9.278  48.551  1.00  0.00     0.166 HD
HETATM   40  N5  UNL     1      43.601  12.266  47.782  1.00  0.00    -0.350 N
ATOM     41  H5  UNL     1      43.791  13.041  47.147  1.00  0.00     0.166 HD
HETATM   42  C20 UNL     1      43.643  13.451  50.006  1.00  0.00     0.069 A
ENDBRANCH  31  32
ENDBRANCH   4  31
TORSDOF 6
ENDMDL