MODEL 3
REMARK VINA RESULT: -9.447379436      1.417      2.116
REMARK  6 active torsions:
REMARK  status: ('A' for Active; 'I' for Inactive)
REMARK       I    between atoms: C1_2  and  N1_3
REMARK       I    between atoms: C1_2  and  N4_23
REMARK    1  A    between atoms: N1_3  and  C2_4
REMARK    2  A    between atoms: C5_7  and  C6_8
REMARK    3  A    between atoms: C8_11  and  C9_12
REMARK    4  A    between atoms: N4_23  and  C16_25
REMARK    5  A    between atoms: C21_30  and  O2_31
REMARK    6  A    between atoms: O2_31  and  C22_32
ROOT
HETATM    1  O1  UNL     1      41.456  15.114  56.664  1.00  0.00    -0.230 OA
HETATM    2  C1  UNL     1      40.772  14.128  56.951  1.00  0.00     0.398 C
HETATM    3  N1  UNL     1      40.955  13.232  57.967  1.00  0.00    -0.352 NA
HETATM    4  N4  UNL     1      39.613  13.906  56.069  1.00  0.00    -0.294 N
ATOM      5  H4  UNL     1      39.028  13.105  56.305  1.00  0.00     0.172 HD
ENDROOT
BRANCH   3   6
HETATM    6  C2  UNL     1      41.135  12.350  58.969  1.00  0.00     0.112 A
HETATM    7  C3  UNL     1      42.270  11.590  59.177  1.00  0.00     0.045 A
HETATM    8  C4  UNL     1      42.375  10.809  60.302  1.00  0.00     0.017 A
HETATM    9  C5  UNL     1      41.396  10.739  61.246  1.00  0.00    -0.009 A
HETATM   10  C14 UNL     1      40.261  11.486  61.043  1.00  0.00     0.017 A
HETATM   11  C15 UNL     1      40.115  12.280  59.934  1.00  0.00     0.045 A
BRANCH   9  12
HETATM   12  C6  UNL     1      41.558   9.986  62.508  1.00  0.00     0.050 A
HETATM   13  C7  UNL     1      42.810   9.560  62.959  1.00  0.00     0.082 A
HETATM   14  S1  UNL     1      42.415   8.731  64.380  1.00  0.00    -0.081 SA
HETATM   15  C8  UNL     1      40.699   8.951  64.352  1.00  0.00     0.085 A
HETATM   16  N3  UNL     1      40.543   9.644  63.261  1.00  0.00    -0.349 N
ATOM     17  H3  UNL     1      39.603   9.928  62.985  1.00  0.00     0.166 HD
BRANCH  15  18
HETATM   18  C9  UNL     1      39.718   8.427  65.301  1.00  0.00     0.000 A
HETATM   19  C10 UNL     1      40.176   7.715  66.386  1.00  0.00     0.031 A
HETATM   20  C11 UNL     1      39.254   7.220  67.285  1.00  0.00     0.088 A
HETATM   21  N2  UNL     1      37.951   7.443  67.076  1.00  0.00    -0.375 N
HETATM   22  C12 UNL     1      37.476   8.135  66.024  1.00  0.00     0.088 A
ATOM     23  H2  UNL     1      37.283   7.068  67.750  1.00  0.00     0.164 HD
HETATM   24  C13 UNL     1      38.397   8.633  65.122  1.00  0.00     0.031 A
ENDBRANCH  15  18
ENDBRANCH   9  12
ENDBRANCH   3   6
BRANCH   4  25
HETATM   25  C16 UNL     1      39.214  14.627  54.976  1.00  0.00     0.071 A
HETATM   26  C17 UNL     1      38.420  15.762  55.008  1.00  0.00     0.032 A
HETATM   27  C18 UNL     1      38.165  16.507  53.900  1.00  0.00     0.002 A
HETATM   28  C19 UNL     1      38.720  16.120  52.688  1.00  0.00     0.003 A
HETATM   29  C20 UNL     1      39.518  14.984  52.630  1.00  0.00     0.039 A
HETATM   30  C21 UNL     1      39.768  14.248  53.728  1.00  0.00     0.102 A
BRANCH  30  31
HETATM   31  O2  UNL     1      40.570  13.090  53.691  1.00  0.00    -0.308 OA
BRANCH  31  32
HETATM   32  C22 UNL     1      41.854  13.283  53.145  1.00  0.00     0.078 A
HETATM   33  C23 UNL     1      42.696  14.184  53.731  1.00  0.00     0.038 A
HETATM   34  C24 UNL     1      43.973  14.441  53.261  1.00  0.00     0.018 A
HETATM   35  C25 UNL     1      44.389  13.725  52.131  1.00  0.00     0.009 A
HETATM   36  C26 UNL     1      45.592  13.751  51.426  1.00  0.00     0.120 A
HETATM   37  C27 UNL     1      43.558  12.811  51.523  1.00  0.00     0.062 A
HETATM   38  N5  UNL     1      45.456  12.863  50.424  1.00  0.00    -0.311 N
HETATM   39  N6  UNL     1      44.261  12.311  50.482  1.00  0.00    -0.300 N
ATOM     40  H5  UNL     1      46.169  12.650  49.726  1.00  0.00     0.186 HD
ATOM     41  H6  UNL     1      43.914  11.605  49.832  1.00  0.00     0.187 HD
HETATM   42  C28 UNL     1      42.281  12.583  52.028  1.00  0.00     0.069 A
ENDBRANCH  31  32
ENDBRANCH  30  31
ENDBRANCH   4  25
TORSDOF 6
ENDMDL