MODEL 4
REMARK VINA RESULT: -9.731362475      1.181      1.583
REMARK  6 active torsions:
REMARK  status: ('A' for Active; 'I' for Inactive)
REMARK       I    between atoms: C1_2  and  N1_3
REMARK       I    between atoms: C1_2  and  N5_30
REMARK    1  A    between atoms: N1_3  and  C2_5
REMARK    2  A    between atoms: C6_9  and  O2_10
REMARK    3  A    between atoms: O2_10  and  C7_11
REMARK    4  A    between atoms: C10_14  and  C11_15
REMARK    5  A    between atoms: N5_30  and  C20_32
REMARK    6  A    between atoms: C22_36  and  C23_37
ROOT
HETATM    1  C2  UNL     1      40.463  14.240  56.325  1.00  0.00     0.039 A
HETATM    2  C3  UNL     1      39.175  14.744  56.033  1.00  0.00     0.030 A
HETATM    3  C4  UNL     1      38.639  14.758  54.795  1.00  0.00     0.005 A
HETATM    4  C5  UNL     1      39.368  14.255  53.734  1.00  0.00     0.037 A
HETATM    5  C6  UNL     1      40.609  13.760  53.960  1.00  0.00     0.078 A
HETATM    6  C19 UNL     1      41.149  13.755  55.253  1.00  0.00     0.066 A
ENDROOT
BRANCH   5   7
HETATM    7  O2  UNL     1      41.392  13.240  52.923  1.00  0.00    -0.309 OA
BRANCH   7   8
HETATM    8  C7  UNL     1      41.373  13.878  51.685  1.00  0.00     0.091 A
HETATM    9  C8  UNL     1      41.356  13.124  50.533  1.00  0.00     0.041 A
HETATM   10  C9  UNL     1      41.338  13.779  49.322  1.00  0.00     0.036 A
HETATM   11  C10 UNL     1      41.337  15.153  49.262  1.00  0.00     0.076 A
HETATM   12  N4  UNL     1      41.354  15.871  50.399  1.00  0.00    -0.360 N
HETATM   13  C18 UNL     1      41.373  15.269  51.600  1.00  0.00     0.125 A
ATOM     14  H4  UNL     1      41.354  16.889  50.349  1.00  0.00     0.165 HD
BRANCH  11  15
HETATM   15  C11 UNL     1      41.318  15.834  47.954  1.00  0.00     0.133 A
HETATM   16  N2  UNL     1      42.358  16.346  47.282  1.00  0.00    -0.339 N
HETATM   17  C12 UNL     1      41.911  16.888  46.113  1.00  0.00     0.060 A
ATOM     18  H2  UNL     1      43.329  16.333  47.595  1.00  0.00     0.167 HD
HETATM   19  C13 UNL     1      42.577  17.532  45.076  1.00  0.00     0.032 A
HETATM   20  C17 UNL     1      40.550  16.694  46.078  1.00  0.00     0.060 A
HETATM   21  C14 UNL     1      41.862  17.990  43.989  1.00  0.00     0.002 A
HETATM   22  C15 UNL     1      40.505  17.807  43.936  1.00  0.00     0.002 A
HETATM   23  C16 UNL     1      39.864  17.166  44.975  1.00  0.00     0.032 A
HETATM   24  N3  UNL     1      40.232  16.054  47.211  1.00  0.00    -0.339 N
ATOM     25  H3  UNL     1      39.287  15.771  47.471  1.00  0.00     0.167 HD
ENDBRANCH  11  15
ENDBRANCH   7   8
ENDBRANCH   5   7
BRANCH   1  26
HETATM   26  N1  UNL     1      40.908  14.312  57.663  1.00  0.00    -0.309 N
HETATM   27  C1  UNL     1      40.905  13.222  58.575  1.00  0.00     0.325 C
HETATM   28  O1  UNL     1      40.477  12.120  58.197  1.00  0.00    -0.247 OA
HETATM   29  N5  UNL     1      41.377  13.381  59.887  1.00  0.00    -0.301 N
ATOM     30  H5  UNL     1      41.720  14.302  60.162  1.00  0.00     0.171 HD
ATOM     31  H1  UNL     1      41.257  15.209  57.998  1.00  0.00     0.170 HD
BRANCH  29  32
HETATM   32  C20 UNL     1      41.407  12.354  60.848  1.00  0.00     0.095 A
HETATM   33  C21 UNL     1      42.423  11.686  61.456  1.00  0.00     0.126 A
HETATM   34  N6  UNL     1      42.134  10.763  62.322  1.00  0.00    -0.357 N
HETATM   35  C22 UNL     1      40.880  10.486  62.602  1.00  0.00     0.086 A
ATOM     36  H6  UNL     1      42.883  10.251  62.788  1.00  0.00     0.166 HD
HETATM   37  S1  UNL     1      40.031  11.577  61.596  1.00  0.00    -0.052 SA
BRANCH  35  38
HETATM   38  C23 UNL     1      40.342   9.483  63.548  1.00  0.00    -0.002 A
HETATM   39  C24 UNL     1      39.473   9.867  64.541  1.00  0.00     0.014 A
HETATM   40  C25 UNL     1      38.962   8.917  65.438  1.00  0.00     0.001 A
HETATM   41  C26 UNL     1      39.332   7.594  65.325  1.00  0.00     0.000 A
HETATM   42  C27 UNL     1      40.206   7.250  64.315  1.00  0.00     0.001 A
HETATM   43  C28 UNL     1      40.718   8.196  63.418  1.00  0.00     0.014 A
ENDBRANCH  35  38
ENDBRANCH  29  32
ENDBRANCH   1  26
TORSDOF 6
ENDMDL