MODEL 2
REMARK VINA RESULT: -11.615414108      0.344      1.125
REMARK  8 active torsions:
REMARK  status: ('A' for Active; 'I' for Inactive)
REMARK    1  A    between atoms: O1_1  and  N1_3
REMARK    2  A    between atoms: C1_5  and  O2_6
REMARK    3  A    between atoms: C1_5  and  C2_8
REMARK    4  A    between atoms: C7_17  and  O3_18
REMARK    5  A    between atoms: O3_18  and  C8_19
REMARK    6  A    between atoms: C11_22  and  C12_23
REMARK    7  A    between atoms: C13_24  and  C14_25
REMARK    8  A    between atoms: C13_24  and  C20_31
ROOT
HETATM    1  C8  UNL     1      41.952  13.494  49.977  1.00  0.00     0.078 A
HETATM    2  C9  UNL     1      42.415  14.553  50.744  1.00  0.00     0.038 A
HETATM    3  C10 UNL     1      42.255  14.530  52.119  1.00  0.00     0.014 A
HETATM    4  C11 UNL     1      41.646  13.484  52.764  1.00  0.00    -0.035 A
HETATM    5  C28 UNL     1      41.184  12.432  52.018  1.00  0.00     0.014 A
HETATM    6  C29 UNL     1      41.340  12.442  50.628  1.00  0.00     0.038 A
ENDROOT
BRANCH   1   7
HETATM    7  O3  UNL     1      42.083  13.464  48.595  1.00  0.00    -0.291 OA
BRANCH   7   8
HETATM    8  C7  UNL     1      43.224  13.991  47.989  1.00  0.00     0.190 A
HETATM    9  N3  UNL     1      44.448  13.446  48.206  1.00  0.00    -0.278 N
HETATM   10  N2  UNL     1      45.491  13.990  47.605  1.00  0.00    -0.309 N
ATOM     11  H3  UNL     1      44.560  12.638  48.818  1.00  0.00     0.189 HD
HETATM   12  C6  UNL     1      45.395  15.052  46.793  1.00  0.00     0.121 A
ATOM     13  H2  UNL     1      46.413  13.583  47.765  1.00  0.00     0.186 HD
HETATM   14  C5  UNL     1      44.153  15.627  46.554  1.00  0.00     0.012 A
HETATM   15  C4  UNL     1      44.020  16.717  45.732  1.00  0.00     0.018 A
HETATM   16  C30 UNL     1      43.041  15.085  47.166  1.00  0.00     0.098 A
HETATM   17  C3  UNL     1      42.759  17.228  45.555  1.00  0.00     0.035 A
HETATM   18  C2  UNL     1      41.636  16.703  46.156  1.00  0.00     0.086 A
HETATM   19  N5  UNL     1      41.824  15.630  46.954  1.00  0.00    -0.349 N
ATOM     20  H5  UNL     1      41.014  15.214  47.415  1.00  0.00     0.166 HD
BRANCH  18  21
HETATM   21  C1  UNL     1      40.323  17.291  45.937  1.00  0.00     0.187 C
HETATM   22  N1  UNL     1      39.941  17.753  44.802  1.00  0.00    -0.246 N
ATOM     23  H1  UNL     1      40.584  17.708  44.011  1.00  0.00     0.196 HD
BRANCH  22  24
HETATM   24  O1  UNL     1      38.696  18.305  44.611  1.00  0.00    -0.288 OA
ATOM     25  H1  UNL     1      38.565  19.106  44.117  1.00  0.00     0.244 HD
ENDBRANCH  22  24
BRANCH  21  26
HETATM   26  O2  UNL     1      39.443  17.357  47.002  1.00  0.00    -0.343 OA
ATOM     27  H2  UNL     1      39.784  17.223  47.878  1.00  0.00     0.219 HD
ENDBRANCH  21  26
ENDBRANCH  18  21
ENDBRANCH   7   8
ENDBRANCH   1   7
BRANCH   4  28
HETATM   28  C12 UNL     1      41.566  13.475  54.203  1.00  0.00     0.026 C
HETATM   29  C13 UNL     1      40.703  14.009  55.010  1.00  0.00     0.002 C
BRANCH  29  30
HETATM   30  C14 UNL     1      39.575  14.786  54.573  1.00  0.00    -0.024 A
HETATM   31  C15 UNL     1      38.259  14.379  54.540  1.00  0.00     0.012 A
HETATM   32  C16 UNL     1      37.201  15.204  54.233  1.00  0.00     0.001 A
HETATM   33  C17 UNL     1      37.411  16.522  53.932  1.00  0.00     0.000 A
HETATM   34  C18 UNL     1      38.710  16.963  53.955  1.00  0.00     0.001 A
HETATM   35  C19 UNL     1      39.760  16.139  54.263  1.00  0.00     0.012 A
ENDBRANCH  29  30
BRANCH  29  36
HETATM   36  C20 UNL     1      40.917  13.829  56.470  1.00  0.00     0.044 A
HETATM   37  C21 UNL     1      41.862  14.408  57.283  1.00  0.00     0.044 A
HETATM   38  C22 UNL     1      41.688  14.006  58.590  1.00  0.00    -0.007 A
HETATM   39  C23 UNL     1      42.319  14.262  59.781  1.00  0.00     0.014 A
HETATM   40  C27 UNL     1      40.607  13.155  58.582  1.00  0.00     0.043 A
HETATM   41  C24 UNL     1      41.905  13.694  60.973  1.00  0.00     0.001 A
HETATM   42  C25 UNL     1      40.818  12.849  60.910  1.00  0.00     0.002 A
HETATM   43  C26 UNL     1      40.157  12.564  59.750  1.00  0.00     0.030 A
HETATM   44  N4  UNL     1      40.173  13.074  57.299  1.00  0.00    -0.355 N
ATOM     45  H4  UNL     1      39.378  12.510  56.999  1.00  0.00     0.166 HD
ENDBRANCH  29  36
ENDBRANCH   4  28
TORSDOF 8
ENDMDL