MODEL 2
REMARK VINA RESULT: -8.938963069      3.011      4.369
REMARK  6 active torsions:
REMARK  status: ('A' for Active; 'I' for Inactive)
REMARK    1  A    between atoms: C1_2  and  C2_4
REMARK    2  A    between atoms: C4_7  and  C5_8
REMARK    3  A    between atoms: C6_9  and  C7_10
REMARK    4  A    between atoms: C9_16  and  C10_17
REMARK    5  A    between atoms: C13_20  and  N3_21
REMARK    6  A    between atoms: N3_21  and  C14_23
ROOT
HETATM    1  C7  UNL     1      42.075  11.142  51.201  1.00  0.00     0.021 A
HETATM    2  C8  UNL     1      42.373   9.772  51.273  1.00  0.00     0.121 A
HETATM    3  N1  UNL     1      42.882   9.372  50.093  1.00  0.00    -0.310 N
ATOM      4  H1  UNL     1      43.187   8.428  49.857  1.00  0.00     0.186 HD
HETATM    5  N2  UNL     1      42.914  10.424  49.295  1.00  0.00    -0.299 N
ATOM      6  H2  UNL     1      43.255  10.412  48.333  1.00  0.00     0.187 HD
HETATM    7  C9  UNL     1      42.432  11.524  49.928  1.00  0.00     0.070 A
ENDROOT
BRANCH   1   8
HETATM    8  C6  UNL     1      41.473  11.920  52.258  1.00  0.00    -0.008 A
HETATM    9  C5  UNL     1      42.214  12.699  53.110  1.00  0.00     0.020 A
HETATM   10  C28 UNL     1      41.587  13.475  54.084  1.00  0.00    -0.012 A
HETATM   11  C23 UNL     1      40.190  13.466  54.201  1.00  0.00    -0.025 A
HETATM   12  C27 UNL     1      42.288  14.255  54.966  1.00  0.00     0.013 A
HETATM   13  C22 UNL     1      39.464  12.675  53.335  1.00  0.00     0.013 A
HETATM   14  C24 UNL     1      39.514  14.205  55.158  1.00  0.00     0.012 A
HETATM   15  C21 UNL     1      40.065  11.913  52.381  1.00  0.00     0.014 A
HETATM   16  C25 UNL     1      40.223  14.988  56.042  1.00  0.00     0.001 A
HETATM   17  C26 UNL     1      41.590  15.005  55.939  1.00  0.00     0.001 A
BRANCH   9  18
HETATM   18  C4  UNL     1      43.668  12.620  53.008  1.00  0.00     0.086 A
HETATM   19  S1  UNL     1      44.798  11.618  53.772  1.00  0.00    -0.081 SA
HETATM   20  C3  UNL     1      46.230  12.128  53.014  1.00  0.00     0.088 A
HETATM   21  C2  UNL     1      45.737  13.103  52.159  1.00  0.00     0.117 A
HETATM   22  N5  UNL     1      44.466  13.309  52.194  1.00  0.00    -0.344 N
ATOM     23  H5  UNL     1      44.061  14.018  51.583  1.00  0.00     0.167 HD
BRANCH  21  24
HETATM   24  C1  UNL     1      46.644  13.852  51.257  1.00  0.00     0.227 C
HETATM   25  O1  UNL     1      47.597  14.504  51.716  1.00  0.00    -0.643 OA
HETATM   26  O2  UNL     1      46.426  13.820  49.907  1.00  0.00    -0.643 OA
ENDBRANCH  21  24
ENDBRANCH   9  18
ENDBRANCH   1   8
BRANCH   7  27
HETATM   27  C10 UNL     1      42.289  12.867  49.403  1.00  0.00    -0.007 A
HETATM   28  C11 UNL     1      41.239  13.718  49.671  1.00  0.00     0.016 A
HETATM   29  C12 UNL     1      41.165  14.977  49.132  1.00  0.00     0.030 A
HETATM   30  C13 UNL     1      42.171  15.448  48.278  1.00  0.00     0.032 A
HETATM   31  C19 UNL     1      43.225  14.611  48.001  1.00  0.00     0.030 A
HETATM   32  C20 UNL     1      43.262  13.357  48.561  1.00  0.00     0.016 A
BRANCH  30  33
HETATM   33  N3  UNL     1      42.100  16.763  47.758  1.00  0.00    -0.355 N
ATOM     34  H3  UNL     1      42.371  17.538  48.361  1.00  0.00     0.166 HD
BRANCH  33  35
HETATM   35  C14 UNL     1      41.678  17.048  46.461  1.00  0.00     0.048 A
HETATM   36  C15 UNL     1      40.322  16.867  46.185  1.00  0.00     0.032 A
HETATM   37  C16 UNL     1      39.851  17.099  44.919  1.00  0.00     0.019 A
HETATM   38  C17 UNL     1      40.683  17.510  43.903  1.00  0.00     0.088 A
HETATM   39  N4  UNL     1      41.987  17.682  44.172  1.00  0.00    -0.373 N
HETATM   40  C18 UNL     1      42.463  17.458  45.408  1.00  0.00     0.117 A
ATOM     41  H4  UNL     1      42.621  17.985  43.432  1.00  0.00     0.164 HD
ENDBRANCH  33  35
ENDBRANCH  30  33
ENDBRANCH   7  27
TORSDOF 6
ENDMDL