MODEL 3
REMARK VINA RESULT: -9.829920440      0.996      1.242
REMARK  6 active torsions:
REMARK  status: ('A' for Active; 'I' for Inactive)
REMARK       I    between atoms: C1_2  and  N1_3
REMARK       I    between atoms: C1_2  and  N4_24
REMARK    1  A    between atoms: N1_3  and  N2_5
REMARK    2  A    between atoms: C2_7  and  C3_8
REMARK    3  A    between atoms: C6_11  and  C7_12
REMARK    4  A    between atoms: N3_13  and  C8_15
REMARK    5  A    between atoms: N4_24  and  C16_26
REMARK    6  A    between atoms: C21_31  and  C22_32
ROOT
HETATM    1  O1  UNL     1      42.953  12.742  55.665  1.00  0.00    -0.245 OA
HETATM    2  C1  UNL     1      43.524  13.846  55.679  1.00  0.00     0.339 C
HETATM    3  N1  UNL     1      43.492  14.464  57.010  1.00  0.00    -0.252 N
ATOM      4  H1  UNL     1      43.943  15.374  57.113  1.00  0.00     0.191 HD
HETATM    5  N4  UNL     1      44.156  14.525  54.616  1.00  0.00    -0.307 N
ATOM      6  H4  UNL     1      44.568  15.432  54.833  1.00  0.00     0.170 HD
ENDROOT
BRANCH   3   7
HETATM    7  N2  UNL     1      42.921  13.936  58.103  1.00  0.00    -0.307 N
HETATM    8  C2  UNL     1      42.510  14.305  59.215  1.00  0.00     0.118 C
ATOM      9  H2  UNL     1      42.785  12.932  57.986  1.00  0.00     0.186 HD
BRANCH   8  10
HETATM   10  C3  UNL     1      41.929  13.303  60.116  1.00  0.00    -0.019 A
HETATM   11  C4  UNL     1      41.449  13.725  61.339  1.00  0.00     0.014 A
HETATM   12  C5  UNL     1      40.898  12.823  62.207  1.00  0.00     0.013 A
HETATM   13  C6  UNL     1      40.811  11.466  61.876  1.00  0.00    -0.021 A
HETATM   14  C14 UNL     1      41.293  11.054  60.654  1.00  0.00     0.013 A
HETATM   15  C15 UNL     1      41.852  11.978  59.779  1.00  0.00     0.014 A
BRANCH  13  16
HETATM   16  C7  UNL     1      40.218  10.603  62.885  1.00  0.00     0.099 C
HETATM   17  N3  UNL     1      40.800   9.531  63.322  1.00  0.00    -0.364 N
ATOM     18  H3  UNL     1      41.714   9.256  62.962  1.00  0.00     0.165 HD
BRANCH  17  19
HETATM   19  C8  UNL     1      40.145   8.743  64.312  1.00  0.00     0.049 A
HETATM   20  C9  UNL     1      39.457   9.436  65.312  1.00  0.00     0.031 A
HETATM   21  C10 UNL     1      38.796   8.745  66.303  1.00  0.00     0.002 A
HETATM   22  C11 UNL     1      38.866   7.358  66.236  1.00  0.00     0.002 A
HETATM   23  C12 UNL     1      39.544   6.673  65.255  1.00  0.00     0.021 A
HETATM   24  C13 UNL     1      40.199   7.381  64.271  1.00  0.00     0.038 A
HETATM   25  S1  UNL     1      41.083   6.525  62.976  1.00  0.00    -0.050 SA
ENDBRANCH  17  19
ENDBRANCH  13  16
ENDBRANCH   8  10
ENDBRANCH   3   7
BRANCH   5  26
HETATM   26  C16 UNL     1      44.275  14.081  53.290  1.00  0.00     0.049 A
HETATM   27  C17 UNL     1      45.516  13.632  52.801  1.00  0.00     0.030 A
HETATM   28  C18 UNL     1      45.690  13.182  51.500  1.00  0.00     0.002 A
HETATM   29  C19 UNL     1      44.607  13.175  50.655  1.00  0.00     0.001 A
HETATM   30  C20 UNL     1      43.394  13.615  51.134  1.00  0.00     0.016 A
HETATM   31  C21 UNL     1      43.212  14.070  52.443  1.00  0.00     0.025 A
BRANCH  31  32
HETATM   32  C22 UNL     1      41.865  14.522  52.829  1.00  0.00     0.087 A
HETATM   33  N5  UNL     1      41.208  15.611  52.884  1.00  0.00    -0.349 N
HETATM   34  C23 UNL     1      39.989  15.746  53.257  1.00  0.00     0.050 A
ATOM     35  H5  UNL     1      41.699  16.459  52.603  1.00  0.00     0.166 HD
HETATM   36  C24 UNL     1      39.218  16.906  53.332  1.00  0.00     0.031 A
HETATM   37  C28 UNL     1      39.357  14.580  53.630  1.00  0.00     0.033 A
HETATM   38  C25 UNL     1      37.934  16.889  53.744  1.00  0.00     0.002 A
HETATM   39  C26 UNL     1      37.289  15.730  54.121  1.00  0.00     0.002 A
HETATM   40  C27 UNL     1      38.015  14.566  54.060  1.00  0.00     0.021 A
HETATM   41  S2  UNL     1      40.596  13.429  53.398  1.00  0.00    -0.069 SA
ENDBRANCH  31  32
ENDBRANCH   5  26
TORSDOF 6
ENDMDL