MODEL 3
REMARK VINA RESULT: -9.276368276      2.751      5.035
REMARK  6 active torsions:
REMARK  status: ('A' for Active; 'I' for Inactive)
REMARK       I    between atoms: C1_2  and  N1_3
REMARK    1  A    between atoms: C1_2  and  C22_33
REMARK    2  A    between atoms: N1_3  and  C2_5
REMARK    3  A    between atoms: C7_10  and  N2_11
REMARK    4  A    between atoms: N2_11  and  C8_13
REMARK    5  A    between atoms: C9_16  and  C10_17
REMARK    6  A    between atoms: C15_26  and  C16_27
ROOT
HETATM    1  N2  UNL     1      42.690  13.818  52.549  1.00  0.00    -0.339 N
ATOM      2  H2  UNL     1      42.157  13.386  53.303  1.00  0.00     0.167 HD
ENDROOT
BRANCH   1   3
HETATM    3  C7  UNL     1      44.092  13.694  52.641  1.00  0.00     0.060 A
HETATM    4  C2  UNL     1      44.691  13.556  53.912  1.00  0.00     0.062 A
HETATM    5  C3  UNL     1      46.045  13.516  53.982  1.00  0.00     0.032 A
HETATM    6  C4  UNL     1      46.863  13.603  52.869  1.00  0.00     0.002 A
HETATM    7  C5  UNL     1      46.271  13.732  51.664  1.00  0.00     0.002 A
HETATM    8  C6  UNL     1      44.885  13.781  51.525  1.00  0.00     0.032 A
BRANCH   4   9
HETATM    9  N1  UNL     1      43.891  13.396  55.048  1.00  0.00    -0.319 N
HETATM   10  C1  UNL     1      43.688  14.276  56.122  1.00  0.00     0.280 C
HETATM   11  O1  UNL     1      44.222  15.385  56.200  1.00  0.00    -0.265 OA
ATOM     12  H1  UNL     1      43.383  12.514  55.104  1.00  0.00     0.169 HD
BRANCH  10  13
HETATM   13  C22 UNL     1      42.799  13.925  57.258  1.00  0.00     0.144 A
HETATM   14  N6  UNL     1      42.947  14.181  58.538  1.00  0.00    -0.345 N
HETATM   15  C23 UNL     1      42.051  13.794  59.396  1.00  0.00     0.050 A
ATOM     16  H6  UNL     1      43.771  14.688  58.861  1.00  0.00     0.167 HD
HETATM   17  C24 UNL     1      42.086  14.003  60.786  1.00  0.00     0.031 A
HETATM   18  C28 UNL     1      40.962  13.118  58.913  1.00  0.00     0.034 A
HETATM   19  C25 UNL     1      41.093  13.554  61.587  1.00  0.00     0.002 A
HETATM   20  C26 UNL     1      39.995  12.874  61.111  1.00  0.00     0.002 A
HETATM   21  C27 UNL     1      39.941  12.659  59.758  1.00  0.00     0.021 A
HETATM   22  S1  UNL     1      41.307  13.084  57.234  1.00  0.00    -0.065 SA
ENDBRANCH  10  13
ENDBRANCH   4   9
ENDBRANCH   1   3
BRANCH   1  23
HETATM   23  C8  UNL     1      41.933  14.459  51.556  1.00  0.00     0.135 A
HETATM   24  N3  UNL     1      42.371  14.704  50.320  1.00  0.00    -0.326 N
HETATM   25  C9  UNL     1      41.486  15.387  49.607  1.00  0.00     0.117 A
ATOM     26  H3  UNL     1      43.278  14.401  49.966  1.00  0.00     0.169 HD
HETATM   27  N5  UNL     1      40.442  15.588  50.412  1.00  0.00    -0.338 N
HETATM   28  C15 UNL     1      40.675  15.022  51.647  1.00  0.00     0.088 A
ATOM     29  H5  UNL     1      39.593  16.089  50.150  1.00  0.00     0.167 HD
BRANCH  25  30
HETATM   30  C10 UNL     1      41.615  15.837  48.220  1.00  0.00     0.011 A
HETATM   31  C11 UNL     1      42.749  15.526  47.499  1.00  0.00     0.032 A
HETATM   32  C12 UNL     1      42.818  15.978  46.183  1.00  0.00     0.088 A
HETATM   33  N4  UNL     1      41.808  16.696  45.633  1.00  0.00    -0.375 N
HETATM   34  C13 UNL     1      40.708  16.997  46.335  1.00  0.00     0.088 A
ATOM     35  H4  UNL     1      41.889  17.013  44.667  1.00  0.00     0.164 HD
HETATM   36  C14 UNL     1      40.589  16.572  47.647  1.00  0.00     0.032 A
ENDBRANCH  25  30
BRANCH  28  37
HETATM   37  C16 UNL     1      39.748  15.099  52.758  1.00  0.00    -0.006 A
HETATM   38  C17 UNL     1      38.938  16.246  52.822  1.00  0.00     0.014 A
HETATM   39  C18 UNL     1      37.968  16.417  53.785  1.00  0.00     0.001 A
HETATM   40  C19 UNL     1      37.763  15.443  54.734  1.00  0.00     0.000 A
HETATM   41  C20 UNL     1      38.549  14.325  54.676  1.00  0.00     0.001 A
HETATM   42  C21 UNL     1      39.520  14.159  53.704  1.00  0.00     0.014 A
ENDBRANCH  28  37
ENDBRANCH   1  23
TORSDOF 6
ENDMDL