MODEL 2
REMARK VINA RESULT: -10.620779341      0.439      1.039
REMARK  7 active torsions:
REMARK  status: ('A' for Active; 'I' for Inactive)
REMARK    1  A    between atoms: C1_2  and  C2_7
REMARK    2  A    between atoms: N2_3  and  O1_5
REMARK    3  A    between atoms: C5_10  and  C6_11
REMARK    4  A    between atoms: C10_17  and  C11_18
REMARK    5  A    between atoms: C12_21  and  C13_22
REMARK    6  A    between atoms: C16_25  and  O2_26
REMARK    7  A    between atoms: O2_26  and  C17_27
ROOT
HETATM    1  C6  UNL     1      41.406  16.122  47.853  1.00  0.00     0.116 A
HETATM    2  N3  UNL     1      42.157  15.132  48.347  1.00  0.00    -0.340 N
ATOM      3  H3  UNL     1      42.864  14.623  47.816  1.00  0.00     0.167 HD
HETATM    4  C7  UNL     1      41.851  14.893  49.649  1.00  0.00     0.060 A
HETATM    5  C8  UNL     1      42.332  13.993  50.586  1.00  0.00     0.033 A
HETATM    6  C9  UNL     1      41.793  14.009  51.861  1.00  0.00     0.017 A
HETATM    7  C10 UNL     1      40.804  14.907  52.165  1.00  0.00    -0.000 A
HETATM    8  C26 UNL     1      40.340  15.782  51.243  1.00  0.00     0.046 A
HETATM    9  C27 UNL     1      40.852  15.798  49.962  1.00  0.00     0.061 A
HETATM   10  N5  UNL     1      40.606  16.525  48.855  1.00  0.00    -0.340 N
ATOM     11  H5  UNL     1      39.914  17.272  48.787  1.00  0.00     0.167 HD
ENDROOT
BRANCH   7  12
HETATM   12  C11 UNL     1      40.270  14.871  53.546  1.00  0.00     0.085 A
HETATM   13  N4  UNL     1      40.849  14.445  54.644  1.00  0.00    -0.349 N
HETATM   14  C12 UNL     1      40.224  14.490  55.775  1.00  0.00     0.050 A
ATOM     15  H4  UNL     1      41.799  14.076  54.605  1.00  0.00     0.166 HD
HETATM   16  C25 UNL     1      38.941  15.002  55.762  1.00  0.00     0.082 A
HETATM   17  S1  UNL     1      38.733  15.379  54.113  1.00  0.00    -0.081 SA
BRANCH  14  18
HETATM   18  C13 UNL     1      40.814  14.029  57.046  1.00  0.00    -0.009 A
HETATM   19  C14 UNL     1      40.099  13.162  57.824  1.00  0.00     0.016 A
HETATM   20  C15 UNL     1      40.608  12.693  59.034  1.00  0.00     0.038 A
HETATM   21  C16 UNL     1      41.860  13.108  59.467  1.00  0.00     0.076 A
HETATM   22  C23 UNL     1      42.577  13.974  58.692  1.00  0.00     0.038 A
HETATM   23  C24 UNL     1      42.043  14.430  57.480  1.00  0.00     0.016 A
BRANCH  21  24
HETATM   24  O2  UNL     1      42.364  12.641  60.670  1.00  0.00    -0.311 OA
BRANCH  24  25
HETATM   25  C17 UNL     1      41.795  11.533  61.257  1.00  0.00     0.076 A
HETATM   26  C18 UNL     1      42.180  10.280  60.853  1.00  0.00     0.037 A
HETATM   27  C19 UNL     1      41.640   9.132  61.409  1.00  0.00     0.003 A
HETATM   28  C20 UNL     1      40.691   9.253  62.397  1.00  0.00     0.000 A
HETATM   29  C21 UNL     1      40.298  10.519  62.811  1.00  0.00     0.003 A
HETATM   30  C22 UNL     1      40.849  11.652  62.242  1.00  0.00     0.037 A
ENDBRANCH  24  25
ENDBRANCH  21  24
ENDBRANCH  14  18
ENDBRANCH   7  12
BRANCH   1  31
HETATM   31  C5  UNL     1      41.418  16.691  46.495  1.00  0.00     0.008 A
HETATM   32  C4  UNL     1      40.247  16.816  45.781  1.00  0.00     0.016 A
HETATM   33  C3  UNL     1      40.248  17.346  44.511  1.00  0.00     0.016 A
HETATM   34  C2  UNL     1      41.400  17.765  43.910  1.00  0.00     0.007 A
HETATM   35  C29 UNL     1      42.577  17.637  44.632  1.00  0.00     0.016 A
HETATM   36  C28 UNL     1      42.589  17.108  45.905  1.00  0.00     0.016 A
BRANCH  34  37
HETATM   37  C1  UNL     1      41.364  18.319  42.572  1.00  0.00     0.146 C
HETATM   38  N1  UNL     1      42.258  17.851  41.583  1.00  0.00    -0.080 NA
HETATM   39  N2  UNL     1      40.519  19.238  42.284  1.00  0.00    -0.255 N
ATOM     40  H2  UNL     1      39.875  19.576  42.999  1.00  0.00     0.195 HD
BRANCH  39  41
HETATM   41  O1  UNL     1      40.477  19.765  41.033  1.00  0.00    -0.288 OA
ATOM     42  H1  UNL     1      40.995  20.530  40.816  1.00  0.00     0.244 HD
ENDBRANCH  39  41
ENDBRANCH  34  37
ENDBRANCH   1  31
TORSDOF 7
ENDMDL