MODEL 1
REMARK VINA RESULT: -9.219943353      0.000      0.000
REMARK  7 active torsions:
REMARK  status: ('A' for Active; 'I' for Inactive)
REMARK    1  A    between atoms: C2_2  and  N1_3
REMARK    2  A    between atoms: C2_2  and  C8_12
REMARK    3  A    between atoms: N1_3  and  C3_5
REMARK    4  A    between atoms: C9_13  and  C10_14
REMARK    5  A    between atoms: C13_17  and  N3_18
REMARK       I    between atoms: N3_18  and  C14_20
REMARK       I    between atoms: C14_20  and  N4_22
REMARK    6  A    between atoms: N4_22  and  C15_24
REMARK    7  A    between atoms: C20_29  and  N5_30
ROOT
HETATM    1  C8  UNL     1      44.793  15.441  44.760  1.00  0.00     0.067 A
HETATM    2  C9  UNL     1      44.852  15.258  46.102  1.00  0.00     0.069 A
HETATM    3  N6  UNL     1      46.160  15.479  46.453  1.00  0.00    -0.340 N
ATOM      4  H6  UNL     1      46.545  15.420  47.396  1.00  0.00     0.167 HD
HETATM    5  C23 UNL     1      46.843  15.785  45.346  1.00  0.00     0.112 A
HETATM    6  C24 UNL     1      48.181  16.110  45.173  1.00  0.00     0.049 A
HETATM    7  C25 UNL     1      48.704  16.424  43.926  1.00  0.00     0.005 A
HETATM    8  C26 UNL     1      47.838  16.397  42.868  1.00  0.00     0.018 A
HETATM    9  C27 UNL     1      46.523  16.073  43.056  1.00  0.00     0.099 A
HETATM   10  N7  UNL     1      46.042  15.774  44.269  1.00  0.00    -0.308 N
ENDROOT
BRANCH   2  11
HETATM   11  C10 UNL     1      43.882  14.838  47.127  1.00  0.00    -0.007 A
HETATM   12  C11 UNL     1      43.908  13.671  47.779  1.00  0.00     0.016 A
HETATM   13  C12 UNL     1      42.891  13.363  48.697  1.00  0.00     0.030 A
HETATM   14  C13 UNL     1      41.850  14.202  48.974  1.00  0.00     0.036 A
HETATM   15  C21 UNL     1      41.840  15.412  48.292  1.00  0.00     0.030 A
HETATM   16  C22 UNL     1      42.814  15.723  47.403  1.00  0.00     0.016 A
BRANCH  14  17
HETATM   17  N3  UNL     1      40.762  13.937  49.830  1.00  0.00    -0.309 N
HETATM   18  C14 UNL     1      40.885  14.124  51.240  1.00  0.00     0.325 C
HETATM   19  O1  UNL     1      42.014  14.514  51.642  1.00  0.00    -0.247 OA
HETATM   20  N4  UNL     1      39.855  13.907  52.152  1.00  0.00    -0.306 N
ATOM     21  H4  UNL     1      38.957  13.595  51.782  1.00  0.00     0.171 HD
ATOM     22  H3  UNL     1      39.879  13.609  49.439  1.00  0.00     0.170 HD
BRANCH  20  23
HETATM   23  C15 UNL     1      39.955  14.083  53.549  1.00  0.00     0.069 A
HETATM   24  C16 UNL     1      40.844  13.397  54.310  1.00  0.00     0.032 A
HETATM   25  C17 UNL     1      40.934  13.522  55.705  1.00  0.00     0.002 A
HETATM   26  C18 UNL     1      40.086  14.379  56.351  1.00  0.00     0.003 A
HETATM   27  C19 UNL     1      39.182  15.081  55.602  1.00  0.00     0.038 A
HETATM   28  C20 UNL     1      39.090  14.958  54.214  1.00  0.00     0.129 A
BRANCH  28  29
HETATM   29  N5  UNL     1      38.123  15.733  53.574  1.00  0.00    -0.113 N
HETATM   30  O2  UNL     1      38.538  16.490  52.631  1.00  0.00    -0.532 OA
HETATM   31  O3  UNL     1      36.794  15.766  53.862  1.00  0.00    -0.532 OA
ENDBRANCH  28  29
ENDBRANCH  20  23
ENDBRANCH  14  17
ENDBRANCH   2  11
BRANCH   1  32
HETATM   32  C2  UNL     1      43.547  15.464  43.947  1.00  0.00     0.130 C
HETATM   33  C1  UNL     1      43.709  14.281  42.934  1.00  0.00     0.039 C
BRANCH  32  34
HETATM   34  N1  UNL     1      43.423  16.604  43.063  1.00  0.00    -0.379 N
ATOM     35  H1  UNL     1      44.327  17.005  42.815  1.00  0.00     0.160 HD
BRANCH  34  36
HETATM   36  C3  UNL     1      42.357  17.283  42.469  1.00  0.00     0.044 A
HETATM   37  C4  UNL     1      42.022  17.286  41.137  1.00  0.00     0.032 A
HETATM   38  C5  UNL     1      40.939  18.020  40.648  1.00  0.00     0.019 A
HETATM   39  C6  UNL     1      40.199  18.753  41.535  1.00  0.00     0.088 A
HETATM   40  N2  UNL     1      40.531  18.748  42.841  1.00  0.00    -0.373 N
HETATM   41  C7  UNL     1      41.547  18.067  43.339  1.00  0.00     0.116 A
ATOM     42  H2  UNL     1      39.965  19.303  43.483  1.00  0.00     0.164 HD
ENDBRANCH  34  36
ENDBRANCH  32  34
ENDBRANCH   1  32
TORSDOF 7
ENDMDL