MODEL 1
REMARK VINA RESULT: -5.026517751      0.000      0.000
REMARK  1 active torsions:
REMARK  status: ('A' for Active; 'I' for Inactive)
REMARK    1  A    between atoms: N1_3  and  C3_5
ROOT
HETATM    1  C1  UNL     1      47.934 -21.915  63.812  1.00  0.00     0.037 C
HETATM    2  C2  UNL     1      46.910 -22.444  63.428  1.00  0.00    -0.000 C
HETATM    3  N1  UNL     1      45.725 -23.034  62.974  1.00  0.00    -0.312 N
ATOM      4  H1  UNL     1      45.756 -23.742  62.240  1.00  0.00     0.177 HD
ENDROOT
BRANCH   3   5
HETATM    5  C3  UNL     1      44.477 -22.646  63.537  1.00  0.00     0.186 C
HETATM    6  N2  UNL     1      43.452 -22.523  62.796  1.00  0.00    -0.377 N
HETATM    7  C4  UNL     1      43.416 -22.748  61.374  1.00  0.00     0.123 C
HETATM    8  C7  UNL     1      42.110 -22.133  63.235  1.00  0.00     0.123 C
HETATM    9  C5  UNL     1      42.363 -21.781  60.848  1.00  0.00     0.021 C
HETATM   10  C6  UNL     1      41.411 -21.603  62.002  1.00  0.00     0.021 C
ENDBRANCH   3   5
TORSDOF 1
ENDMDL