MODEL 3
REMARK VINA RESULT: -3.607973229      1.714      3.333
REMARK  0 active torsions:
REMARK  status: ('A' for Active; 'I' for Inactive)
ROOT
HETATM    1  C1  UNL     1      41.749 -23.470  61.525  1.00  0.00     0.275 C
HETATM    2  N1  UNL     1      42.457 -22.302  61.963  1.00  0.00    -0.040 N
HETATM    3  C2  UNL     1      42.232 -21.089  61.243  1.00  0.00     0.267 C
HETATM    4  C3  UNL     1      41.637 -20.096  62.225  1.00  0.00     0.262 C
HETATM    5  N2  UNL     1      41.306 -20.879  63.401  1.00  0.00    -0.044 N
ATOM      6  H21 UNL     1      40.334 -21.184  63.448  1.00  0.00     0.279 HD
ATOM      7  H22 UNL     1      41.292 -20.351  64.273  1.00  0.00     0.279 HD
HETATM    8  C4  UNL     1      42.264 -21.941  63.363  1.00  0.00     0.388 C
HETATM    9  C5  UNL     1      43.712 -21.550  63.401  1.00  0.00     0.091 C
HETATM   10  C6  UNL     1      43.833 -22.606  62.302  1.00  0.00     0.243 C
ENDROOT
TORSDOF 0
ENDMDL