MODEL 5
REMARK VINA RESULT: -4.747555982      1.998      2.805
REMARK  1 active torsions:
REMARK  status: ('A' for Active; 'I' for Inactive)
REMARK    1  A    between atoms: N2_4  and  C1_6
ROOT
HETATM    1  C1  UNL     1      45.134 -23.563  62.011  1.00  0.00     0.192 C
HETATM    2  C2  UNL     1      45.309 -22.490  63.063  1.00  0.00     0.048 C
HETATM    3  C3  UNL     1      44.010 -22.423  63.841  1.00  0.00     0.005 C
HETATM    4  C4  UNL     1      42.966 -21.901  62.853  1.00  0.00     0.019 C
HETATM    5  C5  UNL     1      42.804 -22.980  61.803  1.00  0.00     0.115 C
HETATM    6  N3  UNL     1      44.016 -23.324  61.141  1.00  0.00    -0.401 N
ATOM      7  H3  UNL     1      44.086 -23.396  60.125  1.00  0.00     0.155 HD
ENDROOT
BRANCH   1   8
HETATM    8  N2  UNL     1      46.298 -23.726  61.210  1.00  0.00    -0.320 N
HETATM    9  N1  UNL     1      46.244 -24.309  60.130  1.00  0.00    -0.348 N
ATOM     10  H12 UNL     1      45.345 -24.674  59.818  1.00  0.00     0.176 HD
ATOM     11  H11 UNL     1      47.079 -24.426  59.556  1.00  0.00     0.176 HD
ATOM     12  H2  UNL     1      47.190 -23.355  61.538  1.00  0.00     0.182 HD
ENDBRANCH   1   8
TORSDOF 1
ENDMDL