MODEL 3
REMARK VINA RESULT: -3.490848948      2.008      2.084
REMARK  2 active torsions:
REMARK  status: ('A' for Active; 'I' for Inactive)
REMARK    1  A    between atoms: C2_2  and  C3_3
REMARK    2  A    between atoms: C4_4  and  S1_5
ROOT
HETATM    1  C3  UNL     1      44.891 -23.179  61.924  1.00  0.00    -0.095 C
HETATM    2  C4  UNL     1      43.683 -23.017  61.985  1.00  0.00    -0.027 C
ENDROOT
BRANCH   2   3
HETATM    3  S1  UNL     1      41.975 -22.760  62.078  1.00  0.00    -0.038 SA
HETATM    4  C5  UNL     1      41.075 -22.915  60.537  1.00  0.00     0.216 A
HETATM    5  N1  UNL     1      40.944 -23.872  61.632  1.00  0.00    -0.165 NA
ENDBRANCH   2   3
BRANCH   1   6
HETATM    6  C2  UNL     1      46.347 -23.349  61.855  1.00  0.00     0.090 C
HETATM    7  C1  UNL     1      46.943 -22.776  63.118  1.00  0.00     0.018 C
ENDBRANCH   1   6
TORSDOF 2
ENDMDL