MODEL 2
REMARK VINA RESULT: -4.589738282      1.106      1.179
REMARK  1 active torsions:
REMARK  status: ('A' for Active; 'I' for Inactive)
REMARK    1  A    between atoms: N2_4  and  C1_6
ROOT
HETATM    1  C1  UNL     1      44.961 -22.751  62.143  1.00  0.00     0.103 C
HETATM    2  C2  UNL     1      43.604 -23.485  62.154  1.00  0.00     0.031 C
HETATM    3  C3  UNL     1      42.861 -22.584  63.099  1.00  0.00    -0.012 C
HETATM    4  C4  UNL     1      43.850 -22.526  64.273  1.00  0.00     0.011 C
HETATM    5  C5  UNL     1      44.711 -21.793  63.267  1.00  0.00     0.010 C
HETATM    6  C6  UNL     1      43.373 -21.182  62.802  1.00  0.00     0.011 C
ENDROOT
BRANCH   1   7
HETATM    7  N2  UNL     1      46.052 -23.610  62.302  1.00  0.00    -0.338 N
HETATM    8  N1  UNL     1      47.061 -23.377  62.976  1.00  0.00    -0.349 N
ATOM      9  H12 UNL     1      47.084 -22.475  63.452  1.00  0.00     0.176 HD
ATOM     10  H11 UNL     1      47.857 -24.004  63.092  1.00  0.00     0.176 HD
ATOM     11  H2  UNL     1      46.012 -24.507  61.818  1.00  0.00     0.180 HD
ENDBRANCH   1   7
TORSDOF 1
ENDMDL