MODEL 1
REMARK VINA RESULT: -3.923833526      0.000      0.000
REMARK  1 active torsions:
REMARK  status: ('A' for Active; 'I' for Inactive)
REMARK    1  A    between atoms: N1_2  and  C2_4
ROOT
HETATM    1  C2  UNL     1      44.294 -22.733  63.428  1.00  0.00     0.128 C
HETATM    2  C3  UNL     1      43.809 -21.344  63.298  1.00  0.00     0.262 C
HETATM    3  N2  UNL     1      42.615 -21.823  62.642  1.00  0.00    -0.071 N
HETATM    4  C4  UNL     1      41.443 -21.952  63.501  1.00  0.00     0.272 C
HETATM    5  C5  UNL     1      42.242 -21.056  61.467  1.00  0.00     0.272 C
HETATM    6  C6  UNL     1      43.265 -23.067  62.379  1.00  0.00     0.262 C
ENDROOT
BRANCH   1   7
HETATM    7  N1  UNL     1      45.655 -23.004  63.067  1.00  0.00    -0.418 N
HETATM    8  C1  UNL     1      45.873 -23.370  61.720  1.00  0.00     0.140 C
ATOM      9  H1  UNL     1      46.419 -22.936  63.741  1.00  0.00     0.153 HD
ENDBRANCH   1   7
TORSDOF 1
ENDMDL