MODEL 5
REMARK VINA RESULT: -4.579055339      1.220      2.024
REMARK  1 active torsions:
REMARK  status: ('A' for Active; 'I' for Inactive)
REMARK    1  A    between atoms: C1_4  and  N2_5
ROOT
HETATM    1  N2  UNL     1      44.938 -22.453  62.860  1.00  0.00    -0.377 N
HETATM    2  C2  UNL     1      44.399 -23.279  61.808  1.00  0.00     0.128 C
HETATM    3  C3  UNL     1      43.141 -22.569  61.387  1.00  0.00     0.010 A
HETATM    4  C4  UNL     1      41.926 -22.716  62.274  1.00  0.00     0.013 A
HETATM    5  C5  UNL     1      42.828 -21.515  62.366  1.00  0.00     0.010 A
HETATM    6  C6  UNL     1      43.900 -21.597  63.404  1.00  0.00     0.128 C
ENDROOT
BRANCH   1   7
HETATM    7  C1  UNL     1      46.270 -22.450  63.322  1.00  0.00     0.171 C
HETATM    8  N1  UNL     1      47.073 -23.366  62.922  1.00  0.00    -0.395 N
ATOM      9  H12 UNL     1      46.736 -24.081  62.277  1.00  0.00     0.156 HD
ATOM     10  H11 UNL     1      48.036 -23.364  63.256  1.00  0.00     0.156 HD
ENDBRANCH   1   7
TORSDOF 1
ENDMDL