MODEL 2
REMARK VINA RESULT: -3.859116722      1.212      2.924
REMARK  1 active torsions:
REMARK  status: ('A' for Active; 'I' for Inactive)
REMARK    1  A    between atoms: C2_2  and  C3_3
ROOT
HETATM    1  C3  UNL     1      42.171 -23.363  61.757  1.00  0.00     0.408 C
HETATM    2  N1  UNL     1      43.341 -23.419  60.870  1.00  0.00    -0.041 N
ATOM      3  H11 UNL     1      43.277 -22.865  60.017  1.00  0.00     0.280 HD
ATOM      4  H12 UNL     1      43.487 -24.304  60.384  1.00  0.00     0.280 HD
HETATM    5  C4  UNL     1      44.387 -23.030  61.798  1.00  0.00     0.263 C
HETATM    6  C5  UNL     1      43.705 -22.043  62.723  1.00  0.00     0.267 C
HETATM    7  N2  UNL     1      42.288 -22.077  62.339  1.00  0.00    -0.041 N
HETATM    8  C6  UNL     1      42.076 -20.981  61.437  1.00  0.00     0.275 C
HETATM    9  C7  UNL     1      41.461 -21.868  63.501  1.00  0.00     0.275 C
ENDROOT
BRANCH   1  10
HETATM   10  C2  UNL     1      40.918 -23.618  61.025  1.00  0.00     0.025 C
HETATM   11  C1  UNL     1      40.837 -24.054  59.791  1.00  0.00     0.011 C
ENDBRANCH   1  10
TORSDOF 1
ENDMDL