MODEL 2
REMARK VINA RESULT: -3.579146698      1.453      3.450
REMARK  1 active torsions:
REMARK  status: ('A' for Active; 'I' for Inactive)
REMARK    1  A    between atoms: C2_2  and  N1_3
ROOT
HETATM    1  N1  UNL     1      42.404 -21.743  62.925  1.00  0.00     0.006 N
HETATM    2  C3  UNL     1      42.603 -23.025  62.285  1.00  0.00     0.297 C
HETATM    3  C4  UNL     1      42.026 -20.772  61.949  1.00  0.00     0.261 C
HETATM    4  C5  UNL     1      40.800 -20.069  62.520  1.00  0.00     0.047 C
HETATM    5  C6  UNL     1      40.242 -21.177  63.414  1.00  0.00     0.144 C
HETATM    6  N2  UNL     1      41.440 -21.774  63.920  1.00  0.00    -0.047 NA
ENDROOT
BRANCH   1   7
HETATM    7  C2  UNL     1      43.697 -21.385  63.528  1.00  0.00     0.255 C
HETATM    8  C1  UNL     1      44.583 -22.587  63.567  1.00  0.00     0.036 C
ENDBRANCH   1   7
TORSDOF 1
ENDMDL