MODEL 5
REMARK VINA RESULT: -4.616111833      2.143      2.791
REMARK  1 active torsions:
REMARK  status: ('A' for Active; 'I' for Inactive)
REMARK    1  A    between atoms: C2_2  and  N1_3
ROOT
HETATM    1  N1  UNL     1      43.844 -23.044  61.543  1.00  0.00    -0.294 N
HETATM    2  N2  UNL     1      43.434 -23.161  60.376  1.00  0.00    -0.246 N
ATOM      3  H2  UNL     1      44.176 -23.396  59.717  1.00  0.00     0.208 HD
HETATM    4  N3  UNL     1      42.227 -23.046  59.785  1.00  0.00    -0.322 N
ATOM      5  H3  UNL     1      41.986 -23.646  58.997  1.00  0.00     0.181 HD
HETATM    6  C3  UNL     1      41.298 -22.094  60.258  1.00  0.00     0.141 C
HETATM    7  C4  UNL     1      41.734 -21.281  61.424  1.00  0.00     0.026 C
HETATM    8  C5  UNL     1      41.774 -22.254  62.599  1.00  0.00     0.048 C
HETATM    9  C6  UNL     1      43.163 -22.719  62.726  1.00  0.00     0.084 C
ENDROOT
BRANCH   1  10
HETATM   10  C2  UNL     1      45.251 -23.250  61.789  1.00  0.00     0.145 C
HETATM   11  C1  UNL     1      45.745 -22.645  63.065  1.00  0.00     0.028 C
ENDBRANCH   1  10
TORSDOF 1
ENDMDL