MODEL 4
REMARK VINA RESULT: -8.224916930      1.128      2.402
REMARK  14 active torsions:
REMARK  status: ('A' for Active; 'I' for Inactive)
REMARK    1  A    between atoms: O1_1  and  C1_3
REMARK    2  A    between atoms: C1_3  and  C2_4
REMARK    3  A    between atoms: C4_6  and  O2_7
REMARK    4  A    between atoms: O2_7  and  C5_8
REMARK    5  A    between atoms: C5_8  and  C6_9
REMARK    6  A    between atoms: C11_14  and  C12_15
REMARK    7  A    between atoms: C12_15  and  O3_16
REMARK    8  A    between atoms: O3_16  and  C13_17
REMARK    9  A    between atoms: C15_19  and  O4_20
REMARK   10  A    between atoms: C16_22  and  C17_23
REMARK   11  A    between atoms: C17_23  and  O5_24
REMARK   12  A    between atoms: C20_30  and  O8_31
REMARK   13  A    between atoms: C21_33  and  O9_34
REMARK   14  A    between atoms: C22_36  and  O10_37
ROOT
HETATM    1  C6  UNL     1      17.786  13.736  13.995  1.00  0.00     0.091 A
HETATM    2  C7  UNL     1      18.477  14.844  14.526  1.00  0.00     0.054 A
HETATM    3  C8  UNL     1      18.908  13.643  15.123  1.00  0.00     0.002 A
HETATM    4  C9  UNL     1      20.290  13.212  14.668  1.00  0.00     0.014 C
HETATM    5  C10 UNL     1      20.658  11.967  15.414  1.00  0.00     0.008 C
HETATM    6  C11 UNL     1      19.568  11.676  16.358  1.00  0.00     0.016 C
HETATM    7  C18 UNL     1      18.392  12.474  15.744  1.00  0.00     0.027 C
HETATM    8  C19 UNL     1      17.989  11.658  14.500  1.00  0.00     0.174 C
HETATM    9  O7  UNL     1      18.262  12.533  13.444  1.00  0.00    -0.377 OA
ENDROOT
BRANCH   1  10
HETATM   10  C5  UNL     1      16.361  13.573  14.363  1.00  0.00     0.207 C
BRANCH  10  11
HETATM   11  O2  UNL     1      15.654  14.728  14.430  1.00  0.00    -0.380 OA
BRANCH  11  12
HETATM   12  C4  UNL     1      15.175  15.183  15.608  1.00  0.00     0.153 C
HETATM   13  C3  UNL     1      13.640  15.506  15.430  1.00  0.00     0.044 C
HETATM   14  C2  UNL     1      13.243  16.432  16.548  1.00  0.00     0.043 C
HETATM   15  C22 UNL     1      13.500  15.865  17.898  1.00  0.00     0.155 C
HETATM   16  C21 UNL     1      14.839  15.238  18.036  1.00  0.00     0.178 C
HETATM   17  C20 UNL     1      15.286  14.413  16.847  1.00  0.00     0.178 C
BRANCH  14  18
HETATM   18  C1  UNL     1      13.738  17.846  16.381  1.00  0.00     0.171 C
BRANCH  18  19
HETATM   19  O1  UNL     1      13.665  18.105  14.991  1.00  0.00    -0.400 OA
ATOM     20  H1  UNL     1      12.920  18.684  14.883  1.00  0.00     0.209 HD
ENDBRANCH  18  19
ENDBRANCH  14  18
BRANCH  15  21
HETATM   21  O10 UNL     1      12.436  15.067  18.314  1.00  0.00    -0.392 OA
ATOM     22  H10 UNL     1      12.080  14.569  17.588  1.00  0.00     0.210 HD
ENDBRANCH  15  21
BRANCH  16  23
HETATM   23  O9  UNL     1      14.862  14.456  19.188  1.00  0.00    -0.390 OA
ATOM     24  H9  UNL     1      13.977  14.332  19.510  1.00  0.00     0.210 HD
ENDBRANCH  16  23
BRANCH  17  25
HETATM   25  O8  UNL     1      14.567  13.225  16.880  1.00  0.00    -0.390 OA
ATOM     26  H8  UNL     1      14.309  12.926  17.744  1.00  0.00     0.210 HD
ENDBRANCH  17  25
ENDBRANCH  11  12
ENDBRANCH  10  11
ENDBRANCH   1  10
BRANCH   6  27
HETATM   27  C12 UNL     1      19.771  11.977  17.799  1.00  0.00     0.176 C
BRANCH  27  28
HETATM   28  O3  UNL     1      20.195  13.148  18.218  1.00  0.00    -0.361 OA
BRANCH  28  29
HETATM   29  C13 UNL     1      19.657  13.979  19.090  1.00  0.00     0.262 C
HETATM   30  C14 UNL     1      18.513  14.829  18.472  1.00  0.00     0.095 C
HETATM   31  C15 UNL     1      18.241  15.730  19.660  1.00  0.00     0.154 C
HETATM   32  C16 UNL     1      19.635  15.882  20.245  1.00  0.00     0.177 C
HETATM   33  O6  UNL     1      20.471  15.068  19.490  1.00  0.00    -0.351 OA
BRANCH  31  34
HETATM   34  O4  UNL     1      17.679  16.934  19.316  1.00  0.00    -0.393 OA
ATOM     35  H4  UNL     1      18.287  17.663  19.361  1.00  0.00     0.210 HD
ENDBRANCH  31  34
BRANCH  32  36
HETATM   36  C17 UNL     1      20.004  17.345  20.130  1.00  0.00     0.198 C
BRANCH  36  37
HETATM   37  O5  UNL     1      19.366  18.085  21.121  1.00  0.00    -0.398 OA
ATOM     38  H5  UNL     1      19.859  18.874  21.314  1.00  0.00     0.209 HD
ENDBRANCH  36  37
ENDBRANCH  32  36
ENDBRANCH  28  29
ENDBRANCH  27  28
ENDBRANCH   6  27
TORSDOF 14
ENDMDL