MODEL 3
REMARK VINA RESULT: -7.204701006      2.121      3.978
REMARK  12 active torsions:
REMARK  status: ('A' for Active; 'I' for Inactive)
REMARK    1  A    between atoms: C2_2  and  C3_3
REMARK    2  A    between atoms: C3_3  and  C4_4
REMARK    3  A    between atoms: C8_8  and  C9_9
REMARK    4  A    between atoms: C13_14  and  O2_15
REMARK    5  A    between atoms: O2_15  and  C14_16
REMARK    6  A    between atoms: C15_18  and  C16_19
REMARK    7  A    between atoms: C16_19  and  O4_20
REMARK    8  A    between atoms: C17_22  and  O5_23
REMARK    9  A    between atoms: C18_25  and  O6_26
REMARK   10  A    between atoms: C19_28  and  N1_29
REMARK       I    between atoms: N1_29  and  C20_31
REMARK   11  A    between atoms: C20_31  and  C21_33
REMARK   12  A    between atoms: C21_33  and  N2_34
ROOT
HETATM    1  C14 UNL     1      16.391  15.404  16.743  1.00  0.00     0.286 C
HETATM    2  O3  UNL     1      15.492  14.379  16.481  1.00  0.00    -0.349 OA
HETATM    3  C15 UNL     1      14.177  14.732  16.540  1.00  0.00     0.179 C
HETATM    4  C17 UNL     1      13.791  15.219  17.887  1.00  0.00     0.180 C
HETATM    5  C18 UNL     1      14.950  15.604  18.765  1.00  0.00     0.177 C
HETATM    6  C19 UNL     1      16.106  16.168  17.973  1.00  0.00     0.170 C
ENDROOT
BRANCH   1   7
HETATM    7  O2  UNL     1      17.676  14.870  16.772  1.00  0.00    -0.351 OA
BRANCH   7   8
HETATM    8  C13 UNL     1      17.700  13.516  17.065  1.00  0.00     0.158 C
HETATM    9  C12 UNL     1      18.737  13.163  18.152  1.00  0.00     0.069 C
HETATM   10  C11 UNL     1      18.886  11.853  17.405  1.00  0.00     0.155 C
HETATM   11  O1  UNL     1      20.165  11.379  17.296  1.00  0.00    -0.381 OA
HETATM   12  C22 UNL     1      18.505  12.625  16.157  1.00  0.00     0.180 C
HETATM   13  C10 UNL     1      20.368  11.047  15.930  1.00  0.00     0.200 C
HETATM   14  C9  UNL     1      20.627  12.328  15.240  1.00  0.00     0.150 C
HETATM   15  O8  UNL     1      19.602  13.220  15.595  1.00  0.00    -0.373 OA
BRANCH  14  16
HETATM   16  C8  UNL     1      20.757  12.340  13.773  1.00  0.00     0.025 C
HETATM   17  C4  UNL     1      21.772  11.488  13.068  1.00  0.00    -0.038 C
HETATM   18  C5  UNL     1      22.080  12.112  11.694  1.00  0.00     0.015 C
HETATM   19  C6  UNL     1      20.722  10.443  12.897  1.00  0.00     0.010 C
HETATM   20  C7  UNL     1      19.678  11.547  13.031  1.00  0.00     0.009 C
BRANCH  17  21
HETATM   21  C3  UNL     1      22.965  11.067  13.819  1.00  0.00     0.009 C
BRANCH  21  22
HETATM   22  C2  UNL     1      24.302  11.307  13.163  1.00  0.00    -0.004 C
HETATM   23  C1  UNL     1      25.441  10.560  13.766  1.00  0.00     0.005 C
ENDBRANCH  21  22
ENDBRANCH  17  21
ENDBRANCH  14  16
ENDBRANCH   7   8
ENDBRANCH   1   7
BRANCH   6  24
HETATM   24  N1  UNL     1      17.250  16.124  18.869  1.00  0.00    -0.348 N
HETATM   25  C20 UNL     1      17.576  17.081  19.831  1.00  0.00     0.243 C
HETATM   26  O7  UNL     1      16.859  18.100  19.981  1.00  0.00    -0.272 OA
ATOM     27  H1  UNL     1      17.871  15.320  18.787  1.00  0.00     0.163 HD
BRANCH  25  28
HETATM   28  C21 UNL     1      18.765  16.914  20.690  1.00  0.00     0.332 C
BRANCH  28  29
HETATM   29  N2  UNL     1      19.515  18.132  20.828  1.00  0.00    -0.071 N
ATOM     30  H23 UNL     1      20.516  17.943  20.878  1.00  0.00     0.274 HD
ATOM     31  H22 UNL     1      19.495  18.676  19.966  1.00  0.00     0.274 HD
ATOM     32  H21 UNL     1      19.206  18.691  21.624  1.00  0.00     0.274 HD
ENDBRANCH  28  29
ENDBRANCH  25  28
ENDBRANCH   6  24
BRANCH   3  33
HETATM   33  C16 UNL     1      13.850  15.683  15.423  1.00  0.00     0.198 C
BRANCH  33  34
HETATM   34  O4  UNL     1      12.572  15.482  14.911  1.00  0.00    -0.398 OA
ATOM     35  H4  UNL     1      11.908  15.456  15.591  1.00  0.00     0.209 HD
ENDBRANCH  33  34
ENDBRANCH   3  33
BRANCH   5  36
HETATM   36  O6  UNL     1      14.508  16.554  19.673  1.00  0.00    -0.391 OA
ATOM     37  H6  UNL     1      14.304  16.111  20.489  1.00  0.00     0.210 HD
ENDBRANCH   5  36
BRANCH   4  38
HETATM   38  O5  UNL     1      12.840  16.240  17.858  1.00  0.00    -0.390 OA
ATOM     39  H5  UNL     1      12.978  16.867  17.157  1.00  0.00     0.210 HD
ENDBRANCH   4  38
TORSDOF 12
ENDMDL