MODEL 5
REMARK VINA RESULT: -7.171921520      3.046      6.609
REMARK  11 active torsions:
REMARK  status: ('A' for Active; 'I' for Inactive)
REMARK       I    between atoms: C2_2  and  N1_4
REMARK    1  A    between atoms: N1_4  and  C3_6
REMARK    2  A    between atoms: C3_6  and  C4_7
REMARK    3  A    between atoms: C5_9  and  O3_10
REMARK    4  A    between atoms: O3_10  and  C6_11
REMARK    5  A    between atoms: C7_12  and  O4_13
REMARK    6  A    between atoms: C8_15  and  C9_16
REMARK    7  A    between atoms: C9_16  and  O5_17
REMARK    8  A    between atoms: C10_20  and  N2_21
REMARK       I    between atoms: N2_21  and  C11_23
REMARK    9  A    between atoms: C11_23  and  C12_25
REMARK   10  A    between atoms: C18_31  and  O8_32
REMARK   11  A    between atoms: C20_36  and  N3_37
ROOT
HETATM    1  C6  UNL     1      18.145  14.513  17.777  1.00  0.00     0.191 C
HETATM    2  C7  UNL     1      19.488  13.876  17.954  1.00  0.00     0.181 C
HETATM    3  C8  UNL     1      20.211  14.155  19.215  1.00  0.00     0.179 C
HETATM    4  O6  UNL     1      19.665  15.090  20.055  1.00  0.00    -0.354 OA
HETATM    5  C10 UNL     1      19.230  16.166  19.314  1.00  0.00     0.255 C
HETATM    6  C18 UNL     1      17.943  15.727  18.654  1.00  0.00     0.198 C
ENDROOT
BRANCH   1   7
HETATM    7  O3  UNL     1      17.064  13.696  17.972  1.00  0.00    -0.328 OA
BRANCH   7   8
HETATM    8  C5  UNL     1      16.382  13.338  16.833  1.00  0.00     0.413 C
HETATM    9  O2  UNL     1      15.025  13.331  16.954  1.00  0.00    -0.330 OA
HETATM   10  C4  UNL     1      14.488  14.606  17.199  1.00  0.00     0.177 C
HETATM   11  C20 UNL     1      15.225  15.642  16.416  1.00  0.00     0.237 C
HETATM   12  C19 UNL     1      15.864  14.900  15.227  1.00  0.00     0.209 C
HETATM   13  O9  UNL     1      16.865  14.113  15.793  1.00  0.00    -0.337 OA
BRANCH  10  14
HETATM   14  C3  UNL     1      12.996  14.592  16.990  1.00  0.00     0.156 C
BRANCH  14  15
HETATM   15  N1  UNL     1      12.299  14.711  18.227  1.00  0.00    -0.359 N
HETATM   16  C2  UNL     1      12.485  15.719  19.205  1.00  0.00     0.213 C
HETATM   17  C1  UNL     1      11.706  15.768  20.478  1.00  0.00     0.117 C
HETATM   18  O1  UNL     1      13.328  16.621  19.030  1.00  0.00    -0.274 OA
ATOM     19  H1  UNL     1      11.597  14.000  18.429  1.00  0.00     0.162 HD
ENDBRANCH  14  15
ENDBRANCH  10  14
BRANCH  11  20
HETATM   20  N3  UNL     1      14.416  16.710  15.951  1.00  0.00    -0.070 N
ATOM     21  H33 UNL     1      14.653  17.575  16.438  1.00  0.00     0.274 HD
ATOM     22  H32 UNL     1      14.678  16.968  14.999  1.00  0.00     0.274 HD
ATOM     23  H31 UNL     1      13.413  16.533  16.008  1.00  0.00     0.274 HD
ENDBRANCH  11  20
ENDBRANCH   7   8
ENDBRANCH   1   7
BRANCH   2  24
HETATM   24  O4  UNL     1      20.359  14.206  16.894  1.00  0.00    -0.390 OA
ATOM     25  H4  UNL     1      19.927  14.127  16.051  1.00  0.00     0.210 HD
ENDBRANCH   2  24
BRANCH   6  26
HETATM   26  O8  UNL     1      17.063  15.408  19.695  1.00  0.00    -0.388 OA
ATOM     27  H8  UNL     1      16.288  14.991  19.338  1.00  0.00     0.210 HD
ENDBRANCH   6  26
BRANCH   3  28
HETATM   28  C9  UNL     1      21.695  14.445  18.945  1.00  0.00     0.198 C
BRANCH  28  29
HETATM   29  O5  UNL     1      22.443  13.271  18.955  1.00  0.00    -0.398 OA
ATOM     30  H5  UNL     1      22.334  12.804  19.776  1.00  0.00     0.209 HD
ENDBRANCH  28  29
ENDBRANCH   3  28
BRANCH   5  31
HETATM   31  N2  UNL     1      18.863  17.238  20.242  1.00  0.00    -0.332 N
HETATM   32  C11 UNL     1      19.796  18.228  20.638  1.00  0.00     0.223 C
HETATM   33  O7  UNL     1      20.957  18.167  20.173  1.00  0.00    -0.273 OA
ATOM     34  H2  UNL     1      17.912  17.274  20.611  1.00  0.00     0.165 HD
BRANCH  32  35
HETATM   35  C12 UNL     1      19.466  19.324  21.573  1.00  0.00     0.078 C
HETATM   36  C13 UNL     1      18.163  19.957  21.130  1.00  0.00     0.014 C
HETATM   37  C14 UNL     1      17.834  21.164  21.953  1.00  0.00     0.001 C
HETATM   38  C15 UNL     1      18.828  21.388  23.080  1.00  0.00     0.000 C
HETATM   39  C16 UNL     1      20.207  21.521  22.490  1.00  0.00     0.001 C
HETATM   40  C17 UNL     1      20.525  20.409  21.543  1.00  0.00     0.014 C
ENDBRANCH  32  35
ENDBRANCH   5  31
TORSDOF 11
ENDMDL