MODEL 3
REMARK VINA RESULT: -7.941005708      1.461      1.736
REMARK  11 active torsions:
REMARK  status: ('A' for Active; 'I' for Inactive)
REMARK    1  A    between atoms: C5_5  and  N1_6
REMARK    2  A    between atoms: C6_10  and  O1_11
REMARK    3  A    between atoms: O1_11  and  C7_12
REMARK    4  A    between atoms: C8_13  and  N2_14
REMARK    5  A    between atoms: C10_19  and  N3_20
REMARK    6  A    between atoms: C11_24  and  O2_25
REMARK    7  A    between atoms: O2_25  and  C12_26
REMARK    8  A    between atoms: C14_28  and  C15_29
REMARK    9  A    between atoms: C15_29  and  C16_30
REMARK   10  A    between atoms: C22_40  and  N6_41
REMARK   11  A    between atoms: C23_45  and  O3_46
ROOT
HETATM    1  C1  UNL     1      12.505  15.346  19.084  1.00  0.00     0.015 C
HETATM    2  C2  UNL     1      12.227  15.787  18.000  1.00  0.00    -0.085 C
HETATM    3  C3  UNL     1      11.879  16.329  16.714  1.00  0.00     0.204 C
HETATM    4  C4  UNL     1      12.707  17.585  16.428  1.00  0.00     0.082 C
HETATM    5  C5  UNL     1      13.839  17.006  15.605  1.00  0.00     0.241 C
HETATM    6  C6  UNL     1      13.543  15.552  15.603  1.00  0.00     0.292 C
HETATM    7  O4  UNL     1      12.176  15.473  15.647  1.00  0.00    -0.342 OA
ENDROOT
BRANCH   5   8
HETATM    8  N1  UNL     1      13.829  17.518  14.251  1.00  0.00    -0.070 N
ATOM      9  H13 UNL     1      14.732  17.382  13.795  1.00  0.00     0.274 HD
ATOM     10  H12 UNL     1      13.253  16.941  13.638  1.00  0.00     0.274 HD
ATOM     11  H11 UNL     1      13.540  18.496  14.221  1.00  0.00     0.274 HD
ENDBRANCH   5   8
BRANCH   6  12
HETATM   12  O1  UNL     1      14.205  14.811  16.547  1.00  0.00    -0.349 OA
BRANCH  12  13
HETATM   13  C7  UNL     1      15.429  15.296  16.920  1.00  0.00     0.186 C
HETATM   14  C8  UNL     1      15.848  14.780  18.280  1.00  0.00     0.217 C
HETATM   15  C9  UNL     1      17.275  14.287  18.277  1.00  0.00     0.071 C
HETATM   16  C10 UNL     1      18.151  15.315  17.579  1.00  0.00     0.217 C
HETATM   17  C11 UNL     1      17.791  15.464  16.114  1.00  0.00     0.183 C
HETATM   18  C23 UNL     1      16.464  14.741  15.928  1.00  0.00     0.180 C
BRANCH  14  19
HETATM   19  N2  UNL     1      15.009  13.709  18.750  1.00  0.00    -0.072 N
ATOM     20  H23 UNL     1      15.346  13.343  19.640  1.00  0.00     0.274 HD
ATOM     21  H22 UNL     1      14.100  14.061  19.050  1.00  0.00     0.274 HD
ATOM     22  H21 UNL     1      14.905  12.962  18.063  1.00  0.00     0.274 HD
ENDBRANCH  14  19
BRANCH  16  23
HETATM   23  N3  UNL     1      17.987  16.560  18.307  1.00  0.00    -0.072 N
ATOM     24  H33 UNL     1      18.765  16.768  18.933  1.00  0.00     0.274 HD
ATOM     25  H32 UNL     1      18.075  17.387  17.717  1.00  0.00     0.274 HD
ATOM     26  H31 UNL     1      17.089  16.500  18.786  1.00  0.00     0.274 HD
ENDBRANCH  16  23
BRANCH  17  27
HETATM   27  O2  UNL     1      18.795  14.898  15.374  1.00  0.00    -0.374 OA
BRANCH  27  28
HETATM   28  C12 UNL     1      18.643  13.528  15.130  1.00  0.00     0.153 C
HETATM   29  C13 UNL     1      19.581  12.830  16.065  1.00  0.00     0.042 C
HETATM   30  C14 UNL     1      19.849  11.358  15.688  1.00  0.00     0.011 C
HETATM   31  C20 UNL     1      18.756  10.924  14.786  1.00  0.00     0.011 C
HETATM   32  C21 UNL     1      18.807  11.694  13.502  1.00  0.00     0.036 C
HETATM   33  C22 UNL     1      18.982  13.174  13.720  1.00  0.00     0.212 C
BRANCH  30  34
HETATM   34  C15 UNL     1      21.243  11.181  15.283  1.00  0.00    -0.020 C
BRANCH  34  35
HETATM   35  C16 UNL     1      21.688  10.539  14.057  1.00  0.00     0.027 C
HETATM   36  C17 UNL     1      22.682  11.101  13.167  1.00  0.00     0.048 A
HETATM   37  C18 UNL     1      24.076  10.976  13.294  1.00  0.00     0.118 A
HETATM   38  N5  UNL     1      22.492  11.777  12.037  1.00  0.00    -0.351 N
HETATM   39  N4  UNL     1      24.647  11.572  12.251  1.00  0.00    -0.360 N
HETATM   40  C19 UNL     1      23.670  12.064  11.478  1.00  0.00     0.180 A
ATOM     41  H4  UNL     1      25.649  11.642  12.072  1.00  0.00     0.166 HD
ATOM     42  H5  UNL     1      21.583  12.037  11.655  1.00  0.00     0.166 HD
ENDBRANCH  34  35
ENDBRANCH  30  34
BRANCH  33  43
HETATM   43  N6  UNL     1      18.123  13.831  12.750  1.00  0.00    -0.073 N
ATOM     44  H63 UNL     1      18.561  13.851  11.830  1.00  0.00     0.274 HD
ATOM     45  H62 UNL     1      17.309  13.256  12.535  1.00  0.00     0.274 HD
ATOM     46  H61 UNL     1      17.842  14.768  13.040  1.00  0.00     0.274 HD
ENDBRANCH  33  43
ENDBRANCH  27  28
ENDBRANCH  17  27
BRANCH  18  47
HETATM   47  O3  UNL     1      15.905  14.950  14.673  1.00  0.00    -0.390 OA
ATOM     48  H3  UNL     1      15.039  14.561  14.723  1.00  0.00     0.210 HD
ENDBRANCH  18  47
ENDBRANCH  12  13
ENDBRANCH   6  12
TORSDOF 11
ENDMDL