MODEL 1
REMARK VINA RESULT: -9.489202522      0.000      0.000
REMARK  10 active torsions:
REMARK  status: ('A' for Active; 'I' for Inactive)
REMARK    1  A    between atoms: C2_2  and  C3_3
REMARK    2  A    between atoms: C2_2  and  C13_22
REMARK    3  A    between atoms: C3_3  and  C4_5
REMARK    4  A    between atoms: C4_5  and  C5_7
REMARK    5  A    between atoms: C7_9  and  C8_10
REMARK    6  A    between atoms: C9_13  and  C10_14
REMARK    7  A    between atoms: C11_18  and  C12_19
REMARK    8  A    between atoms: C15_24  and  O9_25
REMARK    9  A    between atoms: C17_28  and  O10_29
REMARK   10  A    between atoms: C17_28  and  C18_31
ROOT
HETATM    1  C4  UNL     1      16.733  13.328  16.397  1.00  0.00     0.261 C
HETATM    2  O2  UNL     1      16.814  12.441  17.282  1.00  0.00    -0.283 OA
ENDROOT
BRANCH   1   3
HETATM    3  C3  UNL     1      17.405  13.218  15.136  1.00  0.00     0.229 C
HETATM    4  O1  UNL     1      16.784  12.531  14.241  1.00  0.00    -0.284 OA
BRANCH   3   5
HETATM    5  C2  UNL     1      18.698  13.799  14.799  1.00  0.00    -0.006 C
HETATM    6  C1  UNL     1      18.682  15.130  14.618  1.00  0.00     0.023 C
BRANCH   5   7
HETATM    7  C13 UNL     1      19.910  13.005  14.654  1.00  0.00     0.069 C
HETATM    8  C14 UNL     1      19.880  12.209  13.320  1.00  0.00     0.044 C
HETATM    9  C15 UNL     1      21.181  11.446  13.463  1.00  0.00     0.122 C
HETATM   10  C16 UNL     1      21.327  11.184  14.953  1.00  0.00     0.081 C
HETATM   11  C17 UNL     1      20.026  11.794  15.565  1.00  0.00     0.155 C
BRANCH   9  12
HETATM   12  O9  UNL     1      21.110  10.244  12.768  1.00  0.00    -0.395 OA
ATOM     13  H9  UNL     1      21.909   9.746  12.893  1.00  0.00     0.210 HD
ENDBRANCH   9  12
BRANCH  11  14
HETATM   14  O10 UNL     1      19.050  10.850  15.416  1.00  0.00    -0.378 OA
ATOM     15  H10 UNL     1      18.433  10.785  16.135  1.00  0.00     0.211 HD
ENDBRANCH  11  14
BRANCH  11  16
HETATM   16  C18 UNL     1      20.341  12.100  16.952  1.00  0.00     0.209 C
HETATM   17  O11 UNL     1      20.001  11.302  17.865  1.00  0.00    -0.646 OA
HETATM   18  O12 UNL     1      21.016  13.251  17.363  1.00  0.00    -0.646 OA
ENDBRANCH  11  16
ENDBRANCH   5   7
ENDBRANCH   3   5
ENDBRANCH   1   3
BRANCH   1  19
HETATM   19  C5  UNL     1      15.895  14.495  16.742  1.00  0.00     0.237 C
HETATM   20  C6  UNL     1      14.995  14.950  15.611  1.00  0.00     0.097 C
HETATM   21  C7  UNL     1      13.801  15.502  16.421  1.00  0.00     0.140 C
HETATM   22  C9  UNL     1      14.389  15.530  17.789  1.00  0.00     0.192 C
HETATM   23  O7  UNL     1      15.017  14.247  17.799  1.00  0.00    -0.322 OA
HETATM   24  C11 UNL     1      15.637  16.392  17.830  1.00  0.00     0.182 C
HETATM   25  O8  UNL     1      16.598  15.580  17.206  1.00  0.00    -0.339 OA
BRANCH  21  26
HETATM   26  C8  UNL     1      13.337  16.768  15.874  1.00  0.00     0.180 C
HETATM   27  O3  UNL     1      14.088  17.519  15.204  1.00  0.00    -0.648 OA
HETATM   28  O4  UNL     1      12.037  17.180  16.083  1.00  0.00    -0.648 OA
ENDBRANCH  21  26
BRANCH  22  29
HETATM   29  C10 UNL     1      13.494  15.697  18.908  1.00  0.00     0.213 C
HETATM   30  O5  UNL     1      13.248  14.770  19.713  1.00  0.00    -0.646 OA
HETATM   31  O6  UNL     1      12.818  16.903  19.198  1.00  0.00    -0.646 OA
ENDBRANCH  22  29
BRANCH  24  32
HETATM   32  C12 UNL     1      16.039  16.729  19.243  1.00  0.00     0.121 C
HETATM   33  S1  UNL     1      17.812  16.324  19.400  1.00  0.00    -0.095 SA
ENDBRANCH  24  32
ENDBRANCH   1  19
TORSDOF 10
ENDMDL