MODEL 3
REMARK VINA RESULT: -7.925106551      1.493      2.031
REMARK  15 active torsions:
REMARK  status: ('A' for Active; 'I' for Inactive)
REMARK    1  A    between atoms: C2_2  and  O1_5
REMARK    2  A    between atoms: O1_5  and  C5_6
REMARK    3  A    between atoms: C5_6  and  C6_8
REMARK    4  A    between atoms: C6_8  and  N1_11
REMARK       I    between atoms: N1_11  and  C9_13
REMARK    5  A    between atoms: C9_13  and  C10_15
REMARK    6  A    between atoms: C10_15  and  C11_16
REMARK    7  A    between atoms: C10_15  and  N3_35
REMARK    8  A    between atoms: C11_16  and  O4_17
REMARK    9  A    between atoms: C12_19  and  O5_20
REMARK   10  A    between atoms: O5_20  and  C13_21
REMARK       I    between atoms: C13_21  and  N2_23
REMARK   11  A    between atoms: N2_23  and  C14_25
REMARK   12  A    between atoms: C18_29  and  O7_30
REMARK   13  A    between atoms: C19_32  and  O8_33
REMARK   14  A    between atoms: N3_35  and  O9_36
REMARK   15  A    between atoms: N3_35  and  C20_38
ROOT
HETATM    1  C10 UNL     1      19.163  11.538  15.595  1.00  0.00     0.267 C
ENDROOT
BRANCH   1   2
HETATM    2  C9  UNL     1      19.391  11.883  17.020  1.00  0.00     0.250 C
HETATM    3  N1  UNL     1      20.029  13.108  17.331  1.00  0.00    -0.341 N
ATOM      4  H1  UNL     1      20.305  13.710  16.555  1.00  0.00     0.163 HD
HETATM    5  O3  UNL     1      19.031  11.113  17.942  1.00  0.00    -0.271 OA
BRANCH   3   6
HETATM    6  C6  UNL     1      20.312  13.560  18.657  1.00  0.00     0.113 C
HETATM    7  C7  UNL     1      21.779  14.002  18.792  1.00  0.00     0.049 C
HETATM    8  C8  UNL     1      20.159  12.405  19.628  1.00  0.00     0.049 C
BRANCH   6   9
HETATM    9  C5  UNL     1      19.506  14.734  19.081  1.00  0.00     0.287 C
HETATM   10  O2  UNL     1      20.107  15.823  19.254  1.00  0.00    -0.262 OA
BRANCH   9  11
HETATM   11  O1  UNL     1      18.158  14.703  19.293  1.00  0.00    -0.309 OA
BRANCH  11  12
HETATM   12  C2  UNL     1      17.167  14.993  18.352  1.00  0.00     0.060 C
HETATM   13  C1  UNL     1      16.508  13.773  17.764  1.00  0.00     0.045 C
HETATM   14  C3  UNL     1      17.696  15.874  17.219  1.00  0.00     0.045 C
HETATM   15  C4  UNL     1      16.086  15.796  19.052  1.00  0.00     0.045 C
ENDBRANCH  11  12
ENDBRANCH   9  11
ENDBRANCH   6   9
ENDBRANCH   3   6
ENDBRANCH   1   2
BRANCH   1  16
HETATM   16  C11 UNL     1      18.550  12.619  14.827  1.00  0.00     0.100 C
HETATM   17  C12 UNL     1      17.421  12.420  14.204  1.00  0.00     0.182 C
BRANCH  16  18
HETATM   18  O4  UNL     1      19.159  13.852  14.754  1.00  0.00    -0.360 OA
ATOM     19  H4  UNL     1      19.366  14.333  15.546  1.00  0.00     0.217 HD
ENDBRANCH  16  18
BRANCH  17  20
HETATM   20  O5  UNL     1      16.767  13.392  13.450  1.00  0.00    -0.271 OA
BRANCH  20  21
HETATM   21  C13 UNL     1      16.183  14.489  14.067  1.00  0.00     0.365 C
HETATM   22  O6  UNL     1      16.646  15.617  13.774  1.00  0.00    -0.238 OA
HETATM   23  N2  UNL     1      15.109  14.362  14.993  1.00  0.00    -0.329 N
ATOM     24  H2  UNL     1      14.749  13.435  15.217  1.00  0.00     0.165 HD
BRANCH  23  25
HETATM   25  C14 UNL     1      14.529  15.509  15.613  1.00  0.00     0.118 C
HETATM   26  C15 UNL     1      13.433  15.087  16.567  1.00  0.00     0.028 C
HETATM   27  C16 UNL     1      12.925  16.297  17.303  1.00  0.00     0.005 C
HETATM   28  C17 UNL     1      12.339  17.240  16.257  1.00  0.00     0.034 C
HETATM   29  C18 UNL     1      13.514  17.712  15.410  1.00  0.00     0.148 C
HETATM   30  C19 UNL     1      13.993  16.514  14.615  1.00  0.00     0.169 C
BRANCH  29  31
HETATM   31  O7  UNL     1      14.519  18.092  16.301  1.00  0.00    -0.393 OA
ATOM     32  H7  UNL     1      15.325  18.132  15.799  1.00  0.00     0.210 HD
ENDBRANCH  29  31
BRANCH  30  33
HETATM   33  O8  UNL     1      12.899  15.975  13.920  1.00  0.00    -0.391 OA
ATOM     34  H8  UNL     1      12.238  16.642  13.775  1.00  0.00     0.210 HD
ENDBRANCH  30  33
ENDBRANCH  23  25
ENDBRANCH  20  21
ENDBRANCH  17  20
ENDBRANCH   1  16
BRANCH   1  35
HETATM   35  N3  UNL     1      20.441  11.227  14.955  1.00  0.00    -0.215 N
BRANCH  35  36
HETATM   36  O9  UNL     1      21.520  11.953  15.275  1.00  0.00    -0.284 OA
ATOM     37  H9  UNL     1      21.565  12.357  16.134  1.00  0.00     0.245 HD
ENDBRANCH  35  36
BRANCH  35  38
HETATM   38  C20 UNL     1      20.550  10.185  14.017  1.00  0.00     0.377 C
HETATM   39  O10 UNL     1      21.704   9.786  13.665  1.00  0.00    -0.281 OA
ENDBRANCH  35  38
ENDBRANCH   1  35
TORSDOF 15
ENDMDL