MODEL 5
REMARK VINA RESULT: -8.014092839      3.290      6.777
REMARK  9 active torsions:
REMARK  status: ('A' for Active; 'I' for Inactive)
REMARK       I    between atoms: C2_2  and  N1_4
REMARK    1  A    between atoms: N1_4  and  C3_6
REMARK    2  A    between atoms: C5_8  and  N2_9
REMARK    3  A    between atoms: C6_13  and  N3_14
REMARK    4  A    between atoms: C8_19  and  O2_20
REMARK    5  A    between atoms: O2_20  and  C9_21
REMARK    6  A    between atoms: C10_23  and  O4_24
REMARK    7  A    between atoms: O4_24  and  C11_25
REMARK    8  A    between atoms: C11_25  and  C12_26
REMARK       I    between atoms: N4_30  and  C16_32
REMARK    9  A    between atoms: C19_41  and  O7_42
ROOT
HETATM    1  C9  UNL     1      17.057  13.967  16.435  1.00  0.00     0.296 C
HETATM    2  O3  UNL     1      17.321  13.000  17.400  1.00  0.00    -0.305 OA
HETATM    3  C10 UNL     1      18.711  12.813  17.469  1.00  0.00     0.415 C
HETATM    4  O6  UNL     1      19.194  12.254  16.280  1.00  0.00    -0.331 OA
HETATM    5  C17 UNL     1      18.931  13.044  15.175  1.00  0.00     0.156 C
HETATM    6  C18 UNL     1      19.825  14.240  15.072  1.00  0.00     0.042 C
HETATM    7  C19 UNL     1      17.464  13.379  15.096  1.00  0.00     0.202 C
ENDROOT
BRANCH   1   8
HETATM    8  O2  UNL     1      15.716  14.282  16.355  1.00  0.00    -0.351 OA
BRANCH   8   9
HETATM    9  C8  UNL     1      15.259  15.127  17.328  1.00  0.00     0.149 C
HETATM   10  C3  UNL     1      14.468  16.263  16.715  1.00  0.00     0.115 C
HETATM   11  C4  UNL     1      13.227  16.592  17.544  1.00  0.00     0.062 C
HETATM   12  C5  UNL     1      13.507  16.562  19.014  1.00  0.00     0.216 C
HETATM   13  C6  UNL     1      14.136  15.286  19.478  1.00  0.00     0.216 C
HETATM   14  C7  UNL     1      14.286  14.387  18.256  1.00  0.00     0.069 C
BRANCH  10  15
HETATM   15  N1  UNL     1      14.070  15.910  15.378  1.00  0.00    -0.354 N
HETATM   16  C2  UNL     1      13.709  16.858  14.395  1.00  0.00     0.214 C
HETATM   17  C1  UNL     1      13.308  16.431  13.031  1.00  0.00     0.117 C
HETATM   18  O1  UNL     1      13.730  18.081  14.678  1.00  0.00    -0.274 OA
ATOM     19  H1  UNL     1      14.047  14.922  15.127  1.00  0.00     0.162 HD
ENDBRANCH  10  15
BRANCH  12  20
HETATM   20  N2  UNL     1      12.254  16.761  19.708  1.00  0.00    -0.073 N
ATOM     21  H23 UNL     1      12.380  17.076  20.670  1.00  0.00     0.274 HD
ATOM     22  H22 UNL     1      11.737  17.572  19.367  1.00  0.00     0.274 HD
ATOM     23  H21 UNL     1      11.720  15.896  19.643  1.00  0.00     0.274 HD
ENDBRANCH  12  20
BRANCH  13  24
HETATM   24  N3  UNL     1      13.380  14.592  20.480  1.00  0.00    -0.073 N
ATOM     25  H33 UNL     1      13.352  15.132  21.346  1.00  0.00     0.274 HD
ATOM     26  H32 UNL     1      12.387  14.593  20.244  1.00  0.00     0.274 HD
ATOM     27  H31 UNL     1      13.704  13.642  20.662  1.00  0.00     0.274 HD
ENDBRANCH  13  24
ENDBRANCH   8   9
ENDBRANCH   1   8
BRANCH   7  28
HETATM   28  O7  UNL     1      16.777  12.175  14.899  1.00  0.00    -0.388 OA
ATOM     29  H7  UNL     1      17.122  11.521  15.496  1.00  0.00     0.210 HD
ENDBRANCH   7  28
BRANCH   3  30
HETATM   30  O4  UNL     1      19.377  13.937  17.840  1.00  0.00    -0.336 OA
BRANCH  30  31
HETATM   31  C11 UNL     1      19.671  14.221  19.112  1.00  0.00     0.205 C
BRANCH  31  32
HETATM   32  C12 UNL     1      18.917  15.262  19.847  1.00  0.00     0.154 C
HETATM   33  C13 UNL     1      18.225  16.312  19.055  1.00  0.00     0.043 C
HETATM   34  C14 UNL     1      18.037  17.393  20.139  1.00  0.00     0.087 C
HETATM   35  C15 UNL     1      19.368  17.333  20.796  1.00  0.00     0.120 C
HETATM   36  N4  UNL     1      19.958  18.355  21.333  1.00  0.00    -0.315 N
HETATM   37  O5  UNL     1      19.798  16.027  20.708  1.00  0.00    -0.332 OA
HETATM   38  C16 UNL     1      19.359  19.644  21.333  1.00  0.00     0.187 C
ATOM     39  H4  UNL     1      20.873  18.231  21.766  1.00  0.00     0.170 HD
HETATM   40  N5  UNL     1      20.054  20.677  20.969  1.00  0.00    -0.373 N
HETATM   41  N6  UNL     1      18.003  19.848  21.726  1.00  0.00    -0.064 NA
ATOM     42  H52 UNL     1      21.024  20.532  20.689  1.00  0.00     0.158 HD
ATOM     43  H51 UNL     1      19.624  21.602  20.968  1.00  0.00     0.158 HD
ENDBRANCH  31  32
ENDBRANCH  30  31
ENDBRANCH   3  30
TORSDOF 9
ENDMDL