MODEL 3
REMARK VINA RESULT: -7.964559422      1.086      1.310
REMARK  10 active torsions:
REMARK  status: ('A' for Active; 'I' for Inactive)
REMARK    1  A    between atoms: C2_2  and  C3_4
REMARK    2  A    between atoms: C3_4  and  C4_5
REMARK    3  A    between atoms: C4_5  and  C5_6
REMARK    4  A    between atoms: C5_6  and  N1_7
REMARK    5  A    between atoms: C11_18  and  C12_19
REMARK    6  A    between atoms: C12_19  and  S3_27
REMARK    7  A    between atoms: N2_20  and  N3_22
REMARK    8  A    between atoms: S3_27  and  N6_30
REMARK    9  A    between atoms: N6_30  and  C14_32
REMARK   10  A    between atoms: N7_33  and  N8_35
ROOT
HETATM    1  C5  UNL     1      18.238  13.606  15.452  1.00  0.00     0.142 C
HETATM    2  C6  UNL     1      17.963  12.134  15.769  1.00  0.00     0.114 C
HETATM    3  S1  UNL     1      18.002  12.150  17.650  1.00  0.00    -0.150 SA
HETATM    4  C7  UNL     1      19.210  13.521  17.613  1.00  0.00     0.119 C
HETATM    5  S2  UNL     1      19.571  14.351  19.132  1.00  0.00    -0.149 SA
HETATM    6  C8  UNL     1      19.321  16.136  18.556  1.00  0.00     0.109 C
HETATM    7  C9  UNL     1      17.823  16.010  18.274  1.00  0.00    -0.065 C
HETATM    8  C10 UNL     1      17.022  16.700  19.301  1.00  0.00     0.045 C
HETATM    9  C11 UNL     1      17.355  15.161  17.345  1.00  0.00    -0.005 C
HETATM   10  C15 UNL     1      18.415  14.406  16.619  1.00  0.00     0.082 C
ENDROOT
BRANCH   9  11
HETATM   11  C12 UNL     1      15.937  15.128  17.149  1.00  0.00     0.171 C
HETATM   12  N2  UNL     1      15.373  16.129  16.438  1.00  0.00    -0.286 N
ATOM     13  H2  UNL     1      15.973  16.868  16.072  1.00  0.00     0.188 HD
BRANCH  12  14
HETATM   14  N3  UNL     1      14.015  16.193  16.186  1.00  0.00    -0.275 N
HETATM   15  C13 UNL     1      13.416  17.319  15.987  1.00  0.00     0.215 C
HETATM   16  N4  UNL     1      12.010  17.332  15.731  1.00  0.00    -0.065 NA
HETATM   17  N5  UNL     1      14.182  18.517  16.030  1.00  0.00    -0.065 NA
ATOM     18  H3  UNL     1      13.473  15.330  16.158  1.00  0.00     0.189 HD
ENDBRANCH  12  14
BRANCH  11  19
HETATM   19  S3  UNL     1      14.661  14.247  17.948  1.00  0.00     0.281 S
HETATM   20  O2  UNL     1      15.075  12.868  18.425  1.00  0.00    -0.199 OA
HETATM   21  O3  UNL     1      13.395  14.152  17.224  1.00  0.00    -0.199 OA
BRANCH  19  22
HETATM   22  N6  UNL     1      14.277  15.087  19.494  1.00  0.00    -0.274 N
ATOM     23  H6  UNL     1      14.602  14.746  20.399  1.00  0.00     0.179 HD
BRANCH  22  24
HETATM   24  C14 UNL     1      13.498  16.249  19.359  1.00  0.00     0.207 C
HETATM   25  N7  UNL     1      12.375  16.323  20.026  1.00  0.00    -0.302 N
ATOM     26  H7  UNL     1      11.792  17.156  19.946  1.00  0.00     0.187 HD
BRANCH  25  27
HETATM   27  N8  UNL     1      11.971  15.276  20.842  1.00  0.00    -0.344 N
ATOM     28  H82 UNL     1      12.669  14.805  21.417  1.00  0.00     0.176 HD
ATOM     29  H81 UNL     1      10.995  14.985  20.864  1.00  0.00     0.176 HD
ENDBRANCH  25  27
ENDBRANCH  22  24
ENDBRANCH  19  22
ENDBRANCH  11  19
ENDBRANCH   9  11
BRANCH   1  30
HETATM   30  C4  UNL     1      19.400  13.762  14.463  1.00  0.00     0.047 C
BRANCH  30  31
HETATM   31  C3  UNL     1      19.743  12.780  13.480  1.00  0.00     0.080 C
BRANCH  31  32
HETATM   32  C2  UNL     1      20.991  12.046  13.977  1.00  0.00     0.123 C
HETATM   33  C1  UNL     1      21.875  11.345  13.033  1.00  0.00     0.091 C
HETATM   34  O1  UNL     1      21.253  12.042  15.156  1.00  0.00    -0.298 OA
ENDBRANCH  31  32
ENDBRANCH  30  31
ENDBRANCH   1  30
BRANCH   1  35
HETATM   35  N1  UNL     1      17.130  13.918  14.528  1.00  0.00    -0.069 N
ATOM     36  H13 UNL     1      16.738  14.858  14.587  1.00  0.00     0.275 HD
ATOM     37  H12 UNL     1      17.370  14.006  13.541  1.00  0.00     0.275 HD
ATOM     38  H11 UNL     1      16.508  13.150  14.779  1.00  0.00     0.275 HD
ENDBRANCH   1  35
TORSDOF 10
ENDMDL