MODEL 5
REMARK VINA RESULT: -8.317063339      1.753      6.252
REMARK  12 active torsions:
REMARK  status: ('A' for Active; 'I' for Inactive)
REMARK    1  A    between atoms: C2_2  and  O1_3
REMARK    2  A    between atoms: O1_3  and  C3_4
REMARK    3  A    between atoms: C7_8  and  O2_9
REMARK    4  A    between atoms: O2_9  and  C8_10
REMARK    5  A    between atoms: C8_10  and  C9_11
REMARK    6  A    between atoms: C10_13  and  O4_14
REMARK    7  A    between atoms: O4_14  and  C11_15
REMARK    8  A    between atoms: C18_25  and  O5_26
REMARK    9  A    between atoms: C19_28  and  O6_29
REMARK   10  A    between atoms: C20_31  and  O7_32
REMARK   11  A    between atoms: C21_34  and  O8_35
REMARK   12  A    between atoms: C22_37  and  O9_38
ROOT
HETATM    1  C9  UNL     1      17.502  12.493  14.858  1.00  0.00     0.179 C
HETATM    2  O3  UNL     1      18.006  12.300  16.153  1.00  0.00    -0.348 OA
HETATM    3  C10 UNL     1      19.227  12.816  16.426  1.00  0.00     0.292 C
HETATM    4  C18 UNL     1      20.310  12.580  15.431  1.00  0.00     0.204 C
HETATM    5  C19 UNL     1      19.780  12.801  14.031  1.00  0.00     0.183 C
HETATM    6  C20 UNL     1      18.537  11.958  13.907  1.00  0.00     0.180 C
ENDROOT
BRANCH   1   7
HETATM    7  C8  UNL     1      17.217  13.950  14.759  1.00  0.00     0.203 C
BRANCH   7   8
HETATM    8  O2  UNL     1      15.980  14.365  14.376  1.00  0.00    -0.381 OA
BRANCH   8   9
HETATM    9  C7  UNL     1      15.154  14.806  15.414  1.00  0.00     0.153 C
HETATM   10  C6  UNL     1      16.083  15.548  16.394  1.00  0.00     0.041 C
HETATM   11  C4  UNL     1      15.352  16.453  17.316  1.00  0.00     0.016 C
HETATM   12  C3  UNL     1      13.895  16.068  17.328  1.00  0.00     0.162 C
HETATM   13  C5  UNL     1      15.870  16.280  18.746  1.00  0.00     0.012 C
HETATM   14  C22 UNL     1      13.283  16.381  15.976  1.00  0.00     0.179 C
HETATM   15  C21 UNL     1      14.099  15.713  14.877  1.00  0.00     0.178 C
BRANCH  12  16
HETATM   16  O1  UNL     1      13.161  16.753  18.328  1.00  0.00    -0.356 OA
BRANCH  16  17
HETATM   17  C2  UNL     1      12.304  15.993  19.110  1.00  0.00     0.125 C
HETATM   18  C1  UNL     1      12.459  15.784  20.391  1.00  0.00     0.037 C
ENDBRANCH  16  17
ENDBRANCH  12  16
BRANCH  14  19
HETATM   19  O9  UNL     1      13.333  17.746  15.771  1.00  0.00    -0.390 OA
ATOM     20  H9  UNL     1      12.836  18.176  16.458  1.00  0.00     0.210 HD
ENDBRANCH  14  19
BRANCH  15  21
HETATM   21  O8  UNL     1      14.627  16.672  14.002  1.00  0.00    -0.390 OA
ATOM     22  H8  UNL     1      14.746  17.513  14.426  1.00  0.00     0.210 HD
ENDBRANCH  15  21
ENDBRANCH   8   9
ENDBRANCH   7   8
ENDBRANCH   1   7
BRANCH   6  23
HETATM   23  O7  UNL     1      18.160  11.700  12.634  1.00  0.00    -0.390 OA
ATOM     24  H7  UNL     1      17.466  11.067  12.492  1.00  0.00     0.210 HD
ENDBRANCH   6  23
BRANCH   3  25
HETATM   25  O4  UNL     1      19.575  12.438  17.715  1.00  0.00    -0.351 OA
BRANCH  25  26
HETATM   26  C11 UNL     1      20.302  13.320  18.431  1.00  0.00     0.156 C
HETATM   27  C12 UNL     1      19.999  13.159  19.932  1.00  0.00     0.041 C
HETATM   28  C13 UNL     1      18.981  14.302  19.761  1.00  0.00     0.021 C
HETATM   29  C14 UNL     1      19.004  15.335  20.845  1.00  0.00     0.008 C
HETATM   30  C17 UNL     1      19.828  14.726  18.583  1.00  0.00     0.218 C
HETATM   31  C15 UNL     1      19.176  16.739  20.316  1.00  0.00     0.028 C
HETATM   32  C16 UNL     1      20.291  16.882  19.327  1.00  0.00     0.233 C
HETATM   33  N1  UNL     1      20.896  15.562  19.156  1.00  0.00    -0.068 N
ATOM     34  H12 UNL     1      21.755  15.570  18.606  1.00  0.00     0.277 HD
ATOM     35  H11 UNL     1      21.305  15.182  20.009  1.00  0.00     0.277 HD
ENDBRANCH  25  26
ENDBRANCH   3  25
BRANCH   5  36
HETATM   36  O6  UNL     1      20.777  12.247  13.181  1.00  0.00    -0.390 OA
ATOM     37  H6  UNL     1      20.660  11.307  13.258  1.00  0.00     0.210 HD
ENDBRANCH   5  36
BRANCH   4  38
HETATM   38  O5  UNL     1      20.781  11.249  15.446  1.00  0.00    -0.388 OA
ATOM     39  H5  UNL     1      21.386  11.083  16.160  1.00  0.00     0.210 HD
ENDBRANCH   4  38
TORSDOF 12
ENDMDL