MODEL 1
REMARK VINA RESULT: -9.172607797      0.000      0.000
REMARK  10 active torsions:
REMARK  status: ('A' for Active; 'I' for Inactive)
REMARK    1  A    between atoms: C1_2  and  C2_3
REMARK       I    between atoms: C1_2  and  N1_11
REMARK    2  A    between atoms: C2_3  and  C3_4
REMARK    3  A    between atoms: N1_11  and  C7_13
REMARK    4  A    between atoms: C8_14  and  O4_15
REMARK    5  A    between atoms: C9_17  and  C10_18
REMARK    6  A    between atoms: C10_18  and  O5_19
REMARK    7  A    between atoms: C11_22  and  C12_23
REMARK    8  A    between atoms: C12_23  and  N2_24
REMARK       I    between atoms: N2_24  and  C13_26
REMARK    9  A    between atoms: C13_26  and  C14_28
REMARK   10  A    between atoms: C20_34  and  O8_35
ROOT
HETATM    1  C7  UNL     1      15.345  14.695  15.911  1.00  0.00     0.147 C
HETATM    2  C8  UNL     1      14.118  15.359  15.360  1.00  0.00     0.174 C
HETATM    3  C9  UNL     1      13.639  16.345  16.399  1.00  0.00     0.176 C
HETATM    4  O6  UNL     1      13.467  15.872  17.643  1.00  0.00    -0.371 OA
HETATM    5  C11 UNL     1      14.299  14.962  18.190  1.00  0.00     0.170 C
HETATM    6  C20 UNL     1      15.063  14.089  17.240  1.00  0.00     0.174 C
ENDROOT
BRANCH   1   7
HETATM    7  N1  UNL     1      15.851  13.651  15.037  1.00  0.00    -0.351 N
HETATM    8  C1  UNL     1      16.696  13.894  13.941  1.00  0.00     0.220 C
HETATM    9  O1  UNL     1      17.058  15.050  13.666  1.00  0.00    -0.274 OA
ATOM     10  H1  UNL     1      15.576  12.687  15.230  1.00  0.00     0.163 HD
BRANCH   8  11
HETATM   11  C2  UNL     1      17.167  12.782  13.101  1.00  0.00     0.137 C
BRANCH  11  12
HETATM   12  C3  UNL     1      18.427  12.143  13.695  1.00  0.00     0.154 C
HETATM   13  C4  UNL     1      19.488  13.167  13.744  1.00  0.00     0.201 C
HETATM   14  O2  UNL     1      20.074  13.359  14.984  1.00  0.00    -0.370 OA
HETATM   15  C5  UNL     1      20.266  12.122  15.561  1.00  0.00     0.217 C
HETATM   16  S1  UNL     1      21.109  10.951  14.466  1.00  0.00    -0.061 SA
HETATM   17  C6  UNL     1      18.915  11.574  15.896  1.00  0.00     0.212 C
HETATM   18  O3  UNL     1      18.078  11.522  14.837  1.00  0.00    -0.380 OA
ENDBRANCH  11  12
ENDBRANCH   8  11
ENDBRANCH   1   7
BRANCH   2  19
HETATM   19  O4  UNL     1      14.470  16.119  14.223  1.00  0.00    -0.391 OA
ATOM     20  H4  UNL     1      14.039  15.758  13.457  1.00  0.00     0.210 HD
ENDBRANCH   2  19
BRANCH   6  21
HETATM   21  O8  UNL     1      14.393  12.875  17.024  1.00  0.00    -0.391 OA
ATOM     22  H8  UNL     1      15.034  12.177  17.077  1.00  0.00     0.210 HD
ENDBRANCH   6  21
BRANCH   3  23
HETATM   23  C10 UNL     1      14.436  17.650  16.314  1.00  0.00     0.198 C
BRANCH  23  24
HETATM   24  O5  UNL     1      13.706  18.544  15.543  1.00  0.00    -0.398 OA
ATOM     25  H5  UNL     1      14.122  19.396  15.613  1.00  0.00     0.209 HD
ENDBRANCH  23  24
ENDBRANCH   3  23
BRANCH   5  26
HETATM   26  C12 UNL     1      15.285  15.625  19.119  1.00  0.00     0.157 C
BRANCH  26  27
HETATM   27  N2  UNL     1      16.635  15.124  19.031  1.00  0.00    -0.354 N
HETATM   28  C13 UNL     1      17.738  15.934  19.347  1.00  0.00     0.251 C
HETATM   29  O7  UNL     1      17.572  17.111  19.720  1.00  0.00    -0.268 OA
ATOM     30  H2  UNL     1      16.793  14.160  18.734  1.00  0.00     0.162 HD
BRANCH  28  31
HETATM   31  C14 UNL     1      19.089  15.414  19.242  1.00  0.00     0.032 A
HETATM   32  C15 UNL     1      20.225  16.043  19.684  1.00  0.00     0.017 A
HETATM   33  C16 UNL     1      21.497  15.487  19.548  1.00  0.00     0.001 A
HETATM   34  C17 UNL     1      21.672  14.259  18.954  1.00  0.00     0.000 A
HETATM   35  C18 UNL     1      20.539  13.616  18.506  1.00  0.00     0.001 A
HETATM   36  C19 UNL     1      19.285  14.164  18.639  1.00  0.00     0.017 A
ENDBRANCH  28  31
ENDBRANCH  26  27
ENDBRANCH   5  26
TORSDOF 10
ENDMDL