MODEL 4
REMARK VINA RESULT: -6.284112325      2.094      3.484
REMARK  16 active torsions:
REMARK  status: ('A' for Active; 'I' for Inactive)
REMARK    1  A    between atoms: C2_2  and  O2_4
REMARK    2  A    between atoms: O2_4  and  C3_5
REMARK    3  A    between atoms: C4_8  and  C5_9
REMARK    4  A    between atoms: C5_9  and  S3_10
REMARK    5  A    between atoms: S3_10  and  C6_13
REMARK    6  A    between atoms: C6_13  and  C7_14
REMARK    7  A    between atoms: C6_13  and  C8_17
REMARK    8  A    between atoms: C8_17  and  O7_18
REMARK    9  A    between atoms: C8_17  and  O8_20
REMARK   10  A    between atoms: C9_22  and  C10_23
REMARK   11  A    between atoms: C12_29  and  N2_30
REMARK       I    between atoms: N2_30  and  C13_32
REMARK   12  A    between atoms: C13_32  and  C14_34
REMARK   13  A    between atoms: C14_34  and  C15_35
REMARK   14  A    between atoms: C16_36  and  O13_37
REMARK   15  A    between atoms: N5_43  and  C17_44
REMARK   16  A    between atoms: C21_48  and  O14_49
ROOT
HETATM    1  C3  UNL     1      70.632  36.252  66.191  1.00  0.00     0.242 C
HETATM    2  S1  UNL     1      70.055  36.896  64.553  1.00  0.00    -0.028 SA
HETATM    3  S2  UNL     1      69.372  35.125  63.617  1.00  0.00    -0.054 SA
HETATM    4  C4  UNL     1      68.998  33.966  64.976  1.00  0.00     0.037 C
HETATM    5  C9  UNL     1      69.039  34.267  66.250  1.00  0.00     0.132 C
HETATM    6  N1  UNL     1      69.449  35.580  66.725  1.00  0.00    -0.263 N
HETATM    7  C11 UNL     1      68.840  36.392  67.703  1.00  0.00     0.253 C
HETATM    8  O11 UNL     1      67.678  36.229  68.215  1.00  0.00    -0.270 OA
HETATM    9  C12 UNL     1      69.724  37.502  68.089  1.00  0.00     0.211 C
HETATM   10  C21 UNL     1      70.899  37.334  67.136  1.00  0.00     0.219 C
ENDROOT
BRANCH   9  11
HETATM   11  N2  UNL     1      70.159  37.410  69.465  1.00  0.00    -0.345 N
HETATM   12  C13 UNL     1      69.609  38.217  70.475  1.00  0.00     0.224 C
HETATM   13  O12 UNL     1      68.734  39.038  70.157  1.00  0.00    -0.273 OA
ATOM     14  H2  UNL     1      70.886  36.739  69.711  1.00  0.00     0.163 HD
BRANCH  12  15
HETATM   15  C14 UNL     1      70.041  38.122  71.907  1.00  0.00     0.166 C
BRANCH  15  16
HETATM   16  C15 UNL     1      70.494  39.402  72.464  1.00  0.00     0.091 A
HETATM   17  C16 UNL     1      69.566  40.435  72.664  1.00  0.00     0.181 A
HETATM   18  N3  UNL     1      70.252  41.471  73.159  1.00  0.00    -0.264 N
HETATM   19  N4  UNL     1      71.493  41.104  73.255  1.00  0.00    -0.238 N
ATOM     20  H3  UNL     1      69.871  42.381  73.413  1.00  0.00     0.190 HD
HETATM   21  N5  UNL     1      71.680  39.830  72.833  1.00  0.00    -0.273 N
ATOM     22  H4  UNL     1      72.239  41.704  73.606  1.00  0.00     0.208 HD
BRANCH  17  23
HETATM   23  O13 UNL     1      68.189  40.400  72.400  1.00  0.00    -0.344 OA
ATOM     24  H13 UNL     1      67.543  41.057  72.631  1.00  0.00     0.219 HD
ENDBRANCH  17  23
BRANCH  21  25
HETATM   25  C17 UNL     1      72.957  39.197  72.822  1.00  0.00     0.109 A
HETATM   26  C18 UNL     1      74.201  40.006  72.890  1.00  0.00     0.027 A
HETATM   27  C19 UNL     1      74.661  39.109  74.033  1.00  0.00     0.004 A
HETATM   28  C20 UNL     1      73.377  38.290  73.910  1.00  0.00     0.027 A
ENDBRANCH  21  25
ENDBRANCH  15  16
ENDBRANCH  12  15
ENDBRANCH   9  11
BRANCH  10  29
HETATM   29  O14 UNL     1      71.193  38.561  66.514  1.00  0.00    -0.387 OA
ATOM     30  H14 UNL     1      70.838  39.312  66.973  1.00  0.00     0.210 HD
ENDBRANCH  10  29
BRANCH   1  31
HETATM   31  O2  UNL     1      71.694  35.409  65.890  1.00  0.00    -0.275 OA
BRANCH  31  32
HETATM   32  C2  UNL     1      72.758  35.092  66.697  1.00  0.00     0.257 C
HETATM   33  C1  UNL     1      74.087  35.652  66.292  1.00  0.00     0.126 C
HETATM   34  O1  UNL     1      72.571  34.373  67.700  1.00  0.00    -0.266 OA
ENDBRANCH  31  32
ENDBRANCH   1  31
BRANCH   5  35
HETATM   35  C10 UNL     1      68.712  33.297  67.301  1.00  0.00     0.228 C
HETATM   36  O9  UNL     1      69.683  32.750  67.943  1.00  0.00    -0.643 OA
HETATM   37  O10 UNL     1      67.488  32.877  67.712  1.00  0.00    -0.643 OA
ENDBRANCH   5  35
BRANCH   4  38
HETATM   38  C5  UNL     1      68.728  32.585  64.497  1.00  0.00     0.190 C
BRANCH  38  39
HETATM   39  S3  UNL     1      67.018  32.359  64.052  1.00  0.00     0.167 S
HETATM   40  O3  UNL     1      66.819  32.218  62.585  1.00  0.00    -0.226 OA
HETATM   41  O4  UNL     1      66.202  33.496  64.584  1.00  0.00    -0.226 OA
BRANCH  39  42
HETATM   42  C6  UNL     1      66.478  30.884  64.919  1.00  0.00     0.263 C
BRANCH  42  43
HETATM   43  C7  UNL     1      66.599  29.669  64.090  1.00  0.00     0.197 C
HETATM   44  O5  UNL     1      67.763  29.161  63.929  1.00  0.00    -0.647 OA
HETATM   45  O6  UNL     1      65.491  29.096  63.508  1.00  0.00    -0.647 OA
ENDBRANCH  42  43
BRANCH  42  46
HETATM   46  C8  UNL     1      64.992  31.045  65.268  1.00  0.00     0.282 C
BRANCH  46  47
HETATM   47  O7  UNL     1      64.288  31.540  64.198  1.00  0.00    -0.370 OA
ATOM     48  H7  UNL     1      63.365  31.625  64.410  1.00  0.00     0.212 HD
ENDBRANCH  46  47
BRANCH  46  49
HETATM   49  O8  UNL     1      64.928  31.795  66.418  1.00  0.00    -0.370 OA
ATOM     50  H8  UNL     1      64.596  31.226  67.103  1.00  0.00     0.212 HD
ENDBRANCH  46  49
ENDBRANCH  42  46
ENDBRANCH  39  42
ENDBRANCH  38  39
ENDBRANCH   4  38
TORSDOF 16
ENDMDL