MODEL 4
REMARK VINA RESULT: -6.438243847      7.416     12.298
REMARK  13 active torsions:
REMARK  status: ('A' for Active; 'I' for Inactive)
REMARK    1  A    between atoms: C3_5  and  N2_6
REMARK    2  A    between atoms: C5_13  and  C6_14
REMARK    3  A    between atoms: C6_14  and  C7_16
REMARK    4  A    between atoms: N5_19  and  C8_20
REMARK    5  A    between atoms: C8_20  and  C9_21
REMARK    6  A    between atoms: C9_21  and  C10_22
REMARK    7  A    between atoms: C10_22  and  N6_23
REMARK    8  A    between atoms: C13_30  and  C14_31
REMARK    9  A    between atoms: C15_34  and  C16_35
REMARK   10  A    between atoms: C17_38  and  C18_39
REMARK   11  A    between atoms: N9_44  and  C20_45
REMARK   12  A    between atoms: C22_48  and  C23_49
REMARK   13  A    between atoms: C23_49  and  O12_50
ROOT
HETATM    1  C7  UNL     1      65.491  32.220  66.915  1.00  0.00     0.180 A
HETATM    2  N4  UNL     1      65.828  31.355  67.863  1.00  0.00    -0.272 N
ATOM      3  H4  UNL     1      65.185  30.678  68.275  1.00  0.00     0.189 HD
HETATM    4  N5  UNL     1      67.121  31.480  68.213  1.00  0.00    -0.219 N
HETATM    5  C19 UNL     1      67.581  32.478  67.412  1.00  0.00     0.350 A
HETATM    6  O11 UNL     1      68.773  32.891  67.434  1.00  0.00    -0.244 OA
HETATM    7  N9  UNL     1      66.589  32.935  66.622  1.00  0.00    -0.264 N
ENDROOT
BRANCH   4   8
HETATM    8  C8  UNL     1      67.778  30.801  69.282  1.00  0.00     0.096 C
BRANCH   8   9
HETATM    9  C9  UNL     1      67.809  31.201  70.660  1.00  0.00     0.067 C
BRANCH   9  10
HETATM   10  C10 UNL     1      67.218  30.293  71.723  1.00  0.00     0.144 C
BRANCH  10  11
HETATM   11  N6  UNL     1      65.766  30.553  71.772  1.00  0.00    -0.248 N
HETATM   12  C11 UNL     1      65.222  31.434  72.674  1.00  0.00     0.352 A
HETATM   13  O3  UNL     1      65.940  32.087  73.470  1.00  0.00    -0.244 OA
HETATM   14  N7  UNL     1      63.884  31.449  72.537  1.00  0.00    -0.190 N
HETATM   15  N8  UNL     1      63.592  30.610  71.586  1.00  0.00    -0.211 N
HETATM   16  C17 UNL     1      62.650  32.023  73.040  1.00  0.00     0.153 A
HETATM   17  C12 UNL     1      64.749  30.052  71.105  1.00  0.00     0.349 A
HETATM   18  C13 UNL     1      62.174  30.545  71.389  1.00  0.00     0.257 A
HETATM   19  O4  UNL     1      64.804  29.212  70.187  1.00  0.00    -0.245 OA
HETATM   20  C15 UNL     1      61.619  31.520  72.387  1.00  0.00     0.089 A
BRANCH  18  21
HETATM   21  C14 UNL     1      61.705  29.160  71.750  1.00  0.00     0.204 C
HETATM   22  O5  UNL     1      60.907  28.599  70.927  1.00  0.00    -0.646 OA
HETATM   23  O6  UNL     1      62.065  28.480  72.867  1.00  0.00    -0.646 OA
ENDBRANCH  18  21
BRANCH  20  24
HETATM   24  C16 UNL     1      60.206  31.755  72.505  1.00  0.00     0.210 C
HETATM   25  O7  UNL     1      59.485  31.882  71.454  1.00  0.00    -0.644 OA
HETATM   26  O8  UNL     1      59.500  31.866  73.678  1.00  0.00    -0.644 OA
ENDBRANCH  20  24
BRANCH  16  27
HETATM   27  C18 UNL     1      62.615  33.001  74.104  1.00  0.00     0.230 C
HETATM   28  O9  UNL     1      61.994  32.966  75.176  1.00  0.00    -0.643 OA
HETATM   29  O10 UNL     1      63.373  34.182  73.955  1.00  0.00    -0.643 OA
ENDBRANCH  16  27
ENDBRANCH  10  11
ENDBRANCH   9  10
ENDBRANCH   8   9
ENDBRANCH   4   8
BRANCH   1  30
HETATM   30  C6  UNL     1      64.118  32.342  66.388  1.00  0.00     0.235 C
HETATM   31  O2  UNL     1      63.965  32.140  65.146  1.00  0.00    -0.283 OA
BRANCH  30  32
HETATM   32  C5  UNL     1      62.961  32.667  67.172  1.00  0.00     0.109 A
HETATM   33  C2  UNL     1      62.139  31.795  67.837  1.00  0.00     0.042 A
HETATM   34  C1  UNL     1      62.359  30.329  67.790  1.00  0.00     0.070 C
HETATM   35  N1  UNL     1      61.085  32.228  68.557  1.00  0.00    -0.195 N
HETATM   36  C3  UNL     1      60.770  33.520  68.671  1.00  0.00     0.679 A
ATOM     37  H1  UNL     1      60.504  31.539  69.034  1.00  0.00     0.184 HD
HETATM   38  N3  UNL     1      61.555  34.404  68.031  1.00  0.00    -0.155 N
HETATM   39  C4  UNL     1      62.626  34.025  67.294  1.00  0.00     0.276 A
ATOM     40  H3  UNL     1      61.334  35.398  68.103  1.00  0.00     0.187 HD
HETATM   41  O1  UNL     1      63.277  34.944  66.744  1.00  0.00    -0.267 OA
BRANCH  36  42
HETATM   42  N2  UNL     1      59.743  33.884  69.373  1.00  0.00    -0.234 N
ATOM     43  H22 UNL     1      59.526  34.863  69.555  1.00  0.00     0.174 HD
ATOM     44  H21 UNL     1      59.114  33.183  69.765  1.00  0.00     0.174 HD
ENDBRANCH  36  42
ENDBRANCH  30  32
ENDBRANCH   1  30
BRANCH   7  45
HETATM   45  C20 UNL     1      66.638  34.014  65.713  1.00  0.00     0.168 C
HETATM   46  C21 UNL     1      66.556  35.393  66.339  1.00  0.00     0.112 C
HETATM   47  S1  UNL     1      66.409  36.427  64.826  1.00  0.00    -0.149 SA
HETATM   48  C22 UNL     1      67.536  35.596  63.632  1.00  0.00     0.134 C
HETATM   49  S2  UNL     1      68.114  34.199  64.697  1.00  0.00    -0.125 SA
BRANCH  48  50
HETATM   50  C23 UNL     1      68.656  36.499  63.240  1.00  0.00     0.190 C
BRANCH  50  51
HETATM   51  O12 UNL     1      68.298  37.788  63.683  1.00  0.00    -0.399 OA
ATOM     52  H12 UNL     1      68.924  38.388  63.293  1.00  0.00     0.209 HD
ENDBRANCH  50  51
ENDBRANCH  48  50
ENDBRANCH   7  45
TORSDOF 13
ENDMDL