MODEL 5
REMARK VINA RESULT: -5.221148608      4.316      7.798
REMARK  21 active torsions:
REMARK  status: ('A' for Active; 'I' for Inactive)
REMARK    1  A    between atoms: C2_2  and  O1_3
REMARK    2  A    between atoms: O1_3  and  C3_4
REMARK    3  A    between atoms: C3_4  and  C4_6
REMARK    4  A    between atoms: C4_6  and  C5_7
REMARK    5  A    between atoms: C6_8  and  O3_9
REMARK    6  A    between atoms: C9_13  and  C10_14
REMARK    7  A    between atoms: C10_14  and  O4_15
REMARK    8  A    between atoms: C10_14  and  O5_17
REMARK    9  A    between atoms: C12_19  and  O6_20
REMARK   10  A    between atoms: C13_22  and  O7_23
REMARK   11  A    between atoms: C14_25  and  C15_26
REMARK       I    between atoms: C15_26  and  N1_28
REMARK   12  A    between atoms: N1_28  and  C16_30
REMARK   13  A    between atoms: C16_30  and  C17_31
REMARK   14  A    between atoms: C16_30  and  C18_36
REMARK   15  A    between atoms: C17_31  and  N2_32
REMARK   16  A    between atoms: C22_43  and  O12_44
REMARK   17  A    between atoms: C22_43  and  C23_46
REMARK   18  A    between atoms: C23_46  and  O14_48
REMARK   19  A    between atoms: O14_48  and  C24_49
REMARK   20  A    between atoms: C24_49  and  C25_50
REMARK   21  A    between atoms: C25_50  and  O16_52
ROOT
HETATM    1  C5  UNL     1      69.439  36.157  64.657  1.00  0.00     0.019 A
HETATM    2  C6  UNL     1      68.889  36.768  65.789  1.00  0.00     0.089 A
HETATM    3  C7  UNL     1      69.561  36.625  66.992  1.00  0.00     0.054 A
HETATM    4  C8  UNL     1      70.731  35.922  67.159  1.00  0.00     0.012 A
HETATM    5  C9  UNL     1      71.279  35.324  66.026  1.00  0.00     0.066 A
HETATM    6  C12 UNL     1      70.585  35.472  64.795  1.00  0.00     0.090 A
HETATM    7  C13 UNL     1      71.337  35.702  68.519  1.00  0.00     0.107 C
HETATM    8  C14 UNL     1      71.205  34.288  68.882  1.00  0.00     0.128 C
HETATM    9  C19 UNL     1      70.951  33.926  70.346  1.00  0.00     0.071 C
HETATM   10  C20 UNL     1      71.938  32.874  70.846  1.00  0.00     0.019 C
HETATM   11  C21 UNL     1      70.984  35.048  71.269  1.00  0.00     0.176 C
HETATM   12  O11 UNL     1      71.510  34.929  72.388  1.00  0.00    -0.294 OA
HETATM   13  C22 UNL     1      70.379  36.294  70.815  1.00  0.00     0.213 C
HETATM   14  C27 UNL     1      71.003  36.728  69.540  1.00  0.00     0.085 C
HETATM   15  C28 UNL     1      70.110  37.882  69.056  1.00  0.00     0.096 C
HETATM   16  C29 UNL     1      69.041  37.336  68.183  1.00  0.00     0.163 C
HETATM   17  O17 UNL     1      67.831  37.424  68.364  1.00  0.00    -0.292 OA
ENDROOT
BRANCH   8  18
HETATM   18  C15 UNL     1      70.228  33.445  68.138  1.00  0.00     0.226 C
HETATM   19  O8  UNL     1      69.009  33.587  68.055  1.00  0.00    -0.273 OA
HETATM   20  N1  UNL     1      70.700  32.287  67.396  1.00  0.00    -0.344 N
ATOM     21  H1  UNL     1      71.700  32.087  67.400  1.00  0.00     0.163 HD
BRANCH  20  22
HETATM   22  C16 UNL     1      69.842  31.415  66.661  1.00  0.00     0.211 C
BRANCH  22  23
HETATM   23  C17 UNL     1      69.128  32.268  65.598  1.00  0.00     0.265 C
BRANCH  23  24
HETATM   24  N2  UNL     1      69.767  32.134  64.318  1.00  0.00    -0.077 N
ATOM     25  H23 UNL     1      70.443  31.370  64.313  1.00  0.00     0.274 HD
ATOM     26  H22 UNL     1      69.124  31.775  63.611  1.00  0.00     0.274 HD
ATOM     27  H21 UNL     1      70.191  33.015  64.027  1.00  0.00     0.274 HD
ENDBRANCH  23  24
ENDBRANCH  22  23
BRANCH  22  28
HETATM   28  C18 UNL     1      70.519  30.287  66.014  1.00  0.00     0.198 C
HETATM   29  O9  UNL     1      69.853  29.241  65.716  1.00  0.00    -0.646 OA
HETATM   30  O10 UNL     1      71.859  30.317  65.712  1.00  0.00    -0.646 OA
ENDBRANCH  22  28
ENDBRANCH  20  22
ENDBRANCH   8  18
BRANCH   7  31
HETATM   31  O7  UNL     1      72.710  36.021  68.261  1.00  0.00    -0.383 OA
ATOM     32  H7  UNL     1      72.673  36.970  68.227  1.00  0.00     0.211 HD
ENDBRANCH   7  31
BRANCH   5  33
HETATM   33  C10 UNL     1      72.511  34.617  65.931  1.00  0.00     0.191 C
BRANCH  33  34
HETATM   34  O4  UNL     1      72.424  33.391  65.496  1.00  0.00    -0.340 OA
ATOM     35  H4  UNL     1      73.137  33.103  64.937  1.00  0.00     0.220 HD
ENDBRANCH  33  34
BRANCH  33  36
HETATM   36  O5  UNL     1      73.791  34.900  66.183  1.00  0.00    -0.335 OA
HETATM   37  C11 UNL     1      74.647  35.621  65.326  1.00  0.00     0.212 C
ENDBRANCH  33  36
ENDBRANCH   5  33
BRANCH  13  38
HETATM   38  O12 UNL     1      68.988  36.312  70.777  1.00  0.00    -0.372 OA
ATOM     39  H12 UNL     1      68.577  37.115  71.074  1.00  0.00     0.211 HD
ENDBRANCH  13  38
BRANCH  13  40
HETATM   40  C23 UNL     1      70.748  37.327  71.860  1.00  0.00     0.302 C
HETATM   41  O13 UNL     1      71.941  37.652  72.018  1.00  0.00    -0.261 OA
BRANCH  40  42
HETATM   42  O14 UNL     1      69.733  37.864  72.589  1.00  0.00    -0.309 OA
BRANCH  42  43
HETATM   43  C24 UNL     1      69.892  39.021  73.350  1.00  0.00     0.289 C
BRANCH  43  44
HETATM   44  C25 UNL     1      69.521  40.176  72.483  1.00  0.00     0.282 C
HETATM   45  O15 UNL     1      68.612  40.047  71.596  1.00  0.00    -0.263 OA
BRANCH  44  46
HETATM   46  O16 UNL     1      70.111  41.428  72.569  1.00  0.00    -0.325 OA
HETATM   47  C26 UNL     1      71.490  41.541  72.932  1.00  0.00     0.213 C
ENDBRANCH  44  46
ENDBRANCH  43  44
ENDBRANCH  42  43
ENDBRANCH  40  42
ENDBRANCH  13  40
BRANCH   2  48
HETATM   48  O3  UNL     1      67.733  37.467  65.665  1.00  0.00    -0.359 OA
ATOM     49  H3  UNL     1      66.918  37.066  65.942  1.00  0.00     0.217 HD
ENDBRANCH   2  48
BRANCH   6  50
HETATM   50  O6  UNL     1      71.104  34.879  63.628  1.00  0.00    -0.359 OA
ATOM     51  H6  UNL     1      71.896  34.365  63.731  1.00  0.00     0.217 HD
ENDBRANCH   6  50
BRANCH   1  52
HETATM   52  C4  UNL     1      68.673  36.315  63.409  1.00  0.00     0.155 C
BRANCH  52  53
HETATM   53  C3  UNL     1      67.729  35.198  63.146  1.00  0.00     0.263 C
HETATM   54  O2  UNL     1      66.559  35.272  63.569  1.00  0.00    -0.265 OA
BRANCH  53  55
HETATM   55  O1  UNL     1      68.127  34.083  62.447  1.00  0.00    -0.322 OA
BRANCH  55  56
HETATM   56  C2  UNL     1      68.670  34.105  61.160  1.00  0.00     0.174 C
HETATM   57  C1  UNL     1      67.862  34.895  60.168  1.00  0.00     0.034 C
ENDBRANCH  55  56
ENDBRANCH  53  55
ENDBRANCH  52  53
ENDBRANCH   1  52
TORSDOF 21
ENDMDL