MODEL 4
REMARK VINA RESULT: -6.587240174      6.484     11.435
REMARK  15 active torsions:
REMARK  status: ('A' for Active; 'I' for Inactive)
REMARK    1  A    between atoms: N1_2  and  C2_4
REMARK    2  A    between atoms: N3_9  and  C4_10
REMARK    3  A    between atoms: C4_10  and  C9_22
REMARK    4  A    between atoms: N4_11  and  O2_13
REMARK    5  A    between atoms: O2_13  and  C5_14
REMARK    6  A    between atoms: C5_14  and  C8_17
REMARK    7  A    between atoms: C8_17  and  O3_18
REMARK    8  A    between atoms: C8_17  and  O4_20
REMARK       I    between atoms: C9_22  and  N5_24
REMARK    9  A    between atoms: C12_30  and  C13_31
REMARK   10  A    between atoms: C14_34  and  C15_35
REMARK   11  A    between atoms: C15_35  and  O9_36
REMARK   12  A    between atoms: O9_36  and  C16_37
REMARK   13  A    between atoms: C19_41  and  O11_42
REMARK   14  A    between atoms: C21_44  and  O12_45
REMARK   15  A    between atoms: N7_47  and  O13_48
ROOT
HETATM    1  C9  UNL     1      65.430  34.686  65.834  1.00  0.00     0.293 C
HETATM    2  O5  UNL     1      64.766  35.741  65.690  1.00  0.00    -0.264 OA
HETATM    3  N5  UNL     1      64.773  33.417  65.947  1.00  0.00    -0.317 N
ATOM      4  H5  UNL     1      65.216  32.601  65.526  1.00  0.00     0.169 HD
HETATM    5  C10 UNL     1      63.668  33.263  66.546  1.00  0.00     0.115 C
HETATM    6  C11 UNL     1      62.728  34.120  67.259  1.00  0.00     0.275 C
HETATM    7  O6  UNL     1      62.442  35.342  67.338  1.00  0.00    -0.266 OA
HETATM    8  N6  UNL     1      62.229  32.904  67.874  1.00  0.00    -0.286 N
HETATM    9  C12 UNL     1      61.500  32.359  69.000  1.00  0.00     0.125 C
HETATM   10  C14 UNL     1      62.047  31.425  69.760  1.00  0.00     0.007 C
HETATM   11  C23 UNL     1      63.518  31.042  69.374  1.00  0.00     0.119 C
HETATM   12  S1  UNL     1      63.582  30.674  67.602  1.00  0.00    -0.132 SA
HETATM   13  C24 UNL     1      62.789  32.066  66.801  1.00  0.00     0.211 C
ENDROOT
BRANCH   1  14
HETATM   14  C4  UNL     1      66.881  34.766  65.885  1.00  0.00     0.221 C
HETATM   15  N4  UNL     1      67.571  34.252  64.925  1.00  0.00    -0.243 N
ATOM     16  H4  UNL     1      68.588  34.311  64.971  1.00  0.00     0.196 HD
BRANCH  14  17
HETATM   17  N3  UNL     1      67.551  35.389  66.959  1.00  0.00    -0.167 N
HETATM   18  C3  UNL     1      68.284  34.821  67.929  1.00  0.00     0.362 A
HETATM   19  N2  UNL     1      68.744  35.773  68.751  1.00  0.00    -0.138 N
HETATM   20  O1  UNL     1      68.487  33.582  68.019  1.00  0.00    -0.244 OA
HETATM   21  C2  UNL     1      68.302  36.951  68.304  1.00  0.00     0.697 A
ATOM     22  H2  UNL     1      69.327  35.624  69.574  1.00  0.00     0.189 HD
HETATM   23  N8  UNL     1      67.573  36.693  67.205  1.00  0.00    -0.119 N
ATOM     24  H8  UNL     1      67.104  37.400  66.639  1.00  0.00     0.206 HD
BRANCH  21  25
HETATM   25  N1  UNL     1      68.534  38.242  68.852  1.00  0.00    -0.229 N
HETATM   26  C1  UNL     1      69.294  38.358  70.072  1.00  0.00     0.165 C
ATOM     27  H1  UNL     1      68.168  39.074  68.389  1.00  0.00     0.177 HD
ENDBRANCH  21  25
ENDBRANCH  14  17
BRANCH  15  28
HETATM   28  O2  UNL     1      67.000  33.628  63.846  1.00  0.00    -0.263 OA
BRANCH  28  29
HETATM   29  C5  UNL     1      67.346  32.353  63.373  1.00  0.00     0.131 C
HETATM   30  C6  UNL     1      68.794  32.019  63.677  1.00  0.00     0.053 C
HETATM   31  C7  UNL     1      67.152  32.310  61.885  1.00  0.00     0.053 C
BRANCH  29  32
HETATM   32  C8  UNL     1      66.505  31.263  64.048  1.00  0.00     0.290 C
BRANCH  32  33
HETATM   33  O3  UNL     1      65.164  31.371  63.721  1.00  0.00    -0.368 OA
ATOM     34  H3  UNL     1      64.608  30.951  64.367  1.00  0.00     0.212 HD
ENDBRANCH  32  33
BRANCH  32  35
HETATM   35  O4  UNL     1      66.741  31.222  65.408  1.00  0.00    -0.368 OA
ATOM     36  H4  UNL     1      66.051  31.663  65.889  1.00  0.00     0.212 HD
ENDBRANCH  32  35
ENDBRANCH  29  32
ENDBRANCH  28  29
ENDBRANCH  15  28
ENDBRANCH   1  14
BRANCH   9  37
HETATM   37  C13 UNL     1      60.107  32.757  69.096  1.00  0.00     0.227 C
HETATM   38  O7  UNL     1      59.143  32.026  69.182  1.00  0.00    -0.643 OA
HETATM   39  O8  UNL     1      59.808  34.138  69.101  1.00  0.00    -0.643 OA
ENDBRANCH   9  37
BRANCH  10  40
HETATM   40  C15 UNL     1      61.597  30.739  70.900  1.00  0.00     0.149 C
BRANCH  40  41
HETATM   41  O9  UNL     1      61.821  30.715  72.199  1.00  0.00    -0.316 OA
BRANCH  41  42
HETATM   42  C16 UNL     1      61.635  31.951  72.857  1.00  0.00     0.375 C
HETATM   43  O10 UNL     1      60.522  32.024  73.580  1.00  0.00    -0.339 OA
HETATM   44  C17 UNL     1      60.473  31.463  74.821  1.00  0.00     0.154 C
HETATM   45  C18 UNL     1      60.373  29.968  74.858  1.00  0.00     0.042 C
HETATM   46  C19 UNL     1      61.626  31.977  75.668  1.00  0.00     0.195 C
HETATM   47  C21 UNL     1      62.882  31.596  74.908  1.00  0.00     0.256 C
HETATM   48  N7  UNL     1      62.857  32.247  73.636  1.00  0.00    -0.114 NA
BRANCH  46  49
HETATM   49  O11 UNL     1      61.598  31.464  76.941  1.00  0.00    -0.384 OA
HETATM   50  C20 UNL     1      60.749  32.241  77.736  1.00  0.00     0.202 C
ENDBRANCH  46  49
BRANCH  47  51
HETATM   51  O12 UNL     1      63.951  32.121  75.624  1.00  0.00    -0.371 OA
HETATM   52  C22 UNL     1      64.996  31.209  75.575  1.00  0.00     0.204 C
ENDBRANCH  47  51
BRANCH  48  53
HETATM   53  O13 UNL     1      63.065  33.562  73.689  1.00  0.00    -0.306 OA
ATOM     54  H13 UNL     1      63.238  33.832  74.583  1.00  0.00     0.237 HD
ENDBRANCH  48  53
ENDBRANCH  41  42
ENDBRANCH  40  41
ENDBRANCH  10  40
TORSDOF 15
ENDMDL