MODEL 4
REMARK VINA RESULT: -5.874932290      1.675      3.850
REMARK  18 active torsions:
REMARK  status: ('A' for Active; 'I' for Inactive)
REMARK    1  A    between atoms: N1_1  and  N2_4
REMARK    2  A    between atoms: N2_4  and  C1_6
REMARK    3  A    between atoms: N5_13  and  C4_14
REMARK    4  A    between atoms: C4_14  and  C5_15
REMARK    5  A    between atoms: C4_14  and  C6_18
REMARK    6  A    between atoms: C5_15  and  O1_16
REMARK    7  A    between atoms: C6_18  and  S1_19
REMARK    8  A    between atoms: S1_19  and  S2_20
REMARK    9  A    between atoms: S2_20  and  C7_21
REMARK   10  A    between atoms: C9_23  and  S3_24
REMARK   11  A    between atoms: C11_29  and  S4_30
REMARK   12  A    between atoms: C12_34  and  S5_35
REMARK   13  A    between atoms: S5_35  and  N6_36
REMARK   14  A    between atoms: N7_42  and  C14_43
REMARK   15  A    between atoms: C14_43  and  O10_44
REMARK   16  A    between atoms: O10_44  and  C15_45
REMARK   17  A    between atoms: C15_45  and  C16_47
REMARK   18  A    between atoms: C16_47  and  O12_48
ROOT
HETATM    1  C4  UNL     1      63.991  32.677  66.024  1.00  0.00     0.126 C
ENDROOT
BRANCH   1   2
HETATM    2  N5  UNL     1      63.088  33.512  66.776  1.00  0.00    -0.318 N
HETATM    3  C3  UNL     1      62.975  34.859  66.687  1.00  0.00     0.186 A
HETATM    4  N4  UNL     1      62.058  35.327  67.520  1.00  0.00    -0.335 N
HETATM    5  C2  UNL     1      61.554  34.273  68.173  1.00  0.00     0.168 A
ATOM      6  H4  UNL     1      61.788  36.303  67.641  1.00  0.00     0.168 HD
HETATM    7  N3  UNL     1      60.654  33.938  69.111  1.00  0.00    -0.171 N
HETATM    8  C13 UNL     1      62.203  33.130  67.704  1.00  0.00     0.179 A
HETATM    9  C1  UNL     1      60.702  32.606  69.263  1.00  0.00     0.707 A
ATOM     10  H3  UNL     1      60.043  34.580  69.617  1.00  0.00     0.186 HD
HETATM   11  N7  UNL     1      61.633  32.104  68.418  1.00  0.00    -0.117 N
BRANCH   9  12
HETATM   12  N2  UNL     1      60.005  31.894  70.110  1.00  0.00    -0.138 N
ATOM     13  H2  UNL     1      60.405  31.070  70.557  1.00  0.00     0.205 HD
BRANCH  12  14
HETATM   14  N1  UNL     1      58.698  32.297  70.382  1.00  0.00    -0.331 N
ATOM     15  H12 UNL     1      58.413  32.498  71.340  1.00  0.00     0.177 HD
ATOM     16  H11 UNL     1      58.052  32.380  69.597  1.00  0.00     0.177 HD
ENDBRANCH  12  14
ENDBRANCH   9  12
BRANCH  11  17
HETATM   17  C14 UNL     1      62.006  30.730  68.187  1.00  0.00     0.264 C
BRANCH  17  18
HETATM   18  O10 UNL     1      61.207  29.741  68.675  1.00  0.00    -0.271 OA
BRANCH  18  19
HETATM   19  C15 UNL     1      60.434  28.789  68.152  1.00  0.00     0.288 C
HETATM   20  O11 UNL     1      60.952  27.865  67.494  1.00  0.00    -0.262 OA
BRANCH  19  21
HETATM   21  C16 UNL     1      58.943  28.724  68.288  1.00  0.00     0.275 C
BRANCH  21  22
HETATM   22  O12 UNL     1      58.383  29.881  68.770  1.00  0.00    -0.391 OA
ATOM     23  H12 UNL     1      57.719  30.250  68.199  1.00  0.00     0.210 HD
ENDBRANCH  21  22
ENDBRANCH  19  21
ENDBRANCH  18  19
ENDBRANCH  17  18
ENDBRANCH  11  17
ENDBRANCH   1   2
BRANCH   1  24
HETATM   24  C5  UNL     1      63.332  31.499  65.395  1.00  0.00     0.190 C
BRANCH  24  25
HETATM   25  O1  UNL     1      63.317  31.602  63.991  1.00  0.00    -0.399 OA
ATOM     26  H1  UNL     1      62.463  31.387  63.634  1.00  0.00     0.209 HD
ENDBRANCH  24  25
ENDBRANCH   1  24
BRANCH   1  27
HETATM   27  C6  UNL     1      65.205  32.354  66.819  1.00  0.00     0.114 C
BRANCH  27  28
HETATM   28  S1  UNL     1      66.333  31.183  66.142  1.00  0.00    -0.090 SA
BRANCH  28  29
HETATM   29  S2  UNL     1      68.281  31.796  65.708  1.00  0.00    -0.056 SA
BRANCH  29  30
HETATM   30  C7  UNL     1      68.278  33.334  64.751  1.00  0.00     0.038 A
HETATM   31  C8  UNL     1      68.059  33.199  63.364  1.00  0.00     0.047 A
HETATM   32  C9  UNL     1      68.043  34.305  62.555  1.00  0.00     0.083 A
HETATM   33  C10 UNL     1      68.246  35.513  63.160  1.00  0.00     0.054 A
HETATM   34  C11 UNL     1      68.467  35.674  64.535  1.00  0.00     0.106 A
HETATM   35  C12 UNL     1      68.484  34.536  65.351  1.00  0.00     0.121 A
BRANCH  32  36
HETATM   36  S3  UNL     1      67.776  34.175  60.819  1.00  0.00     0.137 S
HETATM   37  O2  UNL     1      68.116  35.464  60.166  1.00  0.00    -0.591 OA
HETATM   38  O3  UNL     1      66.348  33.786  60.539  1.00  0.00    -0.591 OA
HETATM   39  O4  UNL     1      68.808  32.977  60.209  1.00  0.00    -0.591 OA
ENDBRANCH  32  36
BRANCH  34  40
HETATM   40  S4  UNL     1      68.678  37.254  65.215  1.00  0.00     0.139 S
HETATM   41  O5  UNL     1      67.959  38.223  64.245  1.00  0.00    -0.591 OA
HETATM   42  O6  UNL     1      67.926  37.451  66.510  1.00  0.00    -0.591 OA
HETATM   43  O7  UNL     1      70.244  37.790  65.258  1.00  0.00    -0.591 OA
ENDBRANCH  34  40
BRANCH  35  44
HETATM   44  S5  UNL     1      68.868  34.717  67.032  1.00  0.00     0.259 S
HETATM   45  O8  UNL     1      69.347  33.384  67.530  1.00  0.00    -0.201 OA
HETATM   46  O9  UNL     1      67.748  35.113  67.908  1.00  0.00    -0.201 OA
BRANCH  44  47
HETATM   47  N6  UNL     1      70.257  35.767  67.191  1.00  0.00    -0.324 N
ATOM     48  H62 UNL     1      71.022  35.822  66.518  1.00  0.00     0.169 HD
ATOM     49  H61 UNL     1      70.171  36.304  68.053  1.00  0.00     0.169 HD
ENDBRANCH  44  47
ENDBRANCH  35  44
ENDBRANCH  29  30
ENDBRANCH  28  29
ENDBRANCH  27  28
ENDBRANCH   1  27
TORSDOF 18
ENDMDL