MODEL 5
REMARK VINA RESULT: -6.463674594      4.479      9.136
REMARK  13 active torsions:
REMARK  status: ('A' for Active; 'I' for Inactive)
REMARK    1  A    between atoms: C2_2  and  S1_3
REMARK    2  A    between atoms: S1_3  and  C3_4
REMARK    3  A    between atoms: C4_9  and  S2_10
REMARK    4  A    between atoms: S2_10  and  C5_11
REMARK    5  A    between atoms: C5_11  and  C6_12
REMARK    6  A    between atoms: C6_12  and  N3_13
REMARK       I    between atoms: N3_13  and  C7_15
REMARK    7  A    between atoms: C7_15  and  C8_17
REMARK    8  A    between atoms: C10_22  and  O3_23
REMARK    9  A    between atoms: C11_28  and  C12_29
REMARK   10  A    between atoms: C14_35  and  C15_36
REMARK   11  A    between atoms: C16_39  and  N8_40
REMARK   12  A    between atoms: N8_40  and  C18_42
REMARK   13  A    between atoms: C22_48  and  N11_49
ROOT
HETATM    1  C8  UNL     1      70.071  36.362  69.603  1.00  0.00     0.269 C
HETATM    2  O2  UNL     1      69.214  37.398  70.035  1.00  0.00    -0.328 OA
HETATM    3  C9  UNL     1      69.898  38.234  70.918  1.00  0.00     0.338 C
HETATM    4  N4  UNL     1      68.998  39.015  71.682  1.00  0.00    -0.332 N
ATOM      5  H4  UNL     1      67.992  38.849  71.684  1.00  0.00     0.161 HD
HETATM    6  C10 UNL     1      69.610  40.057  72.453  1.00  0.00     0.426 C
HETATM    7  N5  UNL     1      71.035  40.101  72.434  1.00  0.00    -0.011 N
ATOM      8  H51 UNL     1      71.373  41.031  72.681  1.00  0.00     0.284 HD
ATOM      9  H52 UNL     1      71.387  40.044  71.478  1.00  0.00     0.284 HD
HETATM   10  C11 UNL     1      71.660  39.074  73.286  1.00  0.00     0.355 C
HETATM   11  C13 UNL     1      72.014  37.953  72.328  1.00  0.00     0.141 C
HETATM   12  N6  UNL     1      73.018  37.058  72.757  1.00  0.00    -0.084 NA
HETATM   13  N7  UNL     1      70.842  37.469  71.723  1.00  0.00    -0.284 N
HETATM   14  C14 UNL     1      70.546  36.061  71.880  1.00  0.00     0.142 C
HETATM   15  C16 UNL     1      70.127  35.423  70.771  1.00  0.00     0.085 C
ENDROOT
BRANCH   1  16
HETATM   16  C7  UNL     1      69.591  35.832  68.354  1.00  0.00     0.253 C
HETATM   17  N3  UNL     1      68.242  35.709  67.943  1.00  0.00    -0.358 N
ATOM     18  H3  UNL     1      67.518  36.019  68.592  1.00  0.00     0.162 HD
HETATM   19  O1  UNL     1      70.431  35.404  67.469  1.00  0.00    -0.270 OA
BRANCH  17  20
HETATM   20  C6  UNL     1      67.818  35.174  66.671  1.00  0.00     0.133 C
BRANCH  20  21
HETATM   21  C5  UNL     1      66.926  36.075  65.880  1.00  0.00     0.101 C
BRANCH  21  22
HETATM   22  S2  UNL     1      67.815  36.790  64.451  1.00  0.00    -0.102 SA
BRANCH  22  23
HETATM   23  C4  UNL     1      69.464  37.313  64.981  1.00  0.00     0.129 A
HETATM   24  N2  UNL     1      69.796  38.205  65.908  1.00  0.00    -0.287 N
HETATM   25  N1  UNL     1      71.012  38.447  66.143  1.00  0.00    -0.287 N
ATOM     26  H2  UNL     1      69.068  38.693  66.429  1.00  0.00     0.188 HD
HETATM   27  C3  UNL     1      71.957  37.810  65.463  1.00  0.00     0.129 A
ATOM     28  H1  UNL     1      71.267  39.132  66.854  1.00  0.00     0.188 HD
HETATM   29  S3  UNL     1      71.006  36.813  64.435  1.00  0.00    -0.038 SA
BRANCH  27  30
HETATM   30  S1  UNL     1      73.745  37.955  65.583  1.00  0.00    -0.104 SA
BRANCH  30  31
HETATM   31  C2  UNL     1      74.417  36.684  64.447  1.00  0.00     0.077 C
HETATM   32  C1  UNL     1      74.557  37.201  63.046  1.00  0.00     0.016 C
ENDBRANCH  30  31
ENDBRANCH  27  30
ENDBRANCH  22  23
ENDBRANCH  21  22
ENDBRANCH  20  21
ENDBRANCH  17  20
ENDBRANCH   1  16
BRANCH  15  33
HETATM   33  N8  UNL     1      69.781  34.081  70.769  1.00  0.00    -0.346 N
HETATM   34  C17 UNL     1      68.522  33.610  71.315  1.00  0.00     0.156 C
BRANCH  33  35
HETATM   35  C18 UNL     1      70.675  33.046  70.304  1.00  0.00     0.097 A
HETATM   36  C19 UNL     1      71.819  32.570  70.954  1.00  0.00     0.143 A
HETATM   37  N9  UNL     1      72.418  31.619  70.219  1.00  0.00    -0.302 N
HETATM   38  C20 UNL     1      73.641  30.897  70.585  1.00  0.00     0.177 C
HETATM   39  N10 UNL     1      71.710  31.459  69.118  1.00  0.00    -0.278 N
HETATM   40  C21 UNL     1      72.029  30.511  68.052  1.00  0.00     0.179 C
HETATM   41  C22 UNL     1      70.645  32.308  69.138  1.00  0.00     0.144 A
BRANCH  41  42
HETATM   42  N11 UNL     1      69.784  32.371  68.209  1.00  0.00    -0.382 N
ATOM     43 2H11 UNL     1      69.801  33.079  67.474  1.00  0.00     0.157 HD
ATOM     44 1H11 UNL     1      68.987  31.752  68.060  1.00  0.00     0.157 HD
ENDBRANCH  41  42
ENDBRANCH  33  35
ENDBRANCH  15  33
BRANCH  14  45
HETATM   45  C15 UNL     1      70.672  35.463  73.152  1.00  0.00     0.229 C
HETATM   46  O6  UNL     1      69.880  35.818  74.072  1.00  0.00    -0.643 OA
HETATM   47  O7  UNL     1      71.578  34.502  73.575  1.00  0.00    -0.643 OA
ENDBRANCH  14  45
BRANCH   6  48
HETATM   48  O3  UNL     1      69.191  40.062  73.781  1.00  0.00    -0.355 OA
ATOM     49  H3  UNL     1      69.585  40.762  74.289  1.00  0.00     0.213 HD
ENDBRANCH   6  48
BRANCH  10  50
HETATM   50  C12 UNL     1      72.833  39.652  73.963  1.00  0.00     0.212 C
HETATM   51  O4  UNL     1      73.599  40.434  73.357  1.00  0.00    -0.646 OA
HETATM   52  O5  UNL     1      73.094  39.332  75.284  1.00  0.00    -0.646 OA
ENDBRANCH  10  50
TORSDOF 13
ENDMDL