MODEL 2
REMARK VINA RESULT: -6.159289889      3.301      6.053
REMARK  17 active torsions:
REMARK  status: ('A' for Active; 'I' for Inactive)
REMARK    1  A    between atoms: O1_2  and  C2_3
REMARK    2  A    between atoms: C2_3  and  C3_5
REMARK    3  A    between atoms: C4_6  and  C5_7
REMARK    4  A    between atoms: C6_12  and  N2_13
REMARK    5  A    between atoms: N2_13  and  N3_14
REMARK       I    between atoms: N2_13  and  C11_26
REMARK    6  A    between atoms: N3_14  and  C7_16
REMARK    7  A    between atoms: C7_16  and  C8_17
REMARK    8  A    between atoms: C7_16  and  C10_21
REMARK    9  A    between atoms: C8_17  and  O6_19
REMARK   10  A    between atoms: C10_21  and  O7_22
REMARK   11  A    between atoms: C10_21  and  O8_24
REMARK   12  A    between atoms: C11_26  and  C12_28
REMARK   13  A    between atoms: C12_28  and  N4_30
REMARK   14  A    between atoms: C14_31  and  S1_32
REMARK   15  A    between atoms: C15_39  and  C16_40
REMARK   16  A    between atoms: C18_42  and  O13_43
REMARK   17  A    between atoms: C20_47  and  N8_48
ROOT
HETATM    1  N2  UNL     1      67.649  32.136  62.730  1.00  0.00    -0.053 N
HETATM    2  C11 UNL     1      67.902  32.468  64.043  1.00  0.00     0.281 C
HETATM    3  O9  UNL     1      67.153  31.874  64.909  1.00  0.00    -0.268 OA
ENDROOT
BRANCH   1   4
HETATM    4  C6  UNL     1      68.433  32.594  61.612  1.00  0.00     0.709 A
HETATM    5  N1  UNL     1      68.097  33.773  61.003  1.00  0.00    -0.180 N
HETATM    6  C4  UNL     1      68.990  34.015  59.979  1.00  0.00     0.159 A
ATOM      7  H1  UNL     1      67.315  34.375  61.263  1.00  0.00     0.184 HD
HETATM    8  C3  UNL     1      69.861  32.961  59.988  1.00  0.00     0.160 A
HETATM    9  N10 UNL     1      69.494  32.107  61.001  1.00  0.00    -0.177 N
HETATM   10  C21 UNL     1      70.191  30.892  61.313  1.00  0.00     0.176 C
BRANCH   6  11
HETATM   11  C5  UNL     1      68.932  35.184  59.136  1.00  0.00     0.230 C
HETATM   12  O3  UNL     1      68.217  36.179  59.512  1.00  0.00    -0.643 OA
HETATM   13  O4  UNL     1      69.576  35.334  57.957  1.00  0.00    -0.643 OA
ENDBRANCH   6  11
BRANCH   8  14
HETATM   14  C2  UNL     1      70.993  32.694  59.116  1.00  0.00     0.312 C
HETATM   15  O2  UNL     1      72.133  33.161  59.433  1.00  0.00    -0.258 OA
BRANCH  14  16
HETATM   16  O1  UNL     1      70.988  31.974  57.951  1.00  0.00    -0.321 OA
HETATM   17  C1  UNL     1      69.831  31.549  57.271  1.00  0.00     0.213 C
ENDBRANCH  14  16
ENDBRANCH   8  14
ENDBRANCH   1   4
BRANCH   1  18
HETATM   18  N3  UNL     1      66.637  31.293  62.266  1.00  0.00    -0.293 N
ATOM     19  H3  UNL     1      65.796  31.698  61.856  1.00  0.00     0.182 HD
BRANCH  18  20
HETATM   20  C7  UNL     1      66.756  29.921  62.353  1.00  0.00     0.254 C
BRANCH  20  21
HETATM   21  C8  UNL     1      66.910  29.270  60.999  1.00  0.00     0.287 C
HETATM   22  O5  UNL     1      67.411  28.137  60.894  1.00  0.00    -0.263 OA
BRANCH  21  23
HETATM   23  O6  UNL     1      66.473  29.980  59.871  1.00  0.00    -0.325 OA
HETATM   24  C9  UNL     1      66.944  29.627  58.608  1.00  0.00     0.213 C
ENDBRANCH  21  23
ENDBRANCH  20  21
BRANCH  20  25
HETATM   25  C10 UNL     1      65.593  29.280  63.085  1.00  0.00     0.287 C
BRANCH  25  26
HETATM   26  O7  UNL     1      64.874  30.182  63.828  1.00  0.00    -0.369 OA
ATOM     27  H7  UNL     1      64.770  29.912  64.732  1.00  0.00     0.212 HD
ENDBRANCH  25  26
BRANCH  25  28
HETATM   28  O8  UNL     1      64.741  28.671  62.154  1.00  0.00    -0.369 OA
ATOM     29  H8  UNL     1      64.596  27.767  62.407  1.00  0.00     0.212 HD
ENDBRANCH  25  28
ENDBRANCH  20  25
ENDBRANCH  18  20
ENDBRANCH   1  18
BRANCH   2  30
HETATM   30  C12 UNL     1      68.871  33.374  64.604  1.00  0.00     0.179 C
HETATM   31  C13 UNL     1      70.123  32.649  65.079  1.00  0.00     0.043 C
BRANCH  30  32
HETATM   32  N4  UNL     1      68.402  34.131  65.744  1.00  0.00    -0.316 N
HETATM   33  C14 UNL     1      67.331  35.027  65.833  1.00  0.00     0.237 C
HETATM   34  N5  UNL     1      66.891  34.959  67.082  1.00  0.00    -0.275 N
HETATM   35  N6  UNL     1      67.656  34.042  67.804  1.00  0.00    -0.107 NA
ATOM     36  H5  UNL     1      66.111  35.497  67.459  1.00  0.00     0.184 HD
HETATM   37  C15 UNL     1      68.961  34.114  67.102  1.00  0.00     0.252 C
BRANCH  33  38
HETATM   38  S1  UNL     1      66.703  36.034  64.601  1.00  0.00     0.173 S
HETATM   39  O10 UNL     1      67.614  37.260  64.512  1.00  0.00    -0.589 OA
HETATM   40  O11 UNL     1      66.715  35.442  63.226  1.00  0.00    -0.589 OA
HETATM   41  O12 UNL     1      65.171  36.647  64.881  1.00  0.00    -0.589 OA
ENDBRANCH  33  38
BRANCH  37  42
HETATM   42  C16 UNL     1      69.473  35.478  67.464  1.00  0.00     0.071 A
HETATM   43  C17 UNL     1      69.478  35.961  68.763  1.00  0.00     0.085 A
HETATM   44  C18 UNL     1      69.950  37.216  69.057  1.00  0.00     0.158 A
HETATM   45  N7  UNL     1      70.416  38.003  68.088  1.00  0.00    -0.171 N
HETATM   46  C20 UNL     1      70.420  37.554  66.815  1.00  0.00     0.678 A
ATOM     47  H7  UNL     1      70.766  38.935  68.306  1.00  0.00     0.186 HD
HETATM   48  N9  UNL     1      69.958  36.317  66.515  1.00  0.00    -0.192 N
ATOM     49  H9  UNL     1      69.975  36.006  65.544  1.00  0.00     0.184 HD
BRANCH  44  50
HETATM   50  O13 UNL     1      69.931  37.649  70.388  1.00  0.00    -0.340 OA
HETATM   51  C19 UNL     1      69.327  38.859  70.751  1.00  0.00     0.211 C
ENDBRANCH  44  50
BRANCH  46  52
HETATM   52  N8  UNL     1      70.869  38.330  65.898  1.00  0.00    -0.234 N
ATOM     53  H82 UNL     1      70.911  39.339  66.039  1.00  0.00     0.174 HD
ATOM     54  H81 UNL     1      71.187  37.912  65.024  1.00  0.00     0.174 HD
ENDBRANCH  46  52
ENDBRANCH  37  42
ENDBRANCH  30  32
ENDBRANCH   2  30
TORSDOF 17
ENDMDL