MODEL 1
REMARK VINA RESULT: -7.908829345      0.000      0.000
REMARK  14 active torsions:
REMARK  status: ('A' for Active; 'I' for Inactive)
REMARK       I    between atoms: C2_2  and  N1_4
REMARK    1  A    between atoms: C4_9  and  C5_10
REMARK    2  A    between atoms: C5_10  and  O2_11
REMARK    3  A    between atoms: O2_11  and  N3_12
REMARK    4  A    between atoms: C6_16  and  O6_17
REMARK    5  A    between atoms: O6_17  and  C7_18
REMARK    6  A    between atoms: C7_18  and  C9_20
REMARK    7  A    between atoms: C9_20  and  N4_21
REMARK    8  A    between atoms: C9_20  and  C12_26
REMARK       I    between atoms: N4_21  and  C10_23
REMARK    9  A    between atoms: C12_26  and  C13_28
REMARK   10  A    between atoms: N8_35  and  C14_36
REMARK   11  A    between atoms: C14_36  and  C15_37
REMARK   12  A    between atoms: C18_45  and  C19_46
REMARK   13  A    between atoms: C21_50  and  N12_51
REMARK   14  A    between atoms: C24_61  and  O10_62
ROOT
HETATM    1  C13 UNL     1      70.435  37.445  66.365  1.00  0.00     0.188 A
HETATM    2  N5  UNL     1      69.202  37.820  65.825  1.00  0.00    -0.265 N
ATOM      3  H5  UNL     1      69.075  38.289  64.928  1.00  0.00     0.190 HD
HETATM    4  N6  UNL     1      68.244  37.484  66.632  1.00  0.00    -0.226 N
ATOM      5  H6  UNL     1      67.247  37.641  66.484  1.00  0.00     0.210 HD
HETATM    6  N7  UNL     1      68.787  36.910  67.666  1.00  0.00    -0.224 N
ATOM      7  H7  UNL     1      68.274  36.542  68.466  1.00  0.00     0.210 HD
HETATM    8  N8  UNL     1      70.131  36.873  67.522  1.00  0.00    -0.253 N
ENDROOT
BRANCH   1   9
HETATM    9  C12 UNL     1      71.650  37.714  65.658  1.00  0.00     0.221 C
HETATM   10  O8  UNL     1      72.431  38.599  66.201  1.00  0.00    -0.287 OA
BRANCH   9  11
HETATM   11  C9  UNL     1      72.208  37.171  64.412  1.00  0.00     0.191 C
BRANCH  11  12
HETATM   12  C7  UNL     1      71.610  35.815  64.110  1.00  0.00     0.151 C
HETATM   13  C8  UNL     1      71.991  34.892  65.278  1.00  0.00     0.042 C
BRANCH  12  14
HETATM   14  O6  UNL     1      70.248  35.870  63.968  1.00  0.00    -0.350 OA
BRANCH  14  15
HETATM   15  C6  UNL     1      69.637  34.645  64.114  1.00  0.00     0.304 C
HETATM   16  O5  UNL     1      68.546  34.935  65.045  1.00  0.00    -0.303 OA
HETATM   17  C4  UNL     1      67.653  33.938  65.380  1.00  0.00     0.149 C
HETATM   18  N2  UNL     1      67.479  32.959  64.619  1.00  0.00    -0.326 N
HETATM   19  C3  UNL     1      68.185  32.813  63.373  1.00  0.00     0.119 C
ATOM     20  H2  UNL     1      66.811  32.238  64.891  1.00  0.00     0.169 HD
HETATM   21  N1  UNL     1      68.144  31.710  62.754  1.00  0.00    -0.315 N
HETATM   22  C24 UNL     1      68.952  34.040  62.940  1.00  0.00     0.241 C
HETATM   23  C2  UNL     1      68.752  31.397  61.555  1.00  0.00     0.219 C
ATOM     24  H1  UNL     1      67.599  30.967  63.192  1.00  0.00     0.170 HD
HETATM   25  C1  UNL     1      69.981  30.535  61.434  1.00  0.00     0.117 C
HETATM   26  O1  UNL     1      68.332  31.807  60.412  1.00  0.00    -0.274 OA
BRANCH  17  27
HETATM   27  C5  UNL     1      66.921  34.098  66.684  1.00  0.00     0.292 C
BRANCH  27  28
HETATM   28  O2  UNL     1      66.355  35.366  66.809  1.00  0.00    -0.213 OA
BRANCH  28  29
HETATM   29  N3  UNL     1      65.318  35.684  65.972  1.00  0.00     0.005 N
HETATM   30  O3  UNL     1      64.198  35.186  66.140  1.00  0.00    -0.511 OA
HETATM   31  O4  UNL     1      65.566  36.566  64.949  1.00  0.00    -0.511 OA
ENDBRANCH  28  29
ENDBRANCH  27  28
ENDBRANCH  17  27
BRANCH  22  32
HETATM   32  O10 UNL     1      69.788  33.681  61.919  1.00  0.00    -0.383 OA
ATOM     33  H10 UNL     1      69.511  32.834  61.592  1.00  0.00     0.210 HD
ENDBRANCH  22  32
ENDBRANCH  14  15
ENDBRANCH  12  14
ENDBRANCH  11  12
BRANCH  11  34
HETATM   34  N4  UNL     1      73.670  36.968  64.609  1.00  0.00    -0.347 N
HETATM   35  C10 UNL     1      74.618  37.231  63.616  1.00  0.00     0.214 C
HETATM   36  C11 UNL     1      76.059  37.010  63.894  1.00  0.00     0.117 C
HETATM   37  O7  UNL     1      74.277  37.654  62.491  1.00  0.00    -0.274 OA
ATOM     38  H4  UNL     1      73.994  36.621  65.511  1.00  0.00     0.163 HD
ENDBRANCH  11  34
ENDBRANCH   9  11
ENDBRANCH   1   9
BRANCH   8  39
HETATM   39  C14 UNL     1      70.934  36.210  68.508  1.00  0.00     0.187 C
BRANCH  39  40
HETATM   40  C15 UNL     1      70.291  36.267  69.891  1.00  0.00    -0.049 C
HETATM   41  C16 UNL     1      69.864  35.106  70.309  1.00  0.00     0.080 C
HETATM   42  C17 UNL     1      69.204  34.851  71.606  1.00  0.00     0.260 C
HETATM   43  O9  UNL     1      68.439  33.873  71.698  1.00  0.00    -0.267 OA
HETATM   44  N9  UNL     1      69.382  35.660  72.788  1.00  0.00    -0.266 N
HETATM   45  N10 UNL     1      69.836  36.963  72.762  1.00  0.00    -0.301 N
ATOM     46  H9  UNL     1      69.160  35.245  73.692  1.00  0.00     0.190 HD
HETATM   47  C18 UNL     1      70.204  37.798  71.887  1.00  0.00     0.045 C
ATOM     48  H10 UNL     1      69.888  37.359  73.701  1.00  0.00     0.186 HD
HETATM   49  C23 UNL     1      70.292  37.627  70.428  1.00  0.00     0.095 C
BRANCH  47  50
HETATM   50  C19 UNL     1      70.612  39.118  72.414  1.00  0.00     0.048 A
HETATM   51  C20 UNL     1      71.959  39.286  72.758  1.00  0.00     0.123 A
HETATM   52  N11 UNL     1      72.455  40.446  73.219  1.00  0.00    -0.201 N
HETATM   53  C21 UNL     1      71.634  41.496  73.359  1.00  0.00     0.677 A
ATOM     54  H11 UNL     1      73.443  40.527  73.459  1.00  0.00     0.183 HD
HETATM   55  N13 UNL     1      70.363  41.348  73.037  1.00  0.00    -0.176 N
HETATM   56  C22 UNL     1      69.784  40.195  72.561  1.00  0.00     0.128 A
ATOM     57  H13 UNL     1      69.756  42.160  73.151  1.00  0.00     0.186 HD
HETATM   58  N14 UNL     1      68.573  40.178  72.301  1.00  0.00    -0.384 N
ATOM     59 2H14 UNL     1      68.144  39.322  71.948  1.00  0.00     0.157 HD
ATOM     60 1H14 UNL     1      67.955  40.981  72.411  1.00  0.00     0.157 HD
BRANCH  53  61
HETATM   61  N12 UNL     1      72.110  42.629  73.806  1.00  0.00    -0.234 N
ATOM     62 2H12 UNL     1      72.723  42.676  74.619  1.00  0.00     0.174 HD
ATOM     63 1H12 UNL     1      71.864  43.498  73.331  1.00  0.00     0.174 HD
ENDBRANCH  53  61
ENDBRANCH  47  50
ENDBRANCH  39  40
ENDBRANCH   8  39
TORSDOF 14
ENDMDL