MODEL 5
REMARK VINA RESULT: -6.517824395      3.317      9.496
REMARK  20 active torsions:
REMARK  status: ('A' for Active; 'I' for Inactive)
REMARK    1  A    between atoms: O1_2  and  C2_3
REMARK    2  A    between atoms: C2_3  and  C3_5
REMARK    3  A    between atoms: C3_5  and  N1_6
REMARK    4  A    between atoms: N1_6  and  C4_8
REMARK    5  A    between atoms: C4_8  and  C5_9
REMARK    6  A    between atoms: C4_8  and  C28_56
REMARK    7  A    between atoms: C5_9  and  O3_10
REMARK    8  A    between atoms: C5_9  and  N2_12
REMARK    9  A    between atoms: N3_15  and  C8_16
REMARK   10  A    between atoms: C8_16  and  C9_17
REMARK   11  A    between atoms: C9_17  and  N4_18
REMARK   12  A    between atoms: N4_18  and  C10_19
REMARK   13  A    between atoms: C13_26  and  N7_27
REMARK   14  A    between atoms: N7_27  and  C14_29
REMARK   15  A    between atoms: C15_30  and  O4_31
REMARK   16  A    between atoms: C16_34  and  O5_35
REMARK   17  A    between atoms: C18_38  and  N9_39
REMARK   18  A    between atoms: C19_44  and  C20_45
REMARK   19  A    between atoms: C28_56  and  O6_57
REMARK   20  A    between atoms: C28_56  and  O7_59
ROOT
HETATM    1  C10 UNL     1      62.825  29.443  64.490  1.00  0.00     0.207 A
HETATM    2  N5  UNL     1      62.691  29.240  63.135  1.00  0.00    -0.325 N
ATOM      3  H5  UNL     1      62.862  30.021  62.503  1.00  0.00     0.169 HD
HETATM    4  C11 UNL     1      62.349  28.073  62.624  1.00  0.00     0.182 A
HETATM    5  N6  UNL     1      62.117  27.027  63.422  1.00  0.00    -0.360 N
ATOM      6  H6  UNL     1      61.849  26.128  63.021  1.00  0.00     0.166 HD
HETATM    7  C12 UNL     1      62.238  27.161  64.756  1.00  0.00     0.123 A
HETATM    8  C13 UNL     1      62.595  28.348  65.355  1.00  0.00     0.103 A
ENDROOT
BRANCH   8   9
HETATM    9  N7  UNL     1      62.846  28.459  66.745  1.00  0.00    -0.374 N
ATOM     10  H7  UNL     1      63.788  28.733  67.026  1.00  0.00     0.160 HD
BRANCH   9  11
HETATM   11  C14 UNL     1      61.928  28.229  67.759  1.00  0.00     0.176 C
HETATM   12  C15 UNL     1      62.121  28.196  69.215  1.00  0.00     0.385 C
HETATM   13  N8  UNL     1      60.709  28.564  69.288  1.00  0.00     0.158 N
HETATM   14  C16 UNL     1      60.196  29.268  70.381  1.00  0.00     0.398 C
HETATM   15  C25 UNL     1      60.978  29.378  68.106  1.00  0.00     0.284 C
HETATM   16  C17 UNL     1      59.837  30.648  69.904  1.00  0.00     0.340 A
HETATM   17  C18 UNL     1      60.356  31.873  70.400  1.00  0.00     0.402 A
HETATM   18  N13 UNL     1      61.259  31.171  69.681  1.00  0.00     0.132 N
HETATM   19  C24 UNL     1      61.560  30.706  68.425  1.00  0.00     0.314 C
BRANCH  12  20
HETATM   20  O4  UNL     1      62.996  28.975  69.880  1.00  0.00    -0.366 OA
ATOM     21  H4  UNL     1      63.501  28.688  70.631  1.00  0.00     0.212 HD
ENDBRANCH  12  20
BRANCH  14  22
HETATM   22  O5  UNL     1      61.075  29.341  71.472  1.00  0.00    -0.366 OA
ATOM     23  H5  UNL     1      61.344  30.226  71.690  1.00  0.00     0.212 HD
ENDBRANCH  14  22
BRANCH  17  24
HETATM   24  N9  UNL     1      60.498  31.892  71.868  1.00  0.00    -0.181 N
HETATM   25  N10 UNL     1      59.640  31.707  72.838  1.00  0.00    -0.222 N
HETATM   26  N11 UNL     1      60.301  31.870  74.003  1.00  0.00    -0.271 N
ATOM     27  H10 UNL     1      58.651  31.479  72.733  1.00  0.00     0.210 HD
HETATM   28  C19 UNL     1      61.570  32.163  73.761  1.00  0.00     0.120 A
ATOM     29  H11 UNL     1      59.885  31.781  74.930  1.00  0.00     0.190 HD
HETATM   30  N12 UNL     1      61.660  32.167  72.402  1.00  0.00    -0.267 N
ATOM     31  H12 UNL     1      62.513  32.357  71.877  1.00  0.00     0.190 HD
BRANCH  28  32
HETATM   32  C20 UNL     1      62.738  32.450  74.640  1.00  0.00     0.010 C
HETATM   33  C21 UNL     1      62.337  32.665  76.061  1.00  0.00     0.023 C
HETATM   34  C22 UNL     1      63.461  33.674  74.125  1.00  0.00     0.023 C
HETATM   35  C23 UNL     1      63.734  31.303  74.543  1.00  0.00     0.023 C
ENDBRANCH  28  32
ENDBRANCH  17  24
ENDBRANCH   9  11
ENDBRANCH   8   9
BRANCH   1  36
HETATM   36  N4  UNL     1      63.040  30.576  64.896  1.00  0.00    -0.396 NA
BRANCH  36  37
HETATM   37  C9  UNL     1      63.675  31.676  65.313  1.00  0.00     0.202 C
BRANCH  37  38
HETATM   38  C8  UNL     1      64.803  31.502  66.330  1.00  0.00     0.121 C
BRANCH  38  39
HETATM   39  N3  UNL     1      65.576  32.600  66.647  1.00  0.00    -0.365 N
HETATM   40  C7  UNL     1      65.104  33.862  66.238  1.00  0.00     0.147 C
HETATM   41  C6  UNL     1      66.225  34.677  65.540  1.00  0.00     0.145 C
HETATM   42  N2  UNL     1      67.250  34.762  66.570  1.00  0.00    -0.357 N
HETATM   43  C27 UNL     1      67.849  33.532  66.994  1.00  0.00     0.169 C
HETATM   44  C26 UNL     1      66.806  32.479  67.305  1.00  0.00     0.083 C
BRANCH  42  45
HETATM   45  C5  UNL     1      67.612  36.003  67.082  1.00  0.00     0.142 C
BRANCH  45  46
HETATM   46  C4  UNL     1      68.951  36.485  67.456  1.00  0.00     0.211 C
BRANCH  46  47
HETATM   47  N1  UNL     1      69.339  37.597  66.644  1.00  0.00    -0.378 N
ATOM     48  H1  UNL     1      69.452  38.531  67.039  1.00  0.00     0.160 HD
BRANCH  47  49
HETATM   49  C3  UNL     1      69.556  37.351  65.287  1.00  0.00     0.167 C
BRANCH  49  50
HETATM   50  C2  UNL     1      68.598  37.549  64.227  1.00  0.00     0.297 C
HETATM   51  O2  UNL     1      67.828  38.497  64.113  1.00  0.00    -0.259 OA
BRANCH  50  52
HETATM   52  O1  UNL     1      68.515  36.558  63.197  1.00  0.00    -0.322 OA
HETATM   53  C1  UNL     1      69.142  35.321  63.341  1.00  0.00     0.213 C
ENDBRANCH  50  52
ENDBRANCH  49  50
ENDBRANCH  47  49
ENDBRANCH  46  47
BRANCH  46  54
HETATM   54  C28 UNL     1      68.909  36.893  68.923  1.00  0.00     0.284 C
BRANCH  54  55
HETATM   55  O6  UNL     1      68.601  38.221  69.122  1.00  0.00    -0.369 OA
ATOM     56  H6  UNL     1      67.853  38.359  69.691  1.00  0.00     0.212 HD
ENDBRANCH  54  55
BRANCH  54  57
HETATM   57  O7  UNL     1      68.001  36.105  69.647  1.00  0.00    -0.369 OA
ATOM     58  H7  UNL     1      67.105  36.378  69.490  1.00  0.00     0.212 HD
ENDBRANCH  54  57
ENDBRANCH  46  54
ENDBRANCH  45  46
BRANCH  45  59
HETATM   59  O3  UNL     1      66.692  36.913  67.288  1.00  0.00    -0.348 OA
ATOM     60  H3  UNL     1      66.307  36.837  68.154  1.00  0.00     0.219 HD
ENDBRANCH  45  59
ENDBRANCH  42  45
ENDBRANCH  38  39
ENDBRANCH  37  38
ENDBRANCH  36  37
ENDBRANCH   1  36
TORSDOF 20
ENDMDL