MODEL 2
REMARK VINA RESULT: -5.815649272      2.655      3.638
REMARK  5 active torsions:
REMARK  status: ('A' for Active; 'I' for Inactive)
REMARK    1  A    between atoms: C2_2  and  C3_3
REMARK    2  A    between atoms: C3_3  and  N1_4
REMARK    3  A    between atoms: N1_4  and  C4_6
REMARK    4  A    between atoms: C4_6  and  N2_8
REMARK    5  A    between atoms: N2_8  and  C5_10
ROOT
HETATM    1  C5  UNL     1      23.017  17.289  31.830  1.00  0.00     0.191 C
HETATM    2  C6  UNL     1      23.896  18.003  30.786  1.00  0.00     0.052 C
HETATM    3  C7  UNL     1      24.625  16.888  30.028  1.00  0.00    -0.009 C
HETATM    4  C8  UNL     1      25.914  16.499  30.649  1.00  0.00     0.011 C
HETATM    5  C9  UNL     1      26.140  15.131  31.106  1.00  0.00     0.006 C
HETATM    6  C10 UNL     1      26.785  15.074  32.504  1.00  0.00     0.129 C
HETATM    7  N3  UNL     1      25.923  15.770  33.458  1.00  0.00    -0.343 N
ATOM      8  H3  UNL     1      26.367  16.026  34.341  1.00  0.00     0.164 HD
HETATM    9  C11 UNL     1      24.530  16.150  33.333  1.00  0.00     0.320 C
HETATM   10  O1  UNL     1      24.022  16.517  34.399  1.00  0.00    -0.247 OA
HETATM   11  N4  UNL     1      23.754  16.130  32.156  1.00  0.00    -0.308 N
HETATM   12  C12 UNL     1      23.642  15.026  31.169  1.00  0.00     0.091 C
HETATM   13  C13 UNL     1      24.943  14.226  31.192  1.00  0.00     0.031 C
HETATM   14  C14 UNL     1      23.692  15.711  29.808  1.00  0.00     0.030 C
ENDROOT
BRANCH   1  15
HETATM   15  N2  UNL     1      22.497  18.162  32.793  1.00  0.00    -0.346 N
ATOM     16  H2  UNL     1      23.103  18.857  33.232  1.00  0.00     0.164 HD
BRANCH  15  17
HETATM   17  C4  UNL     1      21.133  18.083  33.160  1.00  0.00     0.169 C
HETATM   18  S1  UNL     1      20.243  16.781  32.785  1.00  0.00    -0.041 SA
BRANCH  17  19
HETATM   19  N1  UNL     1      20.508  19.129  33.880  1.00  0.00    -0.364 N
ATOM     20  H1  UNL     1      21.035  19.958  34.156  1.00  0.00     0.162 HD
BRANCH  19  21
HETATM   21  C3  UNL     1      19.105  18.998  34.219  1.00  0.00     0.148 C
BRANCH  21  22
HETATM   22  C2  UNL     1      18.258  19.989  33.546  1.00  0.00    -0.018 C
HETATM   23  C1  UNL     1      18.513  21.284  33.627  1.00  0.00     0.008 C
ENDBRANCH  21  22
ENDBRANCH  19  21
ENDBRANCH  17  19
ENDBRANCH  15  17
ENDBRANCH   1  15
TORSDOF 5
ENDMDL