MODEL 3
REMARK VINA RESULT: -6.328104366      0.444      1.146
REMARK  3 active torsions:
REMARK  status: ('A' for Active; 'I' for Inactive)
REMARK    1  A    between atoms: C2_2  and  C4_4
REMARK       I    between atoms: N1_6  and  C6_7
REMARK    2  A    between atoms: C8_13  and  C9_14
REMARK    3  A    between atoms: C9_14  and  N4_15
ROOT
HETATM    1  C4  UNL     1      21.176  17.515  33.289  1.00  0.00     0.098 C
HETATM    2  C5  UNL     1      21.166  15.981  33.338  1.00  0.00     0.150 C
HETATM    3  N1  UNL     1      22.563  15.602  33.419  1.00  0.00    -0.352 N
HETATM    4  C6  UNL     1      23.051  14.406  32.822  1.00  0.00     0.184 C
HETATM    5  N2  UNL     1      23.474  13.402  33.515  1.00  0.00    -0.374 N
ATOM      6  H21 UNL     1      23.823  12.545  33.087  1.00  0.00     0.158 HD
ATOM      7  H22 UNL     1      23.452  13.484  34.532  1.00  0.00     0.158 HD
HETATM    8  N3  UNL     1      23.080  14.293  31.416  1.00  0.00    -0.064 NA
HETATM    9  C7  UNL     1      23.495  16.437  34.113  1.00  0.00     0.152 C
HETATM   10  C8  UNL     1      22.913  17.501  34.961  1.00  0.00     0.121 C
HETATM   11  N5  UNL     1      21.608  17.953  34.574  1.00  0.00    -0.408 N
ATOM     12  H5  UNL     1      21.032  18.544  35.173  1.00  0.00     0.154 HD
ENDROOT
BRANCH  10  13
HETATM   13  C9  UNL     1      23.799  18.698  35.105  1.00  0.00     0.263 C
BRANCH  13  14
HETATM   14  N4  UNL     1      24.677  18.718  36.208  1.00  0.00    -0.065 N
HETATM   15  C10 UNL     1      25.135  20.019  36.622  1.00  0.00     0.238 C
HETATM   16  C11 UNL     1      26.419  19.750  37.425  1.00  0.00     0.034 C
HETATM   17  C12 UNL     1      26.619  18.278  37.217  1.00  0.00     0.015 C
HETATM   18  C13 UNL     1      25.611  17.548  38.065  1.00  0.00     0.034 C
HETATM   19  C15 UNL     1      25.968  18.100  35.835  1.00  0.00     0.242 C
HETATM   20  C14 UNL     1      24.304  17.883  37.327  1.00  0.00     0.238 C
ENDBRANCH  13  14
ENDBRANCH  10  13
BRANCH   1  21
HETATM   21  C2  UNL     1      19.735  17.938  33.102  1.00  0.00     0.001 C
HETATM   22  C1  UNL     1      18.752  16.907  33.561  1.00  0.00     0.011 C
HETATM   23  C3  UNL     1      19.506  19.215  33.872  1.00  0.00     0.011 C
ENDBRANCH   1  21
TORSDOF 3
ENDMDL