MODEL 5
REMARK VINA RESULT: -6.177812792      1.977      2.394
REMARK  5 active torsions:
REMARK  status: ('A' for Active; 'I' for Inactive)
REMARK       I    between atoms: N1_2  and  C2_4
REMARK       I    between atoms: C2_4  and  N5_18
REMARK    1  A    between atoms: N2_5  and  C3_7
REMARK    2  A    between atoms: C3_7  and  N3_9
REMARK    3  A    between atoms: N3_9  and  C4_11
REMARK    4  A    between atoms: C4_11  and  C5_12
REMARK    5  A    between atoms: N5_18  and  C10_20
ROOT
HETATM    1  C1  UNL     1      23.473  16.142  34.150  1.00  0.00     0.165 C
HETATM    2  N1  UNL     1      23.202  17.417  33.509  1.00  0.00    -0.231 N
ATOM      3  H1  UNL     1      23.504  17.584  32.549  1.00  0.00     0.177 HD
HETATM    4  C2  UNL     1      22.512  18.434  34.230  1.00  0.00     0.676 C
HETATM    5  N2  UNL     1      23.176  19.419  34.684  1.00  0.00    -0.167 N
ATOM      6  H2  UNL     1      22.696  20.155  35.202  1.00  0.00     0.186 HD
HETATM    7  N5  UNL     1      21.128  18.332  34.421  1.00  0.00    -0.222 N
ATOM      8  H5  UNL     1      20.762  17.985  35.307  1.00  0.00     0.178 HD
ENDROOT
BRANCH   5   9
HETATM    9  C3  UNL     1      24.618  19.505  34.470  1.00  0.00     0.186 C
HETATM   10  S1  UNL     1      25.488  19.117  35.783  1.00  0.00    -0.040 SA
BRANCH   9  11
HETATM   11  N3  UNL     1      25.133  19.808  33.209  1.00  0.00    -0.365 N
ATOM     12  H3  UNL     1      24.667  20.596  32.759  1.00  0.00     0.161 HD
BRANCH  11  13
HETATM   13  C4  UNL     1      26.168  19.248  32.427  1.00  0.00     0.157 C
BRANCH  13  14
HETATM   14  C5  UNL     1      25.856  18.410  31.273  1.00  0.00     0.240 C
HETATM   15  C6  UNL     1      24.555  18.515  30.581  1.00  0.00     0.039 C
HETATM   16  C7  UNL     1      24.768  19.735  29.672  1.00  0.00     0.032 C
HETATM   17  C8  UNL     1      26.288  19.922  29.652  1.00  0.00     0.272 C
HETATM   18  N4  UNL     1      26.766  18.659  30.139  1.00  0.00     0.090 N
HETATM   19  C9  UNL     1      28.141  18.629  30.514  1.00  0.00     0.310 C
ENDBRANCH  13  14
ENDBRANCH  11  13
ENDBRANCH   9  11
ENDBRANCH   5   9
BRANCH   7  20
HETATM   20  C10 UNL     1      20.213  18.721  33.359  1.00  0.00     0.099 C
HETATM   21  C11 UNL     1      19.436  17.518  32.873  1.00  0.00     0.026 C
HETATM   22  C12 UNL     1      18.066  18.031  32.490  1.00  0.00     0.002 C
HETATM   23  C13 UNL     1      17.815  19.130  33.503  1.00  0.00     0.002 C
HETATM   24  C14 UNL     1      19.160  19.655  33.902  1.00  0.00     0.026 C
ENDBRANCH   7  20
TORSDOF 5
ENDMDL