MODEL 2
REMARK VINA RESULT: -6.268379571      2.979      4.985
REMARK  4 active torsions:
REMARK  status: ('A' for Active; 'I' for Inactive)
REMARK    1  A    between atoms: C2_2  and  N1_3
REMARK       I    between atoms: N1_3  and  C3_5
REMARK       I    between atoms: C3_5  and  N5_21
REMARK       I    between atoms: N2_6  and  C4_8
REMARK       I    between atoms: C4_8  and  N4_18
REMARK    2  A    between atoms: N3_9  and  C5_11
REMARK    3  A    between atoms: C5_11  and  C6_12
REMARK    4  A    between atoms: C8_14  and  O1_16
ROOT
HETATM    1  N1  UNL     1      24.333  11.924  32.846  1.00  0.00    -0.226 N
ATOM      2  H1  UNL     1      25.091  11.451  32.355  1.00  0.00     0.177 HD
HETATM    3  C3  UNL     1      24.042  13.295  32.538  1.00  0.00     0.690 C
HETATM    4  N2  UNL     1      22.830  13.661  32.652  1.00  0.00    -0.023 N
ATOM      5  H2  UNL     1      22.150  12.964  32.952  1.00  0.00     0.203 HD
HETATM    6  C4  UNL     1      22.356  14.986  32.388  1.00  0.00     0.692 C
HETATM    7  N3  UNL     1      21.887  15.617  33.386  1.00  0.00    -0.193 N
ATOM      8  H3  UNL     1      21.888  15.131  34.284  1.00  0.00     0.184 HD
HETATM    9  N4  UNL     1      22.456  15.435  31.060  1.00  0.00    -0.230 N
ATOM     10  H4  UNL     1      22.116  14.810  30.329  1.00  0.00     0.177 HD
HETATM   11  C10 UNL     1      22.999  16.700  30.645  1.00  0.00     0.165 C
HETATM   12  N5  UNL     1      25.129  14.099  32.139  1.00  0.00    -0.217 N
HETATM   13  C11 UNL     1      25.688  13.894  30.845  1.00  0.00     0.141 C
HETATM   14  C12 UNL     1      26.555  15.003  30.350  1.00  0.00     0.020 C
HETATM   15  C13 UNL     1      27.354  15.729  31.353  1.00  0.00     0.003 C
HETATM   16  C14 UNL     1      27.008  15.547  32.778  1.00  0.00     0.020 C
HETATM   17  C15 UNL     1      25.618  15.076  33.053  1.00  0.00     0.141 C
ENDROOT
BRANCH   1  18
HETATM   18  C2  UNL     1      23.567  11.197  33.846  1.00  0.00     0.133 C
HETATM   19  C1  UNL     1      24.456  10.324  34.684  1.00  0.00     0.027 C
ENDBRANCH   1  18
BRANCH   7  20
HETATM   20  C5  UNL     1      21.358  16.945  33.367  1.00  0.00     0.054 C
HETATM   21  C8  UNL     1      22.039  17.910  33.922  1.00  0.00     0.062 C
HETATM   22  C9  UNL     1      23.369  17.605  34.571  1.00  0.00     0.078 C
BRANCH  20  23
HETATM   23  C6  UNL     1      20.070  17.129  32.708  1.00  0.00     0.056 C
HETATM   24  C7  UNL     1      18.852  17.075  33.564  1.00  0.00     0.011 C
ENDBRANCH  20  23
BRANCH  21  25
HETATM   25  O1  UNL     1      21.673  19.241  33.991  1.00  0.00    -0.363 OA
ATOM     26  H1  UNL     1      21.965  19.876  34.635  1.00  0.00     0.217 HD
ENDBRANCH  21  25
ENDBRANCH   7  20
TORSDOF 4
ENDMDL