MODEL 2
REMARK VINA RESULT: -6.390250847      2.385      3.369
REMARK  3 active torsions:
REMARK  status: ('A' for Active; 'I' for Inactive)
REMARK    1  A    between atoms: C4_5  and  N2_6
REMARK       I    between atoms: N2_6  and  C5_8
REMARK       I    between atoms: C5_8  and  N4_12
REMARK    2  A    between atoms: N4_12  and  C6_14
REMARK    3  A    between atoms: C6_14  and  C7_15
ROOT
HETATM    1  C1  UNL     1      27.912  14.863  28.716  1.00  0.00     0.228 C
HETATM    2  N1  UNL     1      27.435  15.740  29.495  1.00  0.00    -0.438 NA
HETATM    3  C2  UNL     1      26.902  16.600  30.234  1.00  0.00     0.067 C
HETATM    4  C3  UNL     1      26.004  15.989  31.200  1.00  0.00     0.100 C
HETATM    5  C4  UNL     1      24.890  17.011  31.473  1.00  0.00     0.054 C
HETATM    6  C10 UNL     1      24.364  17.488  30.168  1.00  0.00     0.036 C
HETATM    7  C11 UNL     1      25.001  18.712  29.609  1.00  0.00    -0.011 C
HETATM    8  C12 UNL     1      25.224  19.798  30.639  1.00  0.00     0.009 C
HETATM    9  C13 UNL     1      26.148  19.184  31.690  1.00  0.00    -0.011 C
HETATM   10  C14 UNL     1      27.460  18.761  31.126  1.00  0.00     0.016 C
HETATM   11  C15 UNL     1      27.367  17.938  29.866  1.00  0.00     0.046 C
HETATM   12  C16 UNL     1      26.314  18.490  28.912  1.00  0.00     0.016 C
HETATM   13  C17 UNL     1      25.380  18.103  32.386  1.00  0.00     0.036 C
ENDROOT
BRANCH   5  14
HETATM   14  N2  UNL     1      23.863  16.290  32.199  1.00  0.00    -0.217 N
HETATM   15  C5  UNL     1      22.515  16.231  31.797  1.00  0.00     0.668 C
HETATM   16  N3  UNL     1      22.163  15.264  31.022  1.00  0.00    -0.235 N
HETATM   17  N4  UNL     1      21.524  17.163  32.188  1.00  0.00    -0.226 N
ATOM     18  H32 UNL     1      22.877  14.592  30.740  1.00  0.00     0.174 HD
ATOM     19  H31 UNL     1      21.187  15.220  30.730  1.00  0.00     0.174 HD
ATOM     20  H4  UNL     1      21.808  18.128  32.358  1.00  0.00     0.177 HD
ATOM     21  H2  UNL     1      24.132  15.798  33.051  1.00  0.00     0.178 HD
BRANCH  17  22
HETATM   22  C6  UNL     1      20.132  16.818  32.359  1.00  0.00     0.142 C
BRANCH  22  23
HETATM   23  C7  UNL     1      19.493  17.506  33.550  1.00  0.00     0.004 A
HETATM   24  C8  UNL     1      18.388  18.477  33.152  1.00  0.00     0.007 A
HETATM   25  C9  UNL     1      19.658  18.983  33.718  1.00  0.00     0.007 A
ENDBRANCH  22  23
ENDBRANCH  17  22
ENDBRANCH   5  14
TORSDOF 3
ENDMDL