MODEL 3
REMARK VINA RESULT: -5.990919980      2.039      3.407
REMARK  5 active torsions:
REMARK  status: ('A' for Active; 'I' for Inactive)
REMARK       I    between atoms: N1_3  and  C3_5
REMARK       I    between atoms: C3_5  and  N4_19
REMARK    1  A    between atoms: N2_6  and  C4_8
REMARK    2  A    between atoms: C4_8  and  N3_10
REMARK    3  A    between atoms: N3_10  and  C5_12
REMARK    4  A    between atoms: C5_12  and  C6_13
REMARK    5  A    between atoms: N4_19  and  C12_21
ROOT
HETATM    1  C1  UNL     1      27.583  18.046  29.284  1.00  0.00     0.037 C
HETATM    2  C2  UNL     1      26.828  18.703  29.978  1.00  0.00     0.015 C
HETATM    3  N1  UNL     1      25.963  19.474  30.755  1.00  0.00    -0.149 N
ATOM      4  H1  UNL     1      25.799  20.453  30.522  1.00  0.00     0.195 HD
HETATM    5  C3  UNL     1      25.311  18.889  31.873  1.00  0.00     0.688 C
HETATM    6  N2  UNL     1      25.135  19.559  32.945  1.00  0.00    -0.166 N
ATOM      7  H2  UNL     1      25.482  20.518  32.945  1.00  0.00     0.186 HD
HETATM    8  N4  UNL     1      24.861  17.558  31.785  1.00  0.00    -0.221 N
ATOM      9  H4  UNL     1      25.459  16.835  32.185  1.00  0.00     0.178 HD
ENDROOT
BRANCH   6  10
HETATM   10  C4  UNL     1      24.508  19.115  34.130  1.00  0.00     0.186 C
HETATM   11  S1  UNL     1      25.529  18.480  35.264  1.00  0.00    -0.040 SA
BRANCH  10  12
HETATM   12  N3  UNL     1      23.111  19.208  34.348  1.00  0.00    -0.366 N
ATOM     13  H3  UNL     1      22.687  20.135  34.377  1.00  0.00     0.161 HD
BRANCH  12  14
HETATM   14  C5  UNL     1      22.269  18.080  34.529  1.00  0.00     0.126 C
BRANCH  14  15
HETATM   15  C6  UNL     1      21.052  18.033  33.684  1.00  0.00     0.003 C
HETATM   16  C7  UNL     1      20.523  16.637  33.455  1.00  0.00     0.006 C
HETATM   17  C8  UNL     1      19.614  16.754  32.225  1.00  0.00     0.000 C
HETATM   18  C9  UNL     1      18.403  17.541  32.660  1.00  0.00     0.000 C
HETATM   19  C10 UNL     1      18.802  18.865  33.224  1.00  0.00     0.000 C
HETATM   20  C11 UNL     1      19.882  18.805  34.270  1.00  0.00     0.006 C
ENDBRANCH  14  15
ENDBRANCH  12  14
ENDBRANCH  10  12
ENDBRANCH   6  10
BRANCH   8  21
HETATM   21  C12 UNL     1      23.622  17.128  31.175  1.00  0.00     0.099 A
HETATM   22  C13 UNL     1      23.566  16.285  29.979  1.00  0.00     0.028 A
HETATM   23  C14 UNL     1      23.310  15.624  31.319  1.00  0.00     0.028 A
ENDBRANCH   8  21
TORSDOF 5
ENDMDL