MODEL 4
REMARK VINA RESULT: -5.988244276      3.397      4.129
REMARK  3 active torsions:
REMARK  status: ('A' for Active; 'I' for Inactive)
REMARK    1  A    between atoms: C3_3  and  N1_4
REMARK       I    between atoms: N2_9  and  C8_10
REMARK       I    between atoms: C8_10  and  N3_12
REMARK       I    between atoms: N3_12  and  C9_14
REMARK       I    between atoms: C9_14  and  N5_18
REMARK    2  A    between atoms: N5_18  and  C10_20
REMARK    3  A    between atoms: C10_20  and  C11_21
ROOT
HETATM    1  C1  UNL     1      25.389  13.984  30.168  1.00  0.00     0.034 C
HETATM    2  C2  UNL     1      25.605  13.526  31.594  1.00  0.00     0.117 C
HETATM    3  C3  UNL     1      25.204  12.127  31.889  1.00  0.00     0.229 C
HETATM    4  C7  UNL     1      24.559  12.658  33.104  1.00  0.00     0.163 C
HETATM    5  N2  UNL     1      24.643  14.000  32.564  1.00  0.00    -0.325 N
HETATM    6  C8  UNL     1      24.074  15.275  32.815  1.00  0.00     0.337 C
HETATM    7  O1  UNL     1      23.225  15.383  33.763  1.00  0.00    -0.246 OA
HETATM    8  N3  UNL     1      24.394  16.442  32.076  1.00  0.00    -0.142 N
ATOM      9  H3  UNL     1      25.070  16.378  31.315  1.00  0.00     0.189 HD
HETATM   10  C9  UNL     1      23.798  17.694  32.366  1.00  0.00     0.675 C
HETATM   11  N4  UNL     1      24.105  18.734  31.681  1.00  0.00    -0.235 N
ATOM     12  H41 UNL     1      23.676  19.635  31.890  1.00  0.00     0.174 HD
ATOM     13  H42 UNL     1      24.785  18.635  30.928  1.00  0.00     0.174 HD
HETATM   14  N5  UNL     1      22.852  17.832  33.414  1.00  0.00    -0.226 N
ATOM     15  H5  UNL     1      23.137  17.757  34.391  1.00  0.00     0.177 HD
ENDROOT
BRANCH  14  16
HETATM   16  C10 UNL     1      21.477  18.079  33.062  1.00  0.00     0.142 C
BRANCH  16  17
HETATM   17  C11 UNL     1      20.489  17.615  34.077  1.00  0.00     0.004 C
HETATM   18  C12 UNL     1      19.524  18.741  34.374  1.00  0.00     0.006 C
HETATM   19  C13 UNL     1      18.758  18.838  33.071  1.00  0.00     0.000 C
HETATM   20  C14 UNL     1      18.780  17.452  32.470  1.00  0.00     0.000 C
HETATM   21  C15 UNL     1      19.581  16.591  33.424  1.00  0.00     0.006 C
ENDBRANCH  16  17
ENDBRANCH  14  16
BRANCH   3  22
HETATM   22  N1  UNL     1      26.268  11.170  32.053  1.00  0.00    -0.071 N
HETATM   23  C4  UNL     1      26.223  10.268  30.915  1.00  0.00     0.272 C
HETATM   24  C5  UNL     1      27.570  11.782  32.176  1.00  0.00     0.272 C
HETATM   25  C6  UNL     1      25.998  10.378  33.234  1.00  0.00     0.272 C
ENDBRANCH   3  22
TORSDOF 3
ENDMDL