MODEL 2
REMARK VINA RESULT: -5.786551119      1.480      1.769
REMARK  6 active torsions:
REMARK  status: ('A' for Active; 'I' for Inactive)
REMARK    1  A    between atoms: C2_2  and  C3_3
REMARK    2  A    between atoms: C7_7  and  N1_8
REMARK       I    between atoms: N1_8  and  C8_10
REMARK    3  A    between atoms: N3_12  and  C9_14
REMARK    4  A    between atoms: N4_16  and  C11_18
REMARK    5  A    between atoms: C11_18  and  N5_20
REMARK    6  A    between atoms: N5_20  and  C12_22
ROOT
HETATM    1  N1  UNL     1      24.557  11.182  33.287  1.00  0.00    -0.360 N
ATOM      2  H1  UNL     1      24.809  10.834  34.212  1.00  0.00     0.162 HD
HETATM    3  C8  UNL     1      23.663  12.269  33.200  1.00  0.00     0.189 C
HETATM    4  N2  UNL     1      22.350  12.110  33.708  1.00  0.00    -0.063 NA
HETATM    5  N3  UNL     1      24.041  13.358  32.676  1.00  0.00    -0.321 N
ATOM      6  H3  UNL     1      25.001  13.399  32.333  1.00  0.00     0.169 HD
ENDROOT
BRANCH   1   7
HETATM    7  C7  UNL     1      25.135  10.535  32.126  1.00  0.00     0.084 C
HETATM    8  C6  UNL     1      26.612  10.425  32.359  1.00  0.00     0.025 C
HETATM    9  C5  UNL     1      27.335   9.637  31.310  1.00  0.00     0.003 C
HETATM   10  C4  UNL     1      26.573   8.512  30.736  1.00  0.00     0.009 C
HETATM   11  C3  UNL     1      25.317   8.118  31.432  1.00  0.00     0.009 C
HETATM   12  C14 UNL     1      24.450   9.226  31.907  1.00  0.00     0.033 C
BRANCH  11  13
HETATM   13  C2  UNL     1      25.528   7.107  32.526  1.00  0.00    -0.032 C
HETATM   14  C1  UNL     1      25.049   7.206  33.731  1.00  0.00     0.007 C
ENDBRANCH  11  13
ENDBRANCH   1   7
BRANCH   5  15
HETATM   15  C9  UNL     1      23.256  14.520  32.524  1.00  0.00     0.081 C
HETATM   16  C10 UNL     1      23.152  15.143  31.192  1.00  0.00     0.089 C
HETATM   17  N4  UNL     1      22.653  15.018  33.515  1.00  0.00    -0.323 N
ATOM     18  H4  UNL     1      22.764  14.539  34.408  1.00  0.00     0.169 HD
BRANCH  17  19
HETATM   19  C11 UNL     1      21.844  16.163  33.511  1.00  0.00     0.172 C
HETATM   20  S1  UNL     1      22.421  17.672  33.718  1.00  0.00    -0.041 SA
BRANCH  19  21
HETATM   21  N5  UNL     1      20.441  16.015  33.318  1.00  0.00    -0.367 N
ATOM     22  H5  UNL     1      19.917  15.432  33.971  1.00  0.00     0.161 HD
BRANCH  21  23
HETATM   23  C12 UNL     1      19.732  16.652  32.242  1.00  0.00     0.117 C
HETATM   24  C13 UNL     1      18.694  17.649  32.693  1.00  0.00     0.026 C
ENDBRANCH  21  23
ENDBRANCH  19  21
ENDBRANCH  17  19
ENDBRANCH   5  15
TORSDOF 6
ENDMDL