MODEL 4
REMARK VINA RESULT: -6.601278415      0.783      1.872
REMARK  3 active torsions:
REMARK  status: ('A' for Active; 'I' for Inactive)
REMARK       I    between atoms: N1_2  and  C3_4
REMARK       I    between atoms: N3_6  and  C4_8
REMARK       I    between atoms: C4_8  and  N5_12
REMARK    1  A    between atoms: N5_12  and  C5_14
REMARK    2  A    between atoms: C5_14  and  C6_15
REMARK    3  A    between atoms: C6_15  and  C7_16
ROOT
HETATM    1  C1  UNL     1      17.978  18.073  32.275  1.00  0.00     0.151 C
HETATM    2  N1  UNL     1      19.145  17.753  33.068  1.00  0.00    -0.364 N
HETATM    3  C2  UNL     1      19.481  18.615  34.185  1.00  0.00     0.151 C
HETATM    4  C3  UNL     1      19.963  16.650  32.803  1.00  0.00     0.204 C
HETATM    5  N2  UNL     1      19.505  15.354  33.165  1.00  0.00    -0.063 NA
HETATM    6  N3  UNL     1      21.133  16.736  32.236  1.00  0.00    -0.164 N
ATOM      7  H3  UNL     1      21.483  17.656  31.967  1.00  0.00     0.187 HD
HETATM    8  C4  UNL     1      21.931  15.607  31.982  1.00  0.00     0.674 C
HETATM    9  N4  UNL     1      22.245  14.827  32.939  1.00  0.00    -0.235 N
ATOM     10  H41 UNL     1      22.824  14.007  32.755  1.00  0.00     0.174 HD
ATOM     11  H42 UNL     1      21.920  15.016  33.888  1.00  0.00     0.174 HD
HETATM   12  N5  UNL     1      22.378  15.347  30.677  1.00  0.00    -0.226 N
ATOM     13  H5  UNL     1      21.752  14.841  30.050  1.00  0.00     0.177 HD
ENDROOT
BRANCH  12  14
HETATM   14  C5  UNL     1      23.672  15.749  30.162  1.00  0.00     0.139 C
BRANCH  14  15
HETATM   15  C6  UNL     1      24.646  16.090  31.221  1.00  0.00     0.029 C
BRANCH  15  16
HETATM   16  C7  UNL     1      25.467  17.288  30.892  1.00  0.00    -0.038 C
HETATM   17  C8  UNL     1      26.715  16.928  30.123  1.00  0.00     0.014 C
HETATM   18  C9  UNL     1      27.498  18.162  29.732  1.00  0.00    -0.013 C
HETATM   19  C10 UNL     1      26.625  19.051  28.907  1.00  0.00     0.009 C
HETATM   20  C14 UNL     1      27.981  18.827  30.998  1.00  0.00     0.009 C
HETATM   21  C11 UNL     1      25.439  19.502  29.722  1.00  0.00    -0.013 C
HETATM   22  C12 UNL     1      25.959  20.182  30.961  1.00  0.00     0.009 C
HETATM   23  C16 UNL     1      24.628  18.297  30.162  1.00  0.00     0.014 C
HETATM   24  C13 UNL     1      26.749  19.192  31.787  1.00  0.00    -0.013 C
HETATM   25  C15 UNL     1      25.954  17.987  32.162  1.00  0.00     0.014 C
ENDBRANCH  15  16
ENDBRANCH  14  15
ENDBRANCH  12  14
TORSDOF 3
ENDMDL