MODEL 4
REMARK VINA RESULT: -6.408167402      2.255      3.604
REMARK  3 active torsions:
REMARK  status: ('A' for Active; 'I' for Inactive)
REMARK    1  A    between atoms: C2_2  and  N1_3
REMARK       I    between atoms: C3_5  and  N2_6
REMARK       I    between atoms: C3_5  and  N5_11
REMARK    2  A    between atoms: N5_11  and  C5_13
REMARK    3  A    between atoms: C5_13  and  C7_15
ROOT
HETATM    1  N1  UNL     1      22.803  13.979  32.272  1.00  0.00    -0.227 N
ATOM      2  H1  UNL     1      21.891  13.542  32.404  1.00  0.00     0.177 HD
HETATM    3  C3  UNL     1      22.885  15.164  31.806  1.00  0.00     0.676 C
HETATM    4  N2  UNL     1      21.730  15.903  31.460  1.00  0.00    -0.166 N
ATOM      5  H2  UNL     1      21.748  16.473  30.614  1.00  0.00     0.186 HD
HETATM    6  C4  UNL     1      20.669  15.886  32.163  1.00  0.00     0.215 C
HETATM    7  N3  UNL     1      20.667  15.080  33.349  1.00  0.00    -0.066 NA
HETATM    8  N4  UNL     1      19.524  16.642  31.785  1.00  0.00    -0.066 NA
HETATM    9  N5  UNL     1      24.148  15.766  31.623  1.00  0.00    -0.221 N
ATOM     10  H5  UNL     1      24.798  15.420  30.918  1.00  0.00     0.178 HD
ENDROOT
BRANCH   9  11
HETATM   11  C5  UNL     1      24.494  16.891  32.470  1.00  0.00     0.103 C
HETATM   12  C6  UNL     1      25.247  16.421  33.679  1.00  0.00     0.033 C
BRANCH  11  13
HETATM   13  C7  UNL     1      25.284  17.873  31.639  1.00  0.00    -0.019 C
HETATM   14  C8  UNL     1      24.414  18.470  30.542  1.00  0.00     0.016 C
HETATM   15  C9  UNL     1      25.292  19.355  29.685  1.00  0.00    -0.013 C
HETATM   16  C10 UNL     1      26.392  18.572  29.011  1.00  0.00     0.009 C
HETATM   17  C14 UNL     1      25.944  20.455  30.494  1.00  0.00     0.009 C
HETATM   18  C11 UNL     1      27.255  17.962  30.085  1.00  0.00    -0.013 C
HETATM   19  C12 UNL     1      27.865  19.002  30.980  1.00  0.00     0.009 C
HETATM   20  C16 UNL     1      26.379  17.076  30.942  1.00  0.00     0.016 C
HETATM   21  C13 UNL     1      26.769  19.819  31.590  1.00  0.00    -0.013 C
HETATM   22  C15 UNL     1      25.829  19.008  32.447  1.00  0.00     0.016 C
ENDBRANCH  11  13
ENDBRANCH   9  11
BRANCH   1  23
HETATM   23  C2  UNL     1      24.004  13.263  32.610  1.00  0.00     0.133 C
HETATM   24  C1  UNL     1      23.747  12.064  33.479  1.00  0.00     0.027 C
ENDBRANCH   1  23
TORSDOF 3
ENDMDL