MODEL 5
REMARK VINA RESULT: -6.532108415      3.154      8.759
REMARK  8 active torsions:
REMARK  status: ('A' for Active; 'I' for Inactive)
REMARK    1  A    between atoms: C1_4  and  C2_5
REMARK    2  A    between atoms: N3_10  and  C5_11
REMARK    3  A    between atoms: C5_11  and  C6_12
REMARK    4  A    between atoms: C7_13  and  C8_14
REMARK    5  A    between atoms: C9_15  and  C10_16
REMARK    6  A    between atoms: C11_17  and  C12_18
REMARK    7  A    between atoms: C12_18  and  O1_19
REMARK    8  A    between atoms: C15_23  and  N4_24
ROOT
HETATM    1  C8  UNL     1      23.653  14.190  32.820  1.00  0.00    -0.015 C
HETATM    2  C9  UNL     1      22.942  15.166  32.772  1.00  0.00    -0.085 C
ENDROOT
BRANCH   2   3
HETATM    3  C10 UNL     1      22.101  16.365  32.709  1.00  0.00     0.097 C
HETATM    4  C11 UNL     1      20.888  16.266  33.572  1.00  0.00     0.027 C
HETATM    5  C13 UNL     1      20.515  17.717  33.786  1.00  0.00     0.010 C
HETATM    6  C14 UNL     1      21.786  18.519  33.556  1.00  0.00     0.029 C
HETATM    7  C15 UNL     1      22.871  17.494  33.283  1.00  0.00     0.123 C
BRANCH   4   8
HETATM    8  C12 UNL     1      19.771  15.493  32.900  1.00  0.00     0.170 C
BRANCH   8   9
HETATM    9  O1  UNL     1      19.485  14.314  33.577  1.00  0.00    -0.400 OA
ATOM     10  H1  UNL     1      19.094  14.485  34.426  1.00  0.00     0.209 HD
ENDBRANCH   8   9
ENDBRANCH   4   8
BRANCH   7  11
HETATM   11  N4  UNL     1      23.882  18.018  32.375  1.00  0.00    -0.298 N
HETATM   12  C16 UNL     1      25.152  18.298  32.679  1.00  0.00     0.112 A
HETATM   13  C17 UNL     1      25.743  18.769  31.521  1.00  0.00     0.037 A
HETATM   14  C18 UNL     1      24.792  18.759  30.532  1.00  0.00     0.108 A
HETATM   15  N5  UNL     1      23.664  18.290  31.100  1.00  0.00    -0.310 N
ATOM     16  H5  UNL     1      22.775  18.163  30.618  1.00  0.00     0.186 HD
ENDBRANCH   7  11
ENDBRANCH   2   3
BRANCH   1  17
HETATM   17  C7  UNL     1      24.509  13.056  32.870  1.00  0.00    -0.013 C
HETATM   18  C6  UNL     1      25.244  12.099  32.930  1.00  0.00    -0.072 C
BRANCH  18  19
HETATM   19  C5  UNL     1      26.150  10.948  33.023  1.00  0.00     0.224 C
BRANCH  19  20
HETATM   20  N3  UNL     1      25.406   9.751  32.813  1.00  0.00    -0.330 N
HETATM   21  C2  UNL     1      24.565   9.149  33.647  1.00  0.00     0.123 A
HETATM   22  N2  UNL     1      24.116   8.016  33.008  1.00  0.00    -0.350 N
HETATM   23  C3  UNL     1      24.680   7.937  31.794  1.00  0.00     0.107 A
ATOM     24  H2  UNL     1      23.456   7.342  33.397  1.00  0.00     0.166 HD
HETATM   25  C4  UNL     1      25.499   9.027  31.654  1.00  0.00     0.110 A
BRANCH  21  26
HETATM   26  C1  UNL     1      24.111   9.486  34.981  1.00  0.00     0.129 C
HETATM   27  N1  UNL     1      23.619   8.723  35.844  1.00  0.00    -0.405 N
ATOM     28  H12 UNL     1      23.535   7.748  35.555  1.00  0.00     0.155 HD
ATOM     29  H11 UNL     1      23.299   8.961  36.783  1.00  0.00     0.155 HD
ENDBRANCH  21  26
ENDBRANCH  19  20
ENDBRANCH  18  19
ENDBRANCH   1  17
TORSDOF 8
ENDMDL