MODEL 4
REMARK VINA RESULT: -6.613166421      1.723      1.872
REMARK  7 active torsions:
REMARK  status: ('A' for Active; 'I' for Inactive)
REMARK    1  A    between atoms: N1_2  and  C2_3
REMARK    2  A    between atoms: C2_3  and  C3_4
REMARK    3  A    between atoms: C4_5  and  C5_6
REMARK    4  A    between atoms: C6_7  and  C7_8
REMARK    5  A    between atoms: N4_20  and  C16_22
REMARK    6  A    between atoms: C16_22  and  C17_23
REMARK    7  A    between atoms: C17_23  and  N5_24
ROOT
HETATM    1  C2  UNL     1      23.700  10.999  32.891  1.00  0.00     0.332 C
ENDROOT
BRANCH   1   2
HETATM    2  N1  UNL     1      25.060  10.797  32.453  1.00  0.00    -0.035 N
HETATM    3  C1  UNL     1      25.547  12.099  31.987  1.00  0.00     0.275 C
HETATM    4  C13 UNL     1      25.921  10.332  33.521  1.00  0.00     0.268 C
HETATM    5  C14 UNL     1      26.872   9.337  32.868  1.00  0.00     0.267 C
HETATM    6  N4  UNL     1      26.149   8.880  31.706  1.00  0.00    -0.043 N
HETATM    7  C15 UNL     1      27.117   8.718  30.611  1.00  0.00     0.274 C
HETATM    8  C18 UNL     1      25.166   9.864  31.374  1.00  0.00     0.473 C
BRANCH   6   9
HETATM    9  C16 UNL     1      25.521   7.607  31.892  1.00  0.00     0.266 C
BRANCH   9  10
HETATM   10  C17 UNL     1      26.476   6.558  32.419  1.00  0.00     0.257 C
BRANCH  10  11
HETATM   11  N5  UNL     1      26.331   5.340  31.645  1.00  0.00    -0.078 N
ATOM     12  H53 UNL     1      27.000   4.624  31.925  1.00  0.00     0.274 HD
ATOM     13  H52 UNL     1      25.474   4.836  31.876  1.00  0.00     0.274 HD
ATOM     14  H51 UNL     1      26.393   5.560  30.651  1.00  0.00     0.274 HD
ENDBRANCH  10  11
ENDBRANCH   9  10
ENDBRANCH   6   9
ENDBRANCH   1   2
BRANCH   1  15
HETATM   15  C3  UNL     1      23.463  12.430  33.085  1.00  0.00    -0.074 C
HETATM   16  C4  UNL     1      23.245  13.606  33.250  1.00  0.00    -0.077 C
BRANCH  16  17
HETATM   17  C5  UNL     1      22.967  15.006  33.429  1.00  0.00     0.065 C
HETATM   18  C6  UNL     1      21.740  15.433  33.281  1.00  0.00     0.022 C
BRANCH  18  19
HETATM   19  C7  UNL     1      21.415  16.854  33.456  1.00  0.00    -0.006 A
HETATM   20  C8  UNL     1      22.276  17.909  33.545  1.00  0.00     0.100 A
HETATM   21  N2  UNL     1      21.569  19.060  33.704  1.00  0.00    -0.363 N
HETATM   22  C9  UNL     1      20.257  18.746  33.716  1.00  0.00     0.060 A
ATOM     23  H2  UNL     1      21.962  19.997  33.797  1.00  0.00     0.165 HD
HETATM   24  C10 UNL     1      18.959  19.206  33.816  1.00  0.00     0.117 A
HETATM   25  C12 UNL     1      20.147  17.376  33.563  1.00  0.00     0.019 A
HETATM   26  N3  UNL     1      18.084  18.186  33.732  1.00  0.00    -0.372 N
HETATM   27  C11 UNL     1      18.809  17.052  33.575  1.00  0.00     0.102 A
ATOM     28  H3  UNL     1      17.067  18.255  33.777  1.00  0.00     0.164 HD
ENDBRANCH  18  19
ENDBRANCH  16  17
ENDBRANCH   1  15
TORSDOF 7
ENDMDL