MODEL 4
REMARK VINA RESULT: -5.938160500      2.877      5.048
REMARK  4 active torsions:
REMARK  status: ('A' for Active; 'I' for Inactive)
REMARK    1  A    between atoms: N1_6  and  C6_7
REMARK    2  A    between atoms: C6_7  and  C7_8
REMARK    3  A    between atoms: C7_8  and  N2_9
REMARK       I    between atoms: N2_9  and  C8_11
REMARK       I    between atoms: C8_11  and  N4_15
REMARK    4  A    between atoms: C12_19  and  C13_20
ROOT
HETATM    1  N2  UNL     1      25.171  19.544  31.682  1.00  0.00    -0.225 N
ATOM      2  H2  UNL     1      24.353  20.151  31.648  1.00  0.00     0.177 HD
HETATM    3  C8  UNL     1      25.204  18.452  30.783  1.00  0.00     0.670 C
HETATM    4  N3  UNL     1      25.873  18.480  29.688  1.00  0.00    -0.235 N
ATOM      5  H31 UNL     1      25.897  17.692  29.040  1.00  0.00     0.174 HD
ATOM      6  H32 UNL     1      26.417  19.306  29.438  1.00  0.00     0.174 HD
HETATM    7  N4  UNL     1      24.447  17.302  31.130  1.00  0.00    -0.213 N
HETATM    8  C9  UNL     1      23.017  17.320  31.373  1.00  0.00     0.146 C
HETATM    9  C10 UNL     1      22.668  16.012  32.004  1.00  0.00     0.016 C
HETATM   10  C11 UNL     1      21.700  16.141  33.142  1.00  0.00     0.012 C
HETATM   11  C12 UNL     1      24.017  15.469  32.425  1.00  0.00     0.115 C
HETATM   12  C14 UNL     1      24.904  15.942  31.301  1.00  0.00     0.112 C
HETATM   13  C15 UNL     1      24.592  15.210  30.001  1.00  0.00     0.034 C
ENDROOT
BRANCH   1  14
HETATM   14  C7  UNL     1      26.193  19.869  32.639  1.00  0.00     0.166 C
BRANCH  14  15
HETATM   15  C6  UNL     1      25.541  20.226  33.960  1.00  0.00     0.263 C
BRANCH  15  16
HETATM   16  N1  UNL     1      25.166  19.117  34.736  1.00  0.00    -0.040 N
HETATM   17  C2  UNL     1      25.341  19.230  36.143  1.00  0.00     0.109 C
HETATM   18  C1  UNL     1      25.787  20.235  36.848  1.00  0.00     0.046 C
HETATM   19  C3  UNL     1      24.865  17.867  36.556  1.00  0.00     0.046 C
HETATM   20  C4  UNL     1      23.527  17.849  35.854  1.00  0.00     0.039 C
HETATM   21  C17 UNL     1      25.801  17.027  35.710  1.00  0.00     0.039 C
HETATM   22  C5  UNL     1      23.749  18.777  34.674  1.00  0.00     0.244 C
HETATM   23  C16 UNL     1      25.903  17.895  34.461  1.00  0.00     0.244 C
ENDBRANCH  15  16
ENDBRANCH  14  15
ENDBRANCH   1  14
BRANCH  11  24
HETATM   24  C13 UNL     1      24.017  14.033  32.650  1.00  0.00     0.179 C
HETATM   25  O1  UNL     1      24.912  13.505  33.345  1.00  0.00    -0.648 OA
HETATM   26  O2  UNL     1      23.036  13.237  32.102  1.00  0.00    -0.648 OA
ENDBRANCH  11  24
TORSDOF 4
ENDMDL