MODEL 3
REMARK VINA RESULT: -5.155746675      1.656     11.887
REMARK  12 active torsions:
REMARK  status: ('A' for Active; 'I' for Inactive)
REMARK    1  A    between atoms: C2_2  and  N1_3
REMARK    2  A    between atoms: C3_4  and  C4_5
REMARK    3  A    between atoms: C5_6  and  C6_7
REMARK    4  A    between atoms: C6_7  and  C7_8
REMARK    5  A    between atoms: C7_8  and  C8_9
REMARK    6  A    between atoms: C8_9  and  C9_10
REMARK    7  A    between atoms: C9_10  and  C10_11
REMARK    8  A    between atoms: C10_11  and  C11_12
REMARK    9  A    between atoms: C11_12  and  C12_13
REMARK   10  A    between atoms: C12_13  and  C13_14
REMARK   11  A    between atoms: C13_14  and  C14_15
REMARK   12  A    between atoms: C14_15  and  N2_16
REMARK       I    between atoms: N2_16  and  C15_18
ROOT
HETATM    1  C6  UNL     1      23.509  13.405  33.228  1.00  0.00    -0.001 C
ENDROOT
BRANCH   1   2
HETATM    2  C5  UNL     1      22.568  14.460  33.198  1.00  0.00    -0.006 C
HETATM    3  C4  UNL     1      21.744  15.352  33.161  1.00  0.00    -0.016 C
BRANCH   3   4
HETATM    4  C3  UNL     1      20.756  16.391  33.111  1.00  0.00     0.165 A
HETATM    5  N1  UNL     1      20.678  17.525  33.824  1.00  0.00    -0.329 N
HETATM    6  C18 UNL     1      19.587  18.225  33.463  1.00  0.00     0.032 A
HETATM    7  C16 UNL     1      18.957  17.490  32.477  1.00  0.00     0.030 A
HETATM    8  C19 UNL     1      19.086  19.528  33.967  1.00  0.00     0.070 C
HETATM    9  N5  UNL     1      19.698  16.375  32.285  1.00  0.00    -0.337 N
HETATM   10  C17 UNL     1      17.708  17.854  31.765  1.00  0.00     0.070 C
ATOM     11  H5  UNL     1      19.485  15.635  31.615  1.00  0.00     0.168 HD
BRANCH   5  12
HETATM   12  C2  UNL     1      21.617  17.953  34.839  1.00  0.00     0.126 C
HETATM   13  C1  UNL     1      22.848  18.560  34.168  1.00  0.00     0.027 C
ENDBRANCH   5  12
ENDBRANCH   3   4
ENDBRANCH   1   2
BRANCH   1  14
HETATM   14  C7  UNL     1      24.301  12.488  33.253  1.00  0.00    -0.000 C
BRANCH  14  15
HETATM   15  C8  UNL     1      25.208  11.402  33.279  1.00  0.00    -0.000 C
BRANCH  15  16
HETATM   16  C9  UNL     1      25.984  10.458  33.319  1.00  0.00    -0.001 C
BRANCH  16  17
HETATM   17  C10 UNL     1      26.864   9.353  33.370  1.00  0.00    -0.014 C
BRANCH  17  18
HETATM   18  C11 UNL     1      27.636   8.417  33.420  1.00  0.00    -0.092 C
BRANCH  18  19
HETATM   19  C12 UNL     1      28.572   7.295  33.503  1.00  0.00     0.096 C
BRANCH  19  20
HETATM   20  C13 UNL     1      27.915   6.107  32.862  1.00  0.00     0.032 C
BRANCH  20  21
HETATM   21  C14 UNL     1      26.846   6.568  31.900  1.00  0.00     0.123 C
BRANCH  21  22
HETATM   22  N2  UNL     1      27.100   5.985  30.601  1.00  0.00    -0.367 N
HETATM   23  C15 UNL     1      27.546   6.735  29.659  1.00  0.00     0.196 C
HETATM   24  N3  UNL     1      27.808   6.197  28.368  1.00  0.00    -0.067 NA
HETATM   25  N4  UNL     1      27.781   8.102  29.899  1.00  0.00    -0.067 NA
ATOM     26  H2  UNL     1      26.928   4.993  30.436  1.00  0.00     0.161 HD
ENDBRANCH  21  22
ENDBRANCH  20  21
ENDBRANCH  19  20
ENDBRANCH  18  19
ENDBRANCH  17  18
ENDBRANCH  16  17
ENDBRANCH  15  16
ENDBRANCH  14  15
ENDBRANCH   1  14
TORSDOF 12
ENDMDL