MODEL 4
REMARK VINA RESULT: -5.921409429      1.232      1.818
REMARK  5 active torsions:
REMARK  status: ('A' for Active; 'I' for Inactive)
REMARK    1  A    between atoms: C2_2  and  C3_3
REMARK    2  A    between atoms: C3_3  and  N1_4
REMARK       I    between atoms: C4_6  and  N3_8
REMARK       I    between atoms: N3_8  and  C5_10
REMARK       I    between atoms: C5_10  and  N5_14
REMARK    3  A    between atoms: N5_14  and  C7_16
REMARK    4  A    between atoms: C7_16  and  C8_17
REMARK    5  A    between atoms: C8_17  and  N6_18
ROOT
HETATM    1  N1  UNL     1      21.179  16.597  33.587  1.00  0.00    -0.364 N
ATOM      2  H1  UNL     1      21.143  17.347  34.276  1.00  0.00     0.162 HD
HETATM    3  C4  UNL     1      22.288  15.956  33.449  1.00  0.00     0.202 C
HETATM    4  N2  UNL     1      23.376  16.350  34.274  1.00  0.00    -0.063 NA
HETATM    5  N3  UNL     1      22.371  14.905  32.494  1.00  0.00    -0.164 N
ATOM      6  H3  UNL     1      21.542  14.334  32.331  1.00  0.00     0.187 HD
HETATM    7  C5  UNL     1      23.538  14.612  31.761  1.00  0.00     0.675 C
HETATM    8  N4  UNL     1      23.967  15.385  30.823  1.00  0.00    -0.231 N
ATOM      9  H4  UNL     1      24.817  15.130  30.321  1.00  0.00     0.177 HD
HETATM   10  C6  UNL     1      23.271  16.612  30.459  1.00  0.00     0.165 C
HETATM   11  N5  UNL     1      24.315  13.436  32.019  1.00  0.00    -0.225 N
ATOM     12  H5  UNL     1      25.036  13.124  31.368  1.00  0.00     0.177 HD
ENDROOT
BRANCH  11  13
HETATM   13  C7  UNL     1      24.036  12.708  33.240  1.00  0.00     0.166 C
BRANCH  13  14
HETATM   14  C8  UNL     1      23.562  11.310  32.986  1.00  0.00     0.257 C
BRANCH  14  15
HETATM   15  N6  UNL     1      24.586  10.324  32.917  1.00  0.00    -0.066 N
HETATM   16  C9  UNL     1      24.815   9.779  31.596  1.00  0.00     0.272 C
HETATM   17  C10 UNL     1      24.119   9.188  33.730  1.00  0.00     0.265 C
HETATM   18  C11 UNL     1      24.342   9.581  35.175  1.00  0.00     0.264 C
HETATM   19  N7  UNL     1      25.737   9.290  35.470  1.00  0.00    -0.071 N
HETATM   20  C12 UNL     1      26.146   9.971  36.681  1.00  0.00     0.272 C
HETATM   21  C13 UNL     1      25.816   7.847  35.735  1.00  0.00     0.272 C
HETATM   22  C14 UNL     1      26.506   9.663  34.321  1.00  0.00     0.264 C
HETATM   23  C15 UNL     1      25.845  10.730  33.471  1.00  0.00     0.265 C
ENDBRANCH  14  15
ENDBRANCH  13  14
ENDBRANCH  11  13
BRANCH   1  24
HETATM   24  C3  UNL     1      19.996  16.322  32.832  1.00  0.00     0.122 C
BRANCH  24  25
HETATM   25  C2  UNL     1      18.836  17.012  33.560  1.00  0.00     0.015 C
HETATM   26  C1  UNL     1      18.422  18.281  32.855  1.00  0.00     0.006 C
ENDBRANCH  24  25
ENDBRANCH   1  24
TORSDOF 5
ENDMDL