MODEL 5
REMARK VINA RESULT: -6.756118932      2.748      8.124
REMARK  6 active torsions:
REMARK  status: ('A' for Active; 'I' for Inactive)
REMARK    1  A    between atoms: C2_2  and  C3_3
REMARK    2  A    between atoms: C3_3  and  C4_4
REMARK    3  A    between atoms: C6_10  and  C7_11
REMARK    4  A    between atoms: C7_11  and  C8_12
REMARK    5  A    between atoms: C9_15  and  C10_16
REMARK    6  A    between atoms: C10_16  and  C11_17
ROOT
HETATM    1  C4  UNL     1      19.714  17.487  33.036  1.00  0.00     0.103 A
HETATM    2  N1  UNL     1      19.773  16.443  32.194  1.00  0.00    -0.327 N
ATOM      3  H1  UNL     1      18.968  15.888  31.901  1.00  0.00     0.169 HD
HETATM    4  C5  UNL     1      21.038  16.227  31.789  1.00  0.00     0.139 A
HETATM    5  N2  UNL     1      21.817  15.442  31.021  1.00  0.00    -0.337 N
ATOM      6  H2  UNL     1      21.487  14.659  30.457  1.00  0.00     0.167 HD
HETATM    7  C6  UNL     1      23.098  15.846  31.108  1.00  0.00     0.089 A
HETATM    8  C16 UNL     1      23.073  16.921  31.968  1.00  0.00     0.229 A
HETATM    9  O1  UNL     1      24.101  17.567  32.294  1.00  0.00    -0.283 OA
HETATM   10  C17 UNL     1      21.779  17.154  32.391  1.00  0.00     0.131 A
HETATM   11  N5  UNL     1      20.985  17.929  33.155  1.00  0.00    -0.336 N
ATOM     12  H5  UNL     1      21.292  18.716  33.725  1.00  0.00     0.168 HD
ENDROOT
BRANCH   7  13
HETATM   13  C7  UNL     1      24.155  15.312  30.488  1.00  0.00     0.065 C
BRANCH  13  14
HETATM   14  C8  UNL     1      24.784  14.114  31.052  1.00  0.00     0.058 A
HETATM   15  N3  UNL     1      24.396  13.395  32.119  1.00  0.00    -0.344 N
HETATM   16  C9  UNL     1      25.230  12.352  32.339  1.00  0.00     0.083 A
ATOM     17  H3  UNL     1      23.578  13.608  32.689  1.00  0.00     0.167 HD
HETATM   18  N4  UNL     1      26.164  12.428  31.377  1.00  0.00    -0.343 N
HETATM   19  C13 UNL     1      27.272  11.530  31.203  1.00  0.00     0.157 C
HETATM   20  C14 UNL     1      25.920  13.495  30.573  1.00  0.00     0.035 A
HETATM   21  C15 UNL     1      26.746  13.892  29.404  1.00  0.00     0.070 C
BRANCH  16  22
HETATM   22  C10 UNL     1      25.106  11.351  33.437  1.00  0.00     0.076 C
BRANCH  22  23
HETATM   23  C11 UNL     1      23.707  11.109  33.883  1.00  0.00     0.003 C
HETATM   24  C12 UNL     1      23.508   9.954  34.809  1.00  0.00     0.005 C
ENDBRANCH  22  23
ENDBRANCH  16  22
ENDBRANCH  13  14
ENDBRANCH   7  13
BRANCH   1  25
HETATM   25  C3  UNL     1      18.638  18.004  33.645  1.00  0.00     0.021 C
BRANCH  25  26
HETATM   26  C2  UNL     1      17.980  19.148  32.986  1.00  0.00     0.026 C
HETATM   27  C1  UNL     1      18.417  20.466  33.587  1.00  0.00     0.009 C
ENDBRANCH  25  26
ENDBRANCH   1  25
TORSDOF 6
ENDMDL