MODEL 2
REMARK VINA RESULT: -6.887997226      4.188      8.015
REMARK  4 active torsions:
REMARK  status: ('A' for Active; 'I' for Inactive)
REMARK    1  A    between atoms: C3_3  and  C4_4
REMARK    2  A    between atoms: N1_7  and  C8_9
REMARK    3  A    between atoms: C11_12  and  C12_13
REMARK    4  A    between atoms: C12_13  and  C13_14
REMARK       I    between atoms: C13_14  and  N2_16
ROOT
HETATM    1  C8  UNL     1      24.113  15.776  31.965  1.00  0.00     0.290 C
HETATM    2  C9  UNL     1      24.707  15.759  33.331  1.00  0.00     0.056 C
HETATM    3  C10 UNL     1      23.911  16.713  34.194  1.00  0.00     0.018 C
HETATM    4  C11 UNL     1      22.469  16.294  34.216  1.00  0.00     0.086 C
HETATM    5  C15 UNL     1      22.093  15.283  33.221  1.00  0.00     0.223 C
HETATM    6  O2  UNL     1      21.012  14.649  33.416  1.00  0.00    -0.273 OA
HETATM    7  N5  UNL     1      22.882  14.984  32.059  1.00  0.00    -0.333 N
ATOM      8  H5  UNL     1      22.612  14.286  31.365  1.00  0.00     0.164 HD
ENDROOT
BRANCH   1   9
HETATM    9  N1  UNL     1      24.939  15.327  30.901  1.00  0.00    -0.049 N
HETATM   10  C6  UNL     1      26.057  16.214  30.675  1.00  0.00     0.240 C
HETATM   11  C5  UNL     1      26.953  15.367  29.755  1.00  0.00     0.038 C
HETATM   12  C4  UNL     1      26.780  13.991  30.264  1.00  0.00     0.035 C
HETATM   13  C16 UNL     1      25.514  14.013  31.106  1.00  0.00     0.248 C
HETATM   14  C7  UNL     1      24.145  15.324  29.687  1.00  0.00     0.275 C
BRANCH  12  15
HETATM   15  C3  UNL     1      26.768  12.909  29.276  1.00  0.00    -0.025 C
HETATM   16  C2  UNL     1      27.640  12.737  28.314  1.00  0.00    -0.035 C
HETATM   17  C1  UNL     1      27.527  11.592  27.360  1.00  0.00     0.036 C
ENDBRANCH  12  15
ENDBRANCH   1   9
BRANCH   4  18
HETATM   18  C12 UNL     1      21.544  17.511  34.219  1.00  0.00     0.117 C
BRANCH  18  19
HETATM   19  C13 UNL     1      21.053  17.861  32.889  1.00  0.00     0.224 C
HETATM   20  O1  UNL     1      21.893  18.135  31.974  1.00  0.00    -0.273 OA
HETATM   21  N2  UNL     1      19.687  17.909  32.557  1.00  0.00    -0.304 N
HETATM   22  C14 UNL     1      18.756  18.544  33.135  1.00  0.00     0.203 C
ATOM     23  H2  UNL     1      19.409  17.360  31.743  1.00  0.00     0.171 HD
HETATM   24  N3  UNL     1      17.437  18.424  32.596  1.00  0.00    -0.066 NA
HETATM   25  N4  UNL     1      18.956  19.362  34.270  1.00  0.00    -0.066 NA
ENDBRANCH  18  19
ENDBRANCH   4  18
TORSDOF 4
ENDMDL