MODEL 2
REMARK VINA RESULT: -7.335919469      0.524      1.279
REMARK  4 active torsions:
REMARK  status: ('A' for Active; 'I' for Inactive)
REMARK    1  A    between atoms: C2_2  and  N7_24
REMARK       I    between atoms: N1_3  and  C3_5
REMARK       I    between atoms: C3_5  and  N3_9
REMARK       I    between atoms: C4_11  and  N5_13
REMARK    2  A    between atoms: N5_13  and  C5_15
REMARK    3  A    between atoms: C5_15  and  C6_16
REMARK    4  A    between atoms: C6_16  and  N6_17
ROOT
HETATM    1  C1  UNL     1      23.033  17.649  32.286  1.00  0.00     0.089 C
HETATM    2  C2  UNL     1      21.908  16.758  31.975  1.00  0.00     0.091 C
HETATM    3  N1  UNL     1      22.076  15.815  31.103  1.00  0.00    -0.181 N
ATOM      4  H1  UNL     1      21.285  15.203  30.898  1.00  0.00     0.185 HD
HETATM    5  C3  UNL     1      23.273  15.588  30.428  1.00  0.00     0.679 C
HETATM    6  N2  UNL     1      23.396  15.909  29.192  1.00  0.00    -0.234 N
ATOM      7  H21 UNL     1      24.274  15.743  28.698  1.00  0.00     0.174 HD
ATOM      8  H22 UNL     1      22.601  16.335  28.714  1.00  0.00     0.174 HD
HETATM    9  N3  UNL     1      24.376  14.997  31.091  1.00  0.00    -0.164 N
ATOM     10  H3  UNL     1      25.309  15.329  30.848  1.00  0.00     0.187 HD
HETATM   11  C4  UNL     1      24.283  14.064  31.985  1.00  0.00     0.202 C
HETATM   12  N4  UNL     1      22.991  13.601  32.322  1.00  0.00    -0.063 NA
HETATM   13  N5  UNL     1      25.437  13.543  32.608  1.00  0.00    -0.362 N
ATOM     14  H5  UNL     1      25.944  14.149  33.252  1.00  0.00     0.162 HD
ENDROOT
BRANCH  13  15
HETATM   15  C5  UNL     1      25.941  12.229  32.397  1.00  0.00     0.150 C
BRANCH  15  16
HETATM   16  C6  UNL     1      25.436  11.284  33.441  1.00  0.00     0.256 C
BRANCH  16  17
HETATM   17  N6  UNL     1      25.692   9.885  33.143  1.00  0.00    -0.069 N
HETATM   18  C7  UNL     1      26.985   9.486  33.640  1.00  0.00     0.272 C
HETATM   19  C8  UNL     1      24.616   9.087  33.656  1.00  0.00     0.237 C
HETATM   20  C9  UNL     1      24.888   7.614  33.423  1.00  0.00     0.028 C
HETATM   21  C10 UNL     1      25.082   7.294  31.972  1.00  0.00     0.003 C
HETATM   22  C11 UNL     1      25.857   8.333  31.223  1.00  0.00     0.028 C
HETATM   23  C12 UNL     1      25.668   9.734  31.689  1.00  0.00     0.237 C
ENDBRANCH  16  17
ENDBRANCH  15  16
ENDBRANCH  13  15
BRANCH   2  24
HETATM   24  N7  UNL     1      20.640  16.893  32.600  1.00  0.00    -0.371 N
HETATM   25  C13 UNL     1      20.396  17.404  33.931  1.00  0.00     0.124 C
HETATM   26  C14 UNL     1      19.032  18.074  33.863  1.00  0.00     0.021 C
HETATM   27  C15 UNL     1      18.571  17.844  32.427  1.00  0.00     0.021 C
HETATM   28  C16 UNL     1      19.329  16.565  32.080  1.00  0.00     0.124 C
ENDBRANCH   2  24
TORSDOF 4
ENDMDL