MODEL 3
REMARK VINA RESULT: -6.066616984      1.279      1.422
REMARK  8 active torsions:
REMARK  status: ('A' for Active; 'I' for Inactive)
REMARK    1  A    between atoms: N1_2  and  C2_5
REMARK    2  A    between atoms: C2_5  and  C3_6
REMARK    3  A    between atoms: C2_5  and  C15_25
REMARK       I    between atoms: C3_6  and  N2_8
REMARK    4  A    between atoms: C4_10  and  C5_11
REMARK    5  A    between atoms: C6_12  and  C7_13
REMARK    6  A    between atoms: C8_14  and  C9_15
REMARK    7  A    between atoms: C9_15  and  C10_16
REMARK    8  A    between atoms: C10_16  and  N3_17
ROOT
HETATM    1  C3  UNL     1      24.901   9.358  34.188  1.00  0.00     0.253 C
HETATM    2  O1  UNL     1      25.563  10.382  33.879  1.00  0.00    -0.271 OA
HETATM    3  N2  UNL     1      23.518   9.309  34.321  1.00  0.00    -0.328 N
ATOM      4  H2  UNL     1      23.101   8.476  34.734  1.00  0.00     0.168 HD
HETATM    5  C4  UNL     1      22.752  10.248  33.957  1.00  0.00     0.157 C
ENDROOT
BRANCH   5   6
HETATM    6  C5  UNL     1      23.230  11.455  33.369  1.00  0.00    -0.047 C
HETATM    7  C6  UNL     1      23.633  12.487  32.838  1.00  0.00    -0.009 C
BRANCH   7   8
HETATM    8  C7  UNL     1      24.077  13.687  32.241  1.00  0.00    -0.015 C
HETATM    9  C8  UNL     1      24.454  14.720  31.743  1.00  0.00    -0.091 C
BRANCH   9  10
HETATM   10  C9  UNL     1      24.898  15.986  31.137  1.00  0.00     0.114 C
BRANCH  10  11
HETATM   11  C10 UNL     1      23.687  16.656  30.466  1.00  0.00     0.133 C
BRANCH  11  12
HETATM   12  N3  UNL     1      23.061  17.439  31.503  1.00  0.00    -0.379 N
HETATM   13  C11 UNL     1      21.919  17.108  31.966  1.00  0.00     0.072 C
HETATM   14  C12 UNL     1      21.202  17.867  33.040  1.00  0.00     0.077 C
HETATM   15  N4  UNL     1      21.083  16.003  31.601  1.00  0.00    -0.380 N
HETATM   16  C13 UNL     1      19.764  17.548  32.755  1.00  0.00     0.027 C
HETATM   17  C14 UNL     1      19.707  16.313  31.903  1.00  0.00     0.121 C
ATOM     18  H4  UNL     1      21.412  15.129  31.191  1.00  0.00     0.160 HD
ATOM     19  H3  UNL     1      23.535  18.264  31.870  1.00  0.00     0.160 HD
ENDBRANCH  11  12
ENDBRANCH  10  11
ENDBRANCH   9  10
ENDBRANCH   7   8
ENDBRANCH   5   6
BRANCH   1  20
HETATM   20  C2  UNL     1      25.655   8.084  34.432  1.00  0.00     0.284 C
BRANCH  20  21
HETATM   21  N1  UNL     1      24.879   7.179  35.250  1.00  0.00    -0.066 N
HETATM   22  C1  UNL     1      25.119   7.321  36.667  1.00  0.00     0.267 C
ATOM     23  H12 UNL     1      25.026   6.214  34.956  1.00  0.00     0.277 HD
ATOM     24  H11 UNL     1      23.884   7.272  35.043  1.00  0.00     0.277 HD
ENDBRANCH  20  21
BRANCH  20  25
HETATM   25  C15 UNL     1      25.917   7.369  33.127  1.00  0.00    -0.014 C
HETATM   26  C16 UNL     1      24.889   7.626  32.072  1.00  0.00     0.017 C
HETATM   27  C17 UNL     1      25.898   5.870  33.435  1.00  0.00     0.017 C
HETATM   28  C18 UNL     1      27.285   7.781  32.614  1.00  0.00     0.017 C
ENDBRANCH  20  25
ENDBRANCH   1  20
TORSDOF 8
ENDMDL