MODEL 2
REMARK VINA RESULT: -6.068558714      2.412      5.122
REMARK  5 active torsions:
REMARK  status: ('A' for Active; 'I' for Inactive)
REMARK    1  A    between atoms: C3_3  and  C4_4
REMARK    2  A    between atoms: C4_4  and  N1_5
REMARK    3  A    between atoms: C9_10  and  C10_11
REMARK    4  A    between atoms: C14_18  and  C15_19
REMARK    5  A    between atoms: C15_19  and  N3_20
REMARK       I    between atoms: N3_20  and  C16_22
ROOT
HETATM    1  N1  UNL     1      22.302  16.416  32.721  1.00  0.00    -0.061 N
HETATM    2  C5  UNL     1      21.328  16.263  31.654  1.00  0.00     0.273 C
HETATM    3  C6  UNL     1      22.970  15.150  32.812  1.00  0.00     0.244 C
HETATM    4  C7  UNL     1      24.335  15.175  33.368  1.00  0.00     0.036 C
HETATM    5  C8  UNL     1      24.486  16.265  34.415  1.00  0.00     0.022 C
HETATM    6  C9  UNL     1      24.567  17.197  33.228  1.00  0.00     0.010 C
HETATM    7  C12 UNL     1      25.359  16.035  32.661  1.00  0.00     0.100 C
HETATM    8  N2  UNL     1      25.511  15.971  31.276  1.00  0.00    -0.355 N
ATOM      9  H2  UNL     1      26.385  15.638  30.870  1.00  0.00     0.162 HD
HETATM   10  C13 UNL     1      24.449  16.370  30.440  1.00  0.00     0.225 C
HETATM   11  O1  UNL     1      24.192  15.842  29.338  1.00  0.00    -0.273 OA
HETATM   12  C14 UNL     1      23.620  17.485  30.944  1.00  0.00     0.127 C
HETATM   13  C17 UNL     1      23.338  17.399  32.432  1.00  0.00     0.215 C
ENDROOT
BRANCH  12  14
HETATM   14  C15 UNL     1      24.110  18.825  30.471  1.00  0.00     0.138 C
BRANCH  14  15
HETATM   15  N3  UNL     1      25.089  18.630  29.388  1.00  0.00    -0.364 N
HETATM   16  C16 UNL     1      26.417  19.061  29.484  1.00  0.00     0.181 C
HETATM   17  N4  UNL     1      27.334  18.477  28.812  1.00  0.00    -0.374 N
HETATM   18  N5  UNL     1      26.747  20.140  30.325  1.00  0.00    -0.064 NA
ATOM     19  H42 UNL     1      27.096  17.695  28.203  1.00  0.00     0.158 HD
ATOM     20  H41 UNL     1      28.302  18.790  28.882  1.00  0.00     0.158 HD
ATOM     21  H3  UNL     1      24.787  18.163  28.534  1.00  0.00     0.162 HD
ENDBRANCH  14  15
ENDBRANCH  12  14
BRANCH   1  22
HETATM   22  C4  UNL     1      21.532  16.815  33.874  1.00  0.00     0.264 C
BRANCH  22  23
HETATM   23  C3  UNL     1      20.835  18.113  33.725  1.00  0.00    -0.004 C
HETATM   24  C2  UNL     1      19.569  18.217  34.035  1.00  0.00    -0.033 C
HETATM   25  C1  UNL     1      18.878  19.511  33.885  1.00  0.00     0.036 C
ENDBRANCH  22  23
ENDBRANCH   1  22
BRANCH   6  26
HETATM   26  C10 UNL     1      25.316  18.432  33.619  1.00  0.00     0.009 C
HETATM   27  C11 UNL     1      24.443  19.498  34.230  1.00  0.00     0.006 C
ENDBRANCH   6  26
TORSDOF 5
ENDMDL