MODEL 3
REMARK VINA RESULT: -5.998664343      1.363      1.720
REMARK  3 active torsions:
REMARK  status: ('A' for Active; 'I' for Inactive)
REMARK    1  A    between atoms: O1_1  and  C1_3
REMARK    2  A    between atoms: C1_3  and  C2_4
REMARK    3  A    between atoms: C2_4  and  C3_5
ROOT
HETATM    1  C3  UNL     1      11.005  15.465   0.779  1.00  0.00     0.151 C
HETATM    2  C4  UNL     1       9.612  15.421   0.174  1.00  0.00     0.203 C
HETATM    3  O2  UNL     1       8.973  14.579   1.099  1.00  0.00    -0.353 OA
HETATM    4  C5  UNL     1       9.662  14.663   2.278  1.00  0.00     0.164 C
HETATM    5  C6  UNL     1       8.699  15.115   3.355  1.00  0.00     0.068 C
HETATM    6  C7  UNL     1       8.385  14.006   4.337  1.00  0.00     0.005 C
HETATM    7  C8  UNL     1       9.621  13.549   5.079  1.00  0.00     0.000 C
HETATM    8  C9  UNL     1      10.813  13.589   4.133  1.00  0.00     0.005 C
HETATM    9  C10 UNL     1      10.247  13.343   2.736  1.00  0.00     0.068 C
HETATM   10  O3  UNL     1      10.708  15.552   2.124  1.00  0.00    -0.348 OA
ENDROOT
BRANCH   1  11
HETATM   11  C2  UNL     1      11.818  16.613   0.263  1.00  0.00     0.060 C
BRANCH  11  12
HETATM   12  C1  UNL     1      13.099  16.652   1.071  1.00  0.00     0.166 C
BRANCH  12  13
HETATM   13  O1  UNL     1      14.132  15.968   0.442  1.00  0.00    -0.401 OA
ATOM     14  H1  UNL     1      14.863  16.539   0.237  1.00  0.00     0.209 HD
ENDBRANCH  12  13
ENDBRANCH  11  12
ENDBRANCH   1  11
TORSDOF 3
ENDMDL