MODEL 5
REMARK VINA RESULT: -5.564012708      2.279      2.707
REMARK  2 active torsions:
REMARK  status: ('A' for Active; 'I' for Inactive)
REMARK    1  A    between atoms: O1_3  and  N1_4
REMARK    2  A    between atoms: N1_4  and  C3_6
ROOT
HETATM    1  C1  UNL     1      13.942  17.750   3.014  1.00  0.00     0.047 C
HETATM    2  C2  UNL     1      13.241  16.769   2.916  1.00  0.00     0.073 C
HETATM    3  O1  UNL     1      12.453  15.650   2.786  1.00  0.00    -0.189 OA
ENDROOT
BRANCH   3   4
HETATM    4  N1  UNL     1      11.615  15.339   3.800  1.00  0.00    -0.264 N
ATOM      5  H1  UNL     1      11.951  15.001   4.702  1.00  0.00     0.191 HD
BRANCH   4   6
HETATM    6  C3  UNL     1      10.229  15.518   3.518  1.00  0.00     0.206 C
HETATM    7  C4  UNL     1       9.943  14.793   2.201  1.00  0.00     0.053 C
HETATM    8  C5  UNL     1       8.645  14.049   2.312  1.00  0.00    -0.009 C
HETATM    9  C6  UNL     1       7.543  15.037   2.516  1.00  0.00     0.010 C
HETATM   10  C10 UNL     1       8.737  13.012   3.401  1.00  0.00     0.024 C
HETATM   11  C7  UNL     1       7.116  15.164   3.942  1.00  0.00     0.044 C
HETATM   12  C8  UNL     1       8.238  15.542   4.868  1.00  0.00     0.060 C
HETATM   13  N2  UNL     1       9.477  14.935   4.596  1.00  0.00    -0.371 N
HETATM   14  C9  UNL     1       9.518  13.520   4.595  1.00  0.00     0.124 C
ENDBRANCH   4   6
ENDBRANCH   3   4
TORSDOF 2
ENDMDL