MODEL 5
REMARK VINA RESULT: -5.094165397      2.706      3.612
REMARK  2 active torsions:
REMARK  status: ('A' for Active; 'I' for Inactive)
REMARK    1  A    between atoms: C2_2  and  S1_3
REMARK    2  A    between atoms: S1_3  and  C3_4
ROOT
HETATM    1  C3  UNL     1       9.105  15.070   1.818  1.00  0.00     0.074 C
HETATM    2  C4  UNL     1       8.070  13.982   1.768  1.00  0.00     0.184 C
HETATM    3  O1  UNL     1       8.219  13.203   2.904  1.00  0.00    -0.377 OA
HETATM    4  C5  UNL     1       8.539  14.135   3.883  1.00  0.00     0.087 C
HETATM    5  C6  UNL     1       7.304  14.905   4.289  1.00  0.00     0.067 C
HETATM    6  C7  UNL     1       6.961  14.320   5.640  1.00  0.00     0.235 C
HETATM    7  N1  UNL     1       8.269  14.044   6.171  1.00  0.00    -0.072 N
ATOM      8  H11 UNL     1       8.239  13.470   7.014  1.00  0.00     0.277 HD
ATOM      9  H12 UNL     1       8.709  14.868   6.580  1.00  0.00     0.277 HD
HETATM   10  C8  UNL     1       9.060  13.454   5.127  1.00  0.00     0.270 C
HETATM   11  C9  UNL     1       9.590  15.017   3.263  1.00  0.00     0.057 C
ENDROOT
BRANCH   1  12
HETATM   12  S1  UNL     1      10.535  14.724   0.761  1.00  0.00    -0.162 SA
BRANCH  12  13
HETATM   13  C2  UNL     1      10.578  15.818  -0.691  1.00  0.00     0.070 C
HETATM   14  C1  UNL     1      11.537  16.945  -0.363  1.00  0.00     0.016 C
ENDBRANCH  12  13
ENDBRANCH   1  12
TORSDOF 2
ENDMDL