MODEL 2
REMARK VINA RESULT: -6.105323848      1.851      2.231
REMARK  2 active torsions:
REMARK  status: ('A' for Active; 'I' for Inactive)
REMARK    1  A    between atoms: N2_5  and  C3_7
REMARK    2  A    between atoms: C3_7  and  C4_8
ROOT
HETATM    1  C1  UNL     1      12.839  17.241  -0.725  1.00  0.00     0.208 A
HETATM    2  N1  UNL     1      11.602  16.897  -0.326  1.00  0.00    -0.315 N
ATOM      3  H1  UNL     1      10.738  17.234  -0.751  1.00  0.00     0.170 HD
HETATM    4  C2  UNL     1      11.663  16.051   0.710  1.00  0.00     0.244 A
HETATM    5  N2  UNL     1      10.644  15.555   1.299  1.00  0.00    -0.354 N
ATOM      6  H2  UNL     1       9.724  15.828   0.952  1.00  0.00     0.163 HD
HETATM    7  O1  UNL     1      12.946  15.871   0.951  1.00  0.00    -0.200 OA
HETATM    8  N3  UNL     1      13.667  16.562   0.118  1.00  0.00    -0.253 N
ATOM      9  H3  UNL     1      14.687  16.591   0.098  1.00  0.00     0.195 HD
ENDROOT
BRANCH   5  10
HETATM   10  C3  UNL     1      10.689  14.650   2.406  1.00  0.00     0.128 C
BRANCH  10  11
HETATM   11  C4  UNL     1       9.373  13.928   2.526  1.00  0.00     0.003 C
HETATM   12  C5  UNL     1       8.261  14.822   2.999  1.00  0.00     0.006 C
HETATM   13  C6  UNL     1       8.603  15.378   4.346  1.00  0.00     0.000 C
HETATM   14  C7  UNL     1       8.776  14.276   5.330  1.00  0.00     0.000 C
HETATM   15  C8  UNL     1       8.836  12.909   4.757  1.00  0.00     0.000 C
HETATM   16  C9  UNL     1       9.500  12.767   3.449  1.00  0.00     0.006 C
ENDBRANCH  10  11
ENDBRANCH   5  10
TORSDOF 2
ENDMDL