MODEL 1
REMARK VINA RESULT: -5.929804766      0.000      0.000
REMARK  2 active torsions:
REMARK  status: ('A' for Active; 'I' for Inactive)
REMARK    1  A    between atoms: C5_6  and  N1_7
REMARK    2  A    between atoms: N1_7  and  N2_9
ROOT
HETATM    1  N1  UNL     1      10.975  14.728   3.422  1.00  0.00    -0.347 N
ATOM      2  H1  UNL     1      11.270  13.974   4.043  1.00  0.00     0.174 HD
ENDROOT
BRANCH   1   3
HETATM    3  C5  UNL     1       9.607  15.018   3.195  1.00  0.00     0.124 C
HETATM    4  C2  UNL     1       8.954  13.842   2.498  1.00  0.00     0.141 C
HETATM    5  C1  UNL     1       8.247  14.322   1.240  1.00  0.00     0.041 C
HETATM    6  O1  UNL     1       8.019  13.321   3.355  1.00  0.00    -0.384 OA
HETATM    7  C3  UNL     1       8.447  13.638   4.662  1.00  0.00     0.170 C
HETATM    8  C4  UNL     1       8.768  15.122   4.439  1.00  0.00     0.055 C
ENDBRANCH   1   3
BRANCH   1   9
HETATM    9  N2  UNL     1      11.880  15.517   2.761  1.00  0.00    -0.235 NA
HETATM   10  C6  UNL     1      11.602  16.905   2.976  1.00  0.00     0.113 C
HETATM   11  C7  UNL     1      12.683  17.629   3.720  1.00  0.00     0.016 C
HETATM   12  C8  UNL     1      13.956  17.593   2.942  1.00  0.00     0.002 C
HETATM   13  C9  UNL     1      14.133  16.237   2.340  1.00  0.00     0.016 C
HETATM   14  C10 UNL     1      13.253  15.253   3.121  1.00  0.00     0.113 C
ENDBRANCH   1   9
TORSDOF 2
ENDMDL