MODEL 4
REMARK VINA RESULT: -6.028049035      3.503      4.650
REMARK  3 active torsions:
REMARK  status: ('A' for Active; 'I' for Inactive)
REMARK    1  A    between atoms: C2_2  and  C3_3
REMARK    2  A    between atoms: C5_7  and  N2_8
REMARK    3  A    between atoms: N2_8  and  N3_10
ROOT
HETATM    1  C3  UNL     1      11.038  16.041   1.224  1.00  0.00     0.010 C
HETATM    2  C4  UNL     1      10.405  15.574  -0.062  1.00  0.00     0.126 C
HETATM    3  N1  UNL     1       9.390  14.660   0.418  1.00  0.00    -0.379 N
ATOM      4  H1  UNL     1       8.538  14.421  -0.091  1.00  0.00     0.160 HD
HETATM    5  C5  UNL     1       9.707  14.190   1.571  1.00  0.00     0.087 C
HETATM    6  C10 UNL     1      11.009  14.740   2.034  1.00  0.00     0.083 C
ENDROOT
BRANCH   5   7
HETATM    7  N2  UNL     1       8.895  13.262   2.291  1.00  0.00    -0.308 N
ATOM      8  H2  UNL     1       8.950  12.273   2.048  1.00  0.00     0.182 HD
BRANCH   7   9
HETATM    9  N3  UNL     1       8.041  13.649   3.301  1.00  0.00    -0.230 NA
HETATM   10  C6  UNL     1       8.454  13.281   4.616  1.00  0.00     0.113 C
HETATM   11  C7  UNL     1       9.028  14.572   5.174  1.00  0.00     0.017 C
HETATM   12  C8  UNL     1       8.060  15.604   4.641  1.00  0.00     0.017 C
HETATM   13  C9  UNL     1       7.692  15.035   3.295  1.00  0.00     0.113 C
ENDBRANCH   7   9
ENDBRANCH   5   7
BRANCH   1  14
HETATM   14  C2  UNL     1      12.449  16.530   1.035  1.00  0.00     0.002 C
HETATM   15  C1  UNL     1      12.650  16.845  -0.424  1.00  0.00     0.005 C
ENDBRANCH   1  14
TORSDOF 3
ENDMDL