MODEL 1
REMARK VINA RESULT: -6.134718918      0.000      0.000
REMARK  2 active torsions:
REMARK  status: ('A' for Active; 'I' for Inactive)
REMARK    1  A    between atoms: C6_8  and  N2_9
REMARK    2  A    between atoms: N2_9  and  C7_12
ROOT
HETATM    1  C1  UNL     1      12.863  15.988   3.696  1.00  0.00     0.039 C
HETATM    2  C2  UNL     1      13.583  17.097   3.050  1.00  0.00     0.122 C
HETATM    3  N1  UNL     1      13.342  17.323   1.656  1.00  0.00    -0.380 N
ATOM      4  H1  UNL     1      13.868  18.074   1.210  1.00  0.00     0.160 HD
HETATM    5  C3  UNL     1      12.533  16.672   0.926  1.00  0.00     0.076 C
HETATM    6  C4  UNL     1      12.174  16.788  -0.509  1.00  0.00     0.080 C
HETATM    7  C5  UNL     1      10.710  16.223  -0.394  1.00  0.00     0.062 C
HETATM    8  C6  UNL     1      11.044  15.008   0.409  1.00  0.00     0.288 C
HETATM    9  N3  UNL     1      11.784  15.621   1.519  1.00  0.00    -0.343 N
HETATM   10  C10 UNL     1      11.800  15.309   2.902  1.00  0.00     0.128 C
ENDROOT
BRANCH   8  11
HETATM   11  N2  UNL     1      10.017  14.165   0.852  1.00  0.00    -0.050 N
ATOM     12  H22 UNL     1       9.996  13.300   0.311  1.00  0.00     0.280 HD
ATOM     13  H21 UNL     1      10.232  13.779   1.772  1.00  0.00     0.280 HD
BRANCH  11  14
HETATM   14  C7  UNL     1       8.736  14.805   0.850  1.00  0.00     0.188 A
HETATM   15  C8  UNL     1       7.976  14.895   2.161  1.00  0.00     0.035 A
HETATM   16  C9  UNL     1       7.442  14.129   0.926  1.00  0.00     0.035 A
ENDBRANCH  11  14
ENDBRANCH   8  11
TORSDOF 2
ENDMDL