MODEL 2
REMARK VINA RESULT: -6.660280197      0.935      1.016
REMARK  3 active torsions:
REMARK  status: ('A' for Active; 'I' for Inactive)
REMARK    1  A    between atoms: O1_1  and  C1_3
REMARK    2  A    between atoms: C3_5  and  O2_6
REMARK    3  A    between atoms: O2_6  and  C4_7
ROOT
HETATM    1  C1  UNL     1      13.742  16.820   1.667  1.00  0.00     0.259 C
HETATM    2  C2  UNL     1      12.243  16.799   1.785  1.00  0.00     0.094 C
HETATM    3  C3  UNL     1      12.003  15.568   2.655  1.00  0.00     0.150 C
HETATM    4  C10 UNL     1      13.385  15.231   3.103  1.00  0.00     0.203 C
HETATM    5  O3  UNL     1      14.134  16.420   2.965  1.00  0.00    -0.359 OA
ENDROOT
BRANCH   3   6
HETATM    6  O2  UNL     1      11.397  14.621   1.878  1.00  0.00    -0.378 OA
BRANCH   6   7
HETATM    7  C4  UNL     1      10.140  14.246   2.269  1.00  0.00     0.122 C
HETATM    8  C5  UNL     1       9.735  14.929   3.555  1.00  0.00     0.032 C
HETATM    9  C6  UNL     1       8.287  14.670   3.876  1.00  0.00     0.002 C
HETATM   10  C7  UNL     1       7.354  15.003   2.763  1.00  0.00     0.000 C
HETATM   11  C8  UNL     1       7.774  14.440   1.443  1.00  0.00     0.002 C
HETATM   12  C9  UNL     1       9.214  14.568   1.130  1.00  0.00     0.032 C
ENDBRANCH   6   7
ENDBRANCH   3   6
BRANCH   1  13
HETATM   13  O1  UNL     1      14.150  15.834   0.768  1.00  0.00    -0.371 OA
ATOM     14  H1  UNL     1      14.325  16.229  -0.077  1.00  0.00     0.212 HD
ENDBRANCH   1  13
TORSDOF 3
ENDMDL