MODEL 5
REMARK VINA RESULT: -5.701968226      3.203      4.128
REMARK  2 active torsions:
REMARK  status: ('A' for Active; 'I' for Inactive)
REMARK    1  A    between atoms: C2_3  and  N2_4
REMARK    2  A    between atoms: N2_4  and  C3_6
ROOT
HETATM    1  N1  UNL     1      14.702  13.126   4.632  1.00  0.00    -0.196 NA
HETATM    2  C1  UNL     1      13.612  13.543   4.573  1.00  0.00     0.078 C
HETATM    3  C2  UNL     1      12.260  14.079   4.498  1.00  0.00     0.239 C
ENDROOT
BRANCH   3   4
HETATM    4  N2  UNL     1      11.783  14.328   3.182  1.00  0.00    -0.401 N
ATOM      5  H2  UNL     1      12.441  14.409   2.407  1.00  0.00     0.154 HD
BRANCH   4   6
HETATM    6  C3  UNL     1      10.417  14.462   2.953  1.00  0.00     0.028 C
HETATM    7  C4  UNL     1      10.210  15.099   1.586  1.00  0.00     0.031 C
HETATM    8  C5  UNL     1       8.768  14.737   1.190  1.00  0.00     0.008 C
HETATM    9  C6  UNL     1       8.262  14.043   2.408  1.00  0.00     0.005 C
HETATM   10  C7  UNL     1       9.532  13.269   2.839  1.00  0.00     0.036 C
HETATM   11  C8  UNL     1       8.221  15.041   3.554  1.00  0.00     0.099 C
HETATM   12  C9  UNL     1       7.459  14.546   4.703  1.00  0.00     0.064 C
HETATM   13  C10 UNL     1       9.659  15.329   3.926  1.00  0.00     0.050 C
HETATM   14  N3  UNL     1       6.841  14.163   5.612  1.00  0.00    -0.197 NA
ENDBRANCH   4   6
ENDBRANCH   3   4
TORSDOF 2
ENDMDL