MODEL 4
REMARK VINA RESULT: -6.225380263      3.829      7.504
REMARK  10 active torsions:
REMARK  status: ('A' for Active; 'I' for Inactive)
REMARK    1  A    between atoms: C2_2  and  C4_4
REMARK    2  A    between atoms: C4_4  and  N1_5
REMARK    3  A    between atoms: N2_11  and  C8_12
REMARK    4  A    between atoms: C8_12  and  C9_13
REMARK    5  A    between atoms: C18_29  and  C19_30
REMARK    6  A    between atoms: C19_30  and  C20_31
REMARK    7  A    between atoms: C20_31  and  C21_32
REMARK    8  A    between atoms: C21_32  and  C22_33
REMARK    9  A    between atoms: C22_33  and  C23_34
REMARK   10  A    between atoms: C23_34  and  C24_35
ROOT
HETATM    1  N1  UNL     1      -2.928   5.033  20.908  1.00  0.00    -0.262 N
HETATM    2  C5  UNL     1      -1.798   4.347  21.379  1.00  0.00     0.369 C
HETATM    3  O1  UNL     1      -0.743   5.000  21.605  1.00  0.00    -0.238 OA
HETATM    4  O2  UNL     1      -1.747   2.957  21.626  1.00  0.00    -0.302 OA
HETATM    5  C6  UNL     1      -2.125   1.974  20.695  1.00  0.00     0.211 C
HETATM    6  C7  UNL     1      -1.707   0.597  21.082  1.00  0.00     0.300 C
HETATM    7  N2  UNL     1      -0.358   0.260  20.841  1.00  0.00     0.103 N
HETATM    8  C10 UNL     1       0.346  -0.264  21.958  1.00  0.00     0.300 C
HETATM    9  C11 UNL     1      -0.425  -0.439  23.201  1.00  0.00     0.001 C
HETATM   10  C12 UNL     1      -0.430   0.366  24.226  1.00  0.00    -0.003 C
HETATM   11  C13 UNL     1       0.323   1.628  24.381  1.00  0.00     0.194 C
HETATM   12  O5  UNL     1      -0.517   2.604  24.940  1.00  0.00    -0.385 OA
HETATM   13  C14 UNL     1      -0.301   2.810  26.282  1.00  0.00     0.194 C
HETATM   14  C15 UNL     1      -1.497   3.564  26.837  1.00  0.00     0.193 C
HETATM   15  O6  UNL     1      -1.653   4.740  26.137  1.00  0.00    -0.387 OA
HETATM   16  C16 UNL     1      -2.963   5.192  26.122  1.00  0.00     0.195 C
HETATM   17  C17 UNL     1      -3.795   4.440  25.082  1.00  0.00     0.259 C
HETATM   18  N3  UNL     1      -3.426   4.877  23.752  1.00  0.00    -0.060 N
ATOM     19  H31 UNL     1      -2.562   4.447  23.419  1.00  0.00     0.278 HD
ATOM     20  H32 UNL     1      -3.112   5.847  23.725  1.00  0.00     0.278 HD
HETATM   21  C18 UNL     1      -4.558   4.624  22.876  1.00  0.00     0.277 C
HETATM   22  C25 UNL     1      -4.258   4.869  21.468  1.00  0.00     0.259 C
HETATM   23  O7  UNL     1      -5.237   4.951  20.664  1.00  0.00    -0.271 OA
ENDROOT
BRANCH  21  24
HETATM   24  C19 UNL     1      -5.023   3.233  23.115  1.00  0.00     0.043 C
BRANCH  24  25
HETATM   25  C20 UNL     1      -6.531   3.101  23.107  1.00  0.00     0.002 C
BRANCH  25  26
HETATM   26  C21 UNL     1      -6.951   2.046  22.069  1.00  0.00     0.000 C
BRANCH  26  27
HETATM   27  C22 UNL     1      -5.772   1.242  21.624  1.00  0.00     0.001 C
BRANCH  27  28
HETATM   28  C23 UNL     1      -5.731   1.026  20.137  1.00  0.00     0.011 C
BRANCH  28  29
HETATM   29  C24 UNL     1      -5.128  -0.306  19.787  1.00  0.00     0.086 C
HETATM   30  S1  UNL     1      -5.086  -1.321  21.292  1.00  0.00    -0.098 SA
ENDBRANCH  28  29
ENDBRANCH  27  28
ENDBRANCH  26  27
ENDBRANCH  25  26
ENDBRANCH  24  25
ENDBRANCH  21  24
BRANCH   1  31
HETATM   31  C4  UNL     1      -2.823   5.979  19.823  1.00  0.00     0.141 C
BRANCH  31  32
HETATM   32  C2  UNL     1      -2.681   7.406  20.154  1.00  0.00    -0.004 C
HETATM   33  C1  UNL     1      -3.755   8.356  19.812  1.00  0.00     0.011 C
HETATM   34  C3  UNL     1      -1.341   7.983  19.663  1.00  0.00     0.011 C
ENDBRANCH  31  32
ENDBRANCH   1  31
BRANCH   7  35
HETATM   35  C8  UNL     1       0.367   1.312  20.237  1.00  0.00     0.385 C
BRANCH  35  36
HETATM   36  C9  UNL     1       0.929   0.992  18.899  1.00  0.00     0.202 C
HETATM   37  O3  UNL     1       0.711   1.750  17.930  1.00  0.00    -0.647 OA
HETATM   38  O4  UNL     1       1.702  -0.134  18.672  1.00  0.00    -0.647 OA
ENDBRANCH  35  36
ENDBRANCH   7  35
TORSDOF 10
ENDMDL