MODEL 4
REMARK VINA RESULT: -6.675480885      2.935      7.457
REMARK  13 active torsions:
REMARK  status: ('A' for Active; 'I' for Inactive)
REMARK    1  A    between atoms: C2_2  and  C3_3
REMARK    2  A    between atoms: C2_2  and  C4_6
REMARK    3  A    between atoms: C3_3  and  O1_4
REMARK    4  A    between atoms: C4_6  and  O2_7
REMARK    5  A    between atoms: C4_6  and  C5_9
REMARK    6  A    between atoms: C5_9  and  C6_10
REMARK    7  A    between atoms: C6_10  and  C7_11
REMARK    8  A    between atoms: C19_26  and  O6_27
REMARK    9  A    between atoms: O6_27  and  C20_28
REMARK   10  A    between atoms: C20_28  and  C21_29
REMARK   11  A    between atoms: C21_29  and  C22_30
REMARK   12  A    between atoms: C22_30  and  C23_31
REMARK   13  A    between atoms: C23_31  and  S1_32
ROOT
HETATM    1  C7  UNL     1      -1.080   2.221  22.511  1.00  0.00     0.028 C
HETATM    2  C8  UNL     1      -1.850   0.913  22.392  1.00  0.00     0.024 C
HETATM    3  C9  UNL     1      -0.163   2.061  23.650  1.00  0.00     0.139 C
HETATM    4  O3  UNL     1       0.183   0.987  24.046  1.00  0.00    -0.297 OA
HETATM    5  C10 UNL     1       0.319   3.309  24.295  1.00  0.00     0.106 C
HETATM    6  C11 UNL     1      -0.966   3.973  24.719  1.00  0.00    -0.015 C
HETATM    7  C12 UNL     1      -2.019   4.005  23.943  1.00  0.00    -0.061 C
HETATM    8  C13 UNL     1      -3.262   4.686  24.444  1.00  0.00     0.103 C
HETATM    9  C14 UNL     1      -3.360   4.950  25.861  1.00  0.00     0.158 C
HETATM   10  O4  UNL     1      -2.635   5.834  26.450  1.00  0.00    -0.292 OA
HETATM   11  C15 UNL     1      -4.277   4.271  26.804  1.00  0.00     0.054 C
HETATM   12  C16 UNL     1      -5.397   3.762  26.312  1.00  0.00     0.054 C
HETATM   13  C17 UNL     1      -5.581   3.943  24.852  1.00  0.00     0.157 C
HETATM   14  O5  UNL     1      -6.747   4.242  24.459  1.00  0.00    -0.293 OA
HETATM   15  C18 UNL     1      -4.400   3.756  24.036  1.00  0.00     0.104 C
HETATM   16  C19 UNL     1      -4.511   3.890  22.567  1.00  0.00     0.135 C
HETATM   17  C24 UNL     1      -3.342   3.122  21.984  1.00  0.00     0.047 C
HETATM   18  C25 UNL     1      -1.999   3.406  22.590  1.00  0.00    -0.004 C
HETATM   19  C26 UNL     1      -1.402   4.487  21.651  1.00  0.00     0.021 C
ENDROOT
BRANCH   1  20
HETATM   20  C6  UNL     1      -0.214   2.300  21.248  1.00  0.00     0.020 C
BRANCH  20  21
HETATM   21  C5  UNL     1      -0.165   0.973  20.575  1.00  0.00     0.033 C
BRANCH  21  22
HETATM   22  C4  UNL     1      -0.649   1.094  19.135  1.00  0.00     0.124 C
BRANCH  22  23
HETATM   23  C2  UNL     1      -0.718  -0.289  18.531  1.00  0.00     0.034 C
HETATM   24  C1  UNL     1      -0.938  -0.283  17.051  1.00  0.00     0.015 C
BRANCH  23  25
HETATM   25  C3  UNL     1       0.578  -1.055  18.790  1.00  0.00     0.170 C
BRANCH  25  26
HETATM   26  O1  UNL     1       1.520  -0.710  17.852  1.00  0.00    -0.400 OA
ATOM     27  H1  UNL     1       2.392  -0.818  18.214  1.00  0.00     0.209 HD
ENDBRANCH  25  26
ENDBRANCH  23  25
ENDBRANCH  22  23
BRANCH  22  28
HETATM   28  O2  UNL     1       0.217   1.850  18.352  1.00  0.00    -0.395 OA
ATOM     29  H2  UNL     1       1.072   1.437  18.392  1.00  0.00     0.210 HD
ENDBRANCH  22  28
ENDBRANCH  21  22
ENDBRANCH  20  21
ENDBRANCH   1  20
BRANCH  16  30
HETATM   30  O6  UNL     1      -4.544   5.195  22.086  1.00  0.00    -0.385 OA
BRANCH  30  31
HETATM   31  C20 UNL     1      -5.029   5.247  20.803  1.00  0.00     0.168 C
BRANCH  31  32
HETATM   32  C21 UNL     1      -4.122   6.068  19.887  1.00  0.00     0.027 C
BRANCH  32  33
HETATM   33  C22 UNL     1      -3.685   7.293  20.616  1.00  0.00     0.020 C
BRANCH  33  34
HETATM   34  C23 UNL     1      -3.381   8.501  19.829  1.00  0.00     0.165 C
BRANCH  34  35
HETATM   35  S1  UNL     1      -1.684   8.615  19.367  1.00  0.00     0.101 S
HETATM   36  O7  UNL     1      -1.484   8.350  17.910  1.00  0.00    -0.595 OA
HETATM   37  O8  UNL     1      -0.903   7.629  20.226  1.00  0.00    -0.595 OA
HETATM   38  O9  UNL     1      -1.153  10.185  19.754  1.00  0.00    -0.595 OA
ENDBRANCH  34  35
ENDBRANCH  33  34
ENDBRANCH  32  33
ENDBRANCH  31  32
ENDBRANCH  30  31
ENDBRANCH  16  30
TORSDOF 13
ENDMDL