MODEL 3
REMARK VINA RESULT: -7.244327197      3.637     10.676
REMARK  12 active torsions:
REMARK  status: ('A' for Active; 'I' for Inactive)
REMARK    1  A    between atoms: C2_2  and  C3_3
REMARK    2  A    between atoms: C3_3  and  C4_4
REMARK    3  A    between atoms: C4_4  and  C5_5
REMARK    4  A    between atoms: C5_5  and  C6_6
REMARK    5  A    between atoms: C5_5  and  C15_22
REMARK       I    between atoms: C6_6  and  N1_8
REMARK       I    between atoms: N1_8  and  C7_10
REMARK    6  A    between atoms: C7_10  and  C8_12
REMARK    7  A    between atoms: C15_22  and  O6_23
REMARK    8  A    between atoms: C15_22  and  C16_25
REMARK    9  A    between atoms: C16_25  and  O7_26
REMARK   10  A    between atoms: C16_25  and  N2_28
REMARK   11  A    between atoms: C19_31  and  C20_32
REMARK   12  A    between atoms: C20_32  and  C21_34
ROOT
HETATM    1  C5  UNL     1      -2.977   4.277  21.117  1.00  0.00     0.111 C
ENDROOT
BRANCH   1   2
HETATM    2  C4  UNL     1      -4.021   4.991  20.236  1.00  0.00     0.020 C
BRANCH   2   3
HETATM    3  C3  UNL     1      -5.205   4.118  20.052  1.00  0.00     0.027 C
BRANCH   3   4
HETATM    4  C2  UNL     1      -6.359   4.674  20.824  1.00  0.00    -0.037 C
HETATM    5  C1  UNL     1      -7.143   3.910  21.536  1.00  0.00     0.007 C
ENDBRANCH   3   4
ENDBRANCH   2   3
ENDBRANCH   1   2
BRANCH   1   6
HETATM    6  C6  UNL     1      -1.660   4.446  20.492  1.00  0.00     0.231 C
HETATM    7  O1  UNL     1      -1.262   5.674  20.419  1.00  0.00    -0.273 OA
HETATM    8  N1  UNL     1      -0.814   3.478  19.990  1.00  0.00    -0.295 N
HETATM    9  C7  UNL     1      -1.063   2.116  19.893  1.00  0.00     0.253 C
ATOM     10  H1  UNL     1       0.094   3.799  19.653  1.00  0.00     0.171 HD
HETATM   11  O2  UNL     1      -2.094   1.541  20.254  1.00  0.00    -0.270 OA
BRANCH   9  12
HETATM   12  C8  UNL     1       0.004   1.248  19.298  1.00  0.00     0.219 C
HETATM   13  C9  UNL     1      -0.577  -0.071  18.835  1.00  0.00     0.078 C
HETATM   14  C10 UNL     1       0.185  -1.070  19.660  1.00  0.00     0.183 C
HETATM   15  O3  UNL     1       1.440  -1.354  19.119  1.00  0.00    -0.345 OA
HETATM   16  C14 UNL     1       0.601  -0.219  20.866  1.00  0.00     0.293 C
HETATM   17  C11 UNL     1       2.227  -1.607  20.240  1.00  0.00     0.160 C
HETATM   18  C12 UNL     1       2.201  -3.107  20.457  1.00  0.00     0.078 C
HETATM   19  C13 UNL     1       3.664  -1.124  20.014  1.00  0.00     0.078 C
HETATM   20  O4  UNL     1       1.717  -0.896  21.298  1.00  0.00    -0.324 OA
HETATM   21  O5  UNL     1       0.957   0.968  20.235  1.00  0.00    -0.344 OA
ENDBRANCH   9  12
ENDBRANCH   1   6
BRANCH   1  22
HETATM   22  C15 UNL     1      -2.985   4.839  22.507  1.00  0.00     0.180 C
BRANCH  22  23
HETATM   23  O6  UNL     1      -3.451   6.183  22.354  1.00  0.00    -0.390 OA
ATOM     24  H6  UNL     1      -4.131   6.280  23.011  1.00  0.00     0.210 HD
ENDBRANCH  22  23
BRANCH  22  25
HETATM   25  C16 UNL     1      -3.868   4.186  23.519  1.00  0.00     0.253 C
BRANCH  25  26
HETATM   26  O7  UNL     1      -4.033   2.835  23.233  1.00  0.00    -0.374 OA
ATOM     27  H7  UNL     1      -3.256   2.481  22.816  1.00  0.00     0.212 HD
ENDBRANCH  25  26
BRANCH  25  28
HETATM   28  N2  UNL     1      -3.292   4.285  24.819  1.00  0.00    -0.341 N
HETATM   29  C17 UNL     1      -2.033   3.727  25.064  1.00  0.00     0.093 C
HETATM   30  C18 UNL     1      -1.370   4.427  26.244  1.00  0.00     0.028 C
HETATM   31  C19 UNL     1      -2.137   4.649  27.323  1.00  0.00    -0.006 C
HETATM   32  C27 UNL     1      -3.543   4.211  27.258  1.00  0.00     0.087 C
HETATM   33  C28 UNL     1      -4.157   4.468  25.904  1.00  0.00     0.071 C
BRANCH  31  34
HETATM   34  C20 UNL     1      -1.546   5.323  28.494  1.00  0.00     0.160 C
HETATM   35  O8  UNL     1      -0.764   4.672  29.258  1.00  0.00    -0.292 OA
BRANCH  34  36
HETATM   36  C21 UNL     1      -1.836   6.715  28.805  1.00  0.00     0.060 C
HETATM   37  C22 UNL     1      -3.190   6.974  29.408  1.00  0.00     0.012 C
HETATM   38  C23 UNL     1      -3.188   6.376  30.803  1.00  0.00     0.001 C
HETATM   39  C24 UNL     1      -2.176   7.002  31.697  1.00  0.00     0.000 C
HETATM   40  C25 UNL     1      -0.795   7.062  31.088  1.00  0.00     0.001 C
HETATM   41  C26 UNL     1      -0.792   7.386  29.642  1.00  0.00     0.012 C
ENDBRANCH  34  36
ENDBRANCH  31  34
ENDBRANCH  25  28
ENDBRANCH  22  25
ENDBRANCH   1  22
TORSDOF 12
ENDMDL