MODEL 5
REMARK VINA RESULT: -6.580017184      1.173      3.056
REMARK  16 active torsions:
REMARK  status: ('A' for Active; 'I' for Inactive)
REMARK    1  A    between atoms: C2_2  and  C3_3
REMARK    2  A    between atoms: C3_3  and  C4_4
REMARK    3  A    between atoms: C4_4  and  S1_5
REMARK    4  A    between atoms: S1_5  and  N1_8
REMARK    5  A    between atoms: N1_8  and  C5_9
REMARK    6  A    between atoms: N1_8  and  C8_14
REMARK    7  A    between atoms: C5_9  and  C6_10
REMARK    8  A    between atoms: C6_10  and  C7_11
REMARK    9  A    between atoms: C7_11  and  O3_12
REMARK   10  A    between atoms: C8_14  and  C9_15
REMARK       I    between atoms: C9_15  and  N2_17
REMARK   11  A    between atoms: C14_22  and  C15_23
REMARK   12  A    between atoms: C15_23  and  N3_24
REMARK   13  A    between atoms: C16_25  and  O5_26
REMARK   14  A    between atoms: C19_30  and  O6_31
REMARK   15  A    between atoms: C20_33  and  C25_39
REMARK   16  A    between atoms: C22_36  and  C23_37
ROOT
HETATM    1  C9  UNL     1      -0.831   3.717  21.923  1.00  0.00     0.239 C
HETATM    2  O4  UNL     1      -0.131   3.415  20.931  1.00  0.00    -0.271 OA
HETATM    3  N2  UNL     1      -0.951   2.769  22.947  1.00  0.00    -0.344 N
HETATM    4  C10 UNL     1      -0.295   1.457  22.876  1.00  0.00     0.126 C
HETATM    5  C11 UNL     1      -1.382   0.482  22.462  1.00  0.00     0.020 C
HETATM    6  C12 UNL     1      -2.628   0.833  23.253  1.00  0.00     0.004 C
HETATM    7  C13 UNL     1      -2.258   1.594  24.523  1.00  0.00     0.027 C
HETATM    8  C14 UNL     1      -1.736   2.975  24.177  1.00  0.00     0.105 C
ENDROOT
BRANCH   8   9
HETATM    9  C15 UNL     1      -0.826   3.526  25.231  1.00  0.00     0.158 C
BRANCH   9  10
HETATM   10  N3  UNL     1      -1.498   4.219  26.306  1.00  0.00    -0.306 N
HETATM   11  C16 UNL     1      -2.556   5.070  26.120  1.00  0.00     0.151 A
HETATM   12  C17 UNL     1      -2.925   5.550  27.328  1.00  0.00     0.013 A
HETATM   13  C18 UNL     1      -2.081   4.992  28.293  1.00  0.00     0.033 A
HETATM   14  C22 UNL     1      -3.943   6.478  27.915  1.00  0.00     0.052 C
HETATM   15  C19 UNL     1      -1.216   4.177  27.617  1.00  0.00     0.153 A
HETATM   16  C20 UNL     1      -2.380   5.440  29.673  1.00  0.00     0.163 C
HETATM   17  O7  UNL     1      -3.721   5.186  29.953  1.00  0.00    -0.380 OA
HETATM   18  C21 UNL     1      -4.610   5.658  29.030  1.00  0.00     0.178 C
BRANCH  11  19
HETATM   19  O5  UNL     1      -3.182   5.415  24.924  1.00  0.00    -0.345 OA
ATOM     20  H5  UNL     1      -4.032   5.822  24.803  1.00  0.00     0.219 HD
ENDBRANCH  11  19
BRANCH  15  21
HETATM   21  O6  UNL     1      -0.222   3.454  28.288  1.00  0.00    -0.345 OA
ATOM     22  H6  UNL     1       0.285   3.697  29.054  1.00  0.00     0.219 HD
ENDBRANCH  15  21
BRANCH  16  23
HETATM   23  C25 UNL     1      -2.250   6.971  29.644  1.00  0.00     0.025 A
HETATM   24  C23 UNL     1      -0.820   7.382  29.565  1.00  0.00     0.004 A
HETATM   25  C24 UNL     1      -1.658   7.668  30.808  1.00  0.00     0.013 A
ENDBRANCH  16  23
ENDBRANCH   9  10
ENDBRANCH   8   9
BRANCH   1  26
HETATM   26  C8  UNL     1      -1.493   5.012  21.998  1.00  0.00     0.243 C
BRANCH  26  27
HETATM   27  N1  UNL     1      -2.379   5.303  20.872  1.00  0.00    -0.281 N
BRANCH  27  28
HETATM   28  S1  UNL     1      -3.796   4.509  20.890  1.00  0.00     0.232 S
HETATM   29  O1  UNL     1      -3.448   2.999  20.587  1.00  0.00    -0.205 OA
HETATM   30  O2  UNL     1      -4.622   4.868  19.566  1.00  0.00    -0.205 OA
BRANCH  28  31
HETATM   31  C4  UNL     1      -4.990   4.494  22.110  1.00  0.00     0.163 C
BRANCH  31  32
HETATM   32  C3  UNL     1      -5.273   3.386  23.024  1.00  0.00     0.016 C
BRANCH  32  33
HETATM   33  C2  UNL     1      -6.209   3.535  24.153  1.00  0.00    -0.004 C
HETATM   34  C1  UNL     1      -5.581   2.856  25.396  1.00  0.00     0.005 C
ENDBRANCH  32  33
ENDBRANCH  31  32
ENDBRANCH  28  31
ENDBRANCH  27  28
BRANCH  27  35
HETATM   35  C5  UNL     1      -1.762   5.943  19.805  1.00  0.00     0.078 C
BRANCH  35  36
HETATM   36  C6  UNL     1      -1.818   7.443  19.820  1.00  0.00     0.071 C
BRANCH  36  37
HETATM   37  C7  UNL     1      -3.094   8.119  19.562  1.00  0.00     0.169 C
BRANCH  37  38
HETATM   38  O3  UNL     1      -4.080   7.973  20.510  1.00  0.00    -0.401 OA
ATOM     39  H3  UNL     1      -4.873   8.483  20.389  1.00  0.00     0.209 HD
ENDBRANCH  37  38
ENDBRANCH  36  37
ENDBRANCH  35  36
ENDBRANCH  27  35
ENDBRANCH  26  27
ENDBRANCH   1  26
TORSDOF 16
ENDMDL