MODEL 4
REMARK VINA RESULT: -7.001095786      4.825     11.426
REMARK  13 active torsions:
REMARK  status: ('A' for Active; 'I' for Inactive)
REMARK    1  A    between atoms: C4_4  and  C5_5
REMARK    2  A    between atoms: C5_5  and  C7_7
REMARK    3  A    between atoms: C13_16  and  C14_17
REMARK    4  A    between atoms: C14_17  and  O2_18
REMARK    5  A    between atoms: C14_17  and  C15_20
REMARK    6  A    between atoms: C15_20  and  C16_21
REMARK    7  A    between atoms: C19_25  and  C20_26
REMARK    8  A    between atoms: C20_26  and  C21_27
REMARK    9  A    between atoms: C21_27  and  C22_28
REMARK   10  A    between atoms: C22_28  and  C23_29
REMARK   11  A    between atoms: C23_29  and  C24_30
REMARK   12  A    between atoms: C24_30  and  C25_31
REMARK   13  A    between atoms: C25_31  and  C26_32
ROOT
HETATM    1  C14 UNL     1      -1.317   2.758  20.736  1.00  0.00     0.133 C
ENDROOT
BRANCH   1   2
HETATM    2  C13 UNL     1      -2.071   2.785  22.043  1.00  0.00     0.112 C
HETATM    3  C10 UNL     1      -1.210   2.430  23.219  1.00  0.00     0.025 C
HETATM    4  C9  UNL     1      -1.830   1.283  24.001  1.00  0.00     0.008 C
HETATM    5  C11 UNL     1      -1.174   3.620  24.144  1.00  0.00     0.097 C
HETATM    6  C8  UNL     1      -2.771   2.020  24.937  1.00  0.00     0.011 C
HETATM    7  C7  UNL     1      -2.008   3.244  25.367  1.00  0.00     0.039 C
HETATM    8  N1  UNL     1      -1.865   4.663  23.413  1.00  0.00    -0.355 N
HETATM    9  C12 UNL     1      -2.630   4.126  22.345  1.00  0.00     0.225 C
ATOM     10  H1  UNL     1      -1.809   5.657  23.638  1.00  0.00     0.162 HD
HETATM   11  O1  UNL     1      -3.604   4.661  21.743  1.00  0.00    -0.273 OA
BRANCH   7  12
HETATM   12  C5  UNL     1      -1.164   3.050  26.554  1.00  0.00    -0.054 C
HETATM   13  C6  UNL     1       0.100   2.701  26.511  1.00  0.00     0.017 C
BRANCH  12  14
HETATM   14  C4  UNL     1      -1.782   3.252  27.917  1.00  0.00     0.165 C
HETATM   15  C3  UNL     1      -0.958   4.199  28.741  1.00  0.00     0.081 C
HETATM   16  C2  UNL     1      -1.548   5.550  28.519  1.00  0.00     0.011 C
HETATM   17  C1  UNL     1      -1.017   6.691  28.887  1.00  0.00     0.025 C
HETATM   18  C28 UNL     1      -2.802   5.294  27.822  1.00  0.00     0.289 C
HETATM   19  O8  UNL     1      -3.024   3.927  27.805  1.00  0.00    -0.307 OA
HETATM   20  O9  UNL     1      -3.517   6.233  27.339  1.00  0.00    -0.260 OA
ENDBRANCH  12  14
ENDBRANCH   7  12
ENDBRANCH   1   2
BRANCH   1  21
HETATM   21  O2  UNL     1      -0.097   3.456  20.882  1.00  0.00    -0.395 OA
ATOM     22  H2  UNL     1      -0.198   4.137  21.536  1.00  0.00     0.210 HD
ENDBRANCH   1  21
BRANCH   1  23
HETATM   23  C15 UNL     1      -1.056   1.385  20.233  1.00  0.00     0.054 C
BRANCH  23  24
HETATM   24  C16 UNL     1       0.399   1.076  20.064  1.00  0.00     0.157 C
HETATM   25  C17 UNL     1       0.738  -0.204  20.813  1.00  0.00     0.143 C
HETATM   26  O3  UNL     1      -0.072  -0.714  21.569  1.00  0.00    -0.297 OA
HETATM   27  C18 UNL     1       2.095  -0.762  20.550  1.00  0.00     0.111 C
HETATM   28  C19 UNL     1       2.086  -1.260  19.101  1.00  0.00     0.139 C
HETATM   29  O6  UNL     1       1.098  -0.555  18.365  1.00  0.00    -0.315 OA
HETATM   30  C27 UNL     1       0.799   0.777  18.655  1.00  0.00     0.270 C
HETATM   31  O7  UNL     1       0.843   1.716  17.831  1.00  0.00    -0.264 OA
BRANCH  28  32
HETATM   32  C20 UNL     1       1.901  -2.736  19.145  1.00  0.00     0.033 C
BRANCH  32  33
HETATM   33  C21 UNL     1       2.875  -3.533  18.332  1.00  0.00     0.006 C
BRANCH  33  34
HETATM   34  C22 UNL     1       2.060  -4.550  17.515  1.00  0.00     0.027 C
BRANCH  34  35
HETATM   35  C23 UNL     1       0.763  -4.053  17.050  1.00  0.00    -0.026 C
BRANCH  35  36
HETATM   36  C24 UNL     1       0.510  -3.520  15.718  1.00  0.00     0.003 C
BRANCH  36  37
HETATM   37  C25 UNL     1       0.224  -2.116  15.457  1.00  0.00     0.084 C
BRANCH  37  38
HETATM   38  C26 UNL     1      -1.109  -1.554  15.413  1.00  0.00     0.198 C
HETATM   39  O4  UNL     1      -1.457  -0.395  15.632  1.00  0.00    -0.645 OA
HETATM   40  O5  UNL     1      -2.194  -2.438  15.072  1.00  0.00    -0.645 OA
ENDBRANCH  37  38
ENDBRANCH  36  37
ENDBRANCH  35  36
ENDBRANCH  34  35
ENDBRANCH  33  34
ENDBRANCH  32  33
ENDBRANCH  28  32
ENDBRANCH  23  24
ENDBRANCH   1  23
TORSDOF 13
ENDMDL