MODEL 5
REMARK VINA RESULT: -7.564284538      3.614      7.373
REMARK  12 active torsions:
REMARK  status: ('A' for Active; 'I' for Inactive)
REMARK    1  A    between atoms: O1_2  and  C2_3
REMARK    2  A    between atoms: C2_3  and  C3_5
REMARK    3  A    between atoms: C3_5  and  C4_6
REMARK    4  A    between atoms: C3_5  and  N1_14
REMARK    5  A    between atoms: C4_6  and  C5_7
REMARK    6  A    between atoms: C5_7  and  C6_8
REMARK    7  A    between atoms: C6_8  and  C7_9
REMARK    8  A    between atoms: C7_9  and  C8_10
REMARK    9  A    between atoms: C8_10  and  C9_11
REMARK       I    between atoms: N1_14  and  C10_16
REMARK   10  A    between atoms: C10_16  and  C11_18
REMARK   11  A    between atoms: C11_18  and  C12_19
REMARK   12  A    between atoms: C14_26  and  C15_27
ROOT
HETATM    1  C12 UNL     1      -2.524   6.454  20.782  1.00  0.00     0.136 A
HETATM    2  C13 UNL     1      -2.799   7.786  20.173  1.00  0.00     0.246 A
HETATM    3  O6  UNL     1      -1.927   8.539  19.708  1.00  0.00    -0.271 OA
HETATM    4  N2  UNL     1      -4.198   7.956  20.258  1.00  0.00    -0.270 N
ATOM      5  H2  UNL     1      -4.726   8.763  19.926  1.00  0.00     0.190 HD
HETATM    6  N3  UNL     1      -4.721   6.849  20.865  1.00  0.00    -0.305 N
ATOM      7  H3  UNL     1      -5.717   6.728  21.047  1.00  0.00     0.186 HD
HETATM    8  C14 UNL     1      -3.815   5.956  21.191  1.00  0.00     0.029 A
ENDROOT
BRANCH   1   9
HETATM    9  C11 UNL     1      -1.711   5.691  19.812  1.00  0.00     0.122 C
BRANCH   9  10
HETATM   10  C10 UNL     1      -1.034   4.493  20.304  1.00  0.00     0.219 C
HETATM   11  N1  UNL     1      -1.338   3.174  19.842  1.00  0.00    -0.347 N
ATOM     12  H1  UNL     1      -2.066   3.055  19.137  1.00  0.00     0.163 HD
HETATM   13  O5  UNL     1      -0.138   4.594  21.171  1.00  0.00    -0.274 OA
BRANCH  11  14
HETATM   14  C3  UNL     1      -0.650   2.007  20.338  1.00  0.00     0.184 C
BRANCH  14  15
HETATM   15  C2  UNL     1       0.210   1.466  19.271  1.00  0.00     0.281 C
HETATM   16  O2  UNL     1       1.476   1.421  19.414  1.00  0.00    -0.263 OA
BRANCH  15  17
HETATM   17  O1  UNL     1      -0.290   0.976  18.062  1.00  0.00    -0.325 OA
HETATM   18  C1  UNL     1       0.119  -0.307  17.603  1.00  0.00     0.213 C
ENDBRANCH  15  17
ENDBRANCH  14  15
BRANCH  14  19
HETATM   19  C4  UNL     1      -1.634   0.974  20.870  1.00  0.00     0.035 C
BRANCH  19  20
HETATM   20  C5  UNL     1      -1.233   0.532  22.271  1.00  0.00     0.002 C
BRANCH  20  21
HETATM   21  C6  UNL     1      -0.483   1.680  22.912  1.00  0.00     0.001 C
BRANCH  21  22
HETATM   22  C7  UNL     1      -0.277   1.427  24.376  1.00  0.00     0.010 C
BRANCH  22  23
HETATM   23  C8  UNL     1       0.627   2.420  25.049  1.00  0.00     0.113 C
BRANCH  23  24
HETATM   24  C9  UNL     1       0.210   2.655  26.445  1.00  0.00     0.172 C
HETATM   25  O3  UNL     1      -0.729   3.456  26.731  1.00  0.00    -0.648 OA
HETATM   26  O4  UNL     1       0.866   1.982  27.461  1.00  0.00    -0.648 OA
ENDBRANCH  23  24
ENDBRANCH  22  23
ENDBRANCH  21  22
ENDBRANCH  20  21
ENDBRANCH  19  20
ENDBRANCH  14  19
ENDBRANCH  11  14
ENDBRANCH   9  10
ENDBRANCH   1   9
BRANCH   8  27
HETATM   27  C15 UNL     1      -4.220   4.696  21.907  1.00  0.00     0.107 C
HETATM   28  C16 UNL     1      -5.561   4.239  21.427  1.00  0.00     0.137 C
HETATM   29  O7  UNL     1      -6.583   4.633  21.951  1.00  0.00    -0.297 OA
HETATM   30  C17 UNL     1      -5.699   3.287  20.296  1.00  0.00     0.079 C
HETATM   31  C18 UNL     1      -6.269   1.954  20.714  1.00  0.00     0.011 C
HETATM   32  C19 UNL     1      -5.325   1.136  21.543  1.00  0.00    -0.016 C
HETATM   33  C20 UNL     1      -5.543  -0.324  21.206  1.00  0.00     0.010 C
HETATM   34  C21 UNL     1      -5.513   1.416  23.029  1.00  0.00     0.036 C
HETATM   35  C22 UNL     1      -4.311   2.209  23.566  1.00  0.00     0.126 C
HETATM   36  O8  UNL     1      -3.752   1.454  24.578  1.00  0.00    -0.385 OA
HETATM   37  C25 UNL     1      -4.709   3.544  24.072  1.00  0.00     0.021 C
HETATM   38  C23 UNL     1      -3.795   2.101  25.766  1.00  0.00     0.168 C
HETATM   39  C24 UNL     1      -4.187   3.517  25.493  1.00  0.00     0.034 C
HETATM   40  C26 UNL     1      -4.051   4.719  23.373  1.00  0.00     0.005 C
HETATM   41  C27 UNL     1      -2.566   4.739  23.695  1.00  0.00     0.011 C
ENDBRANCH   8  27
TORSDOF 12
ENDMDL