MODEL 3
REMARK VINA RESULT: -5.991274733      2.196      7.972
REMARK  16 active torsions:
REMARK  status: ('A' for Active; 'I' for Inactive)
REMARK    1  A    between atoms: O1_2  and  C2_3
REMARK    2  A    between atoms: C2_3  and  C3_5
REMARK    3  A    between atoms: C3_5  and  C4_6
REMARK    4  A    between atoms: C3_5  and  N1_9
REMARK       I    between atoms: N1_9  and  C8_11
REMARK    5  A    between atoms: C8_11  and  C9_13
REMARK    6  A    between atoms: N2_18  and  C14_19
REMARK    7  A    between atoms: C14_19  and  O4_20
REMARK    8  A    between atoms: C14_19  and  C15_22
REMARK    9  A    between atoms: C15_22  and  O5_23
REMARK   10  A    between atoms: C15_22  and  N3_25
REMARK   11  A    between atoms: N3_25  and  C16_27
REMARK   12  A    between atoms: C16_27  and  O6_28
REMARK   13  A    between atoms: C16_27  and  C17_30
REMARK   14  A    between atoms: C17_30  and  C18_31
REMARK   15  A    between atoms: C17_30  and  C21_34
REMARK   16  A    between atoms: C21_34  and  C24_37
ROOT
HETATM    1  C15 UNL     1       0.517  -0.622  21.770  1.00  0.00     0.167 C
ENDROOT
BRANCH   1   2
HETATM    2  C14 UNL     1       1.632  -1.533  21.723  1.00  0.00     0.296 C
BRANCH   2   3
HETATM    3  N2  UNL     1       1.703  -2.432  20.574  1.00  0.00    -0.348 N
HETATM    4  C9  UNL     1       1.900  -1.878  19.310  1.00  0.00     0.178 C
HETATM    5  C10 UNL     1       3.192  -2.203  18.588  1.00  0.00     0.035 C
HETATM    6  C11 UNL     1       3.773  -3.521  18.983  1.00  0.00     0.007 C
HETATM    7  C12 UNL     1       3.607  -3.911  20.409  1.00  0.00     0.044 C
HETATM    8  C13 UNL     1       2.216  -3.710  20.870  1.00  0.00     0.062 C
BRANCH   4   9
HETATM    9  C8  UNL     1       0.827  -2.468  18.387  1.00  0.00     0.243 C
HETATM   10  N1  UNL     1       0.145  -1.648  17.430  1.00  0.00    -0.340 N
HETATM   11  C7  UNL     1       0.256  -0.194  17.571  1.00  0.00     0.153 C
HETATM   12  O3  UNL     1       0.522  -3.679  18.432  1.00  0.00    -0.271 OA
BRANCH  10  13
HETATM   13  C3  UNL     1      -0.665  -2.257  16.404  1.00  0.00     0.190 C
BRANCH  13  14
HETATM   14  C2  UNL     1      -2.084  -1.975  16.388  1.00  0.00     0.281 C
HETATM   15  O2  UNL     1      -2.801  -2.814  15.715  1.00  0.00    -0.263 OA
BRANCH  14  16
HETATM   16  O1  UNL     1      -2.773  -0.952  16.981  1.00  0.00    -0.325 OA
HETATM   17  C1  UNL     1      -3.359  -1.215  18.273  1.00  0.00     0.213 C
ENDBRANCH  14  16
ENDBRANCH  13  14
BRANCH  13  18
HETATM   18  C4  UNL     1       0.020  -2.145  15.046  1.00  0.00     0.010 C
HETATM   19  C5  UNL     1       0.097  -3.490  14.355  1.00  0.00     0.012 C
HETATM   20  C6  UNL     1      -0.636  -1.172  14.117  1.00  0.00     0.012 C
ENDBRANCH  13  18
ENDBRANCH  10  13
ENDBRANCH   4   9
ENDBRANCH   2   3
BRANCH   2  21
HETATM   21  O4  UNL     1       1.473  -2.482  22.805  1.00  0.00    -0.369 OA
ATOM     22  H4  UNL     1       1.739  -1.955  23.549  1.00  0.00     0.212 HD
ENDBRANCH   2  21
ENDBRANCH   1   2
BRANCH   1  23
HETATM   23  O5  UNL     1      -0.574  -1.114  21.232  1.00  0.00    -0.346 OA
ATOM     24  H5  UNL     1      -0.416  -1.558  20.407  1.00  0.00     0.219 HD
ENDBRANCH   1  23
BRANCH   1  25
HETATM   25  N3  UNL     1       0.333   0.670  22.249  1.00  0.00    -0.317 N
ATOM     26  H3  UNL     1       0.864   0.801  23.110  1.00  0.00     0.169 HD
BRANCH  25  27
HETATM   27  C16 UNL     1      -0.337   1.829  21.928  1.00  0.00     0.145 C
BRANCH  27  28
HETATM   28  O6  UNL     1       0.135   2.399  20.832  1.00  0.00    -0.346 OA
ATOM     29  H6  UNL     1       0.691   3.146  21.022  1.00  0.00     0.219 HD
ENDBRANCH  27  28
BRANCH  27  30
HETATM   30  C17 UNL     1      -1.456   2.459  22.606  1.00  0.00    -0.012 C
BRANCH  30  31
HETATM   31  C18 UNL     1      -2.787   1.967  22.028  1.00  0.00     0.012 C
HETATM   32  C19 UNL     1      -2.736   1.656  20.559  1.00  0.00     0.014 C
HETATM   33  C20 UNL     1      -3.230   0.675  22.734  1.00  0.00     0.014 C
ENDBRANCH  30  31
BRANCH  30  34
HETATM   34  C21 UNL     1      -1.466   3.883  22.912  1.00  0.00     0.024 C
HETATM   35  C22 UNL     1      -2.714   4.097  23.826  1.00  0.00     0.027 C
HETATM   36  C23 UNL     1      -0.315   4.277  23.862  1.00  0.00     0.027 C
BRANCH  34  37
HETATM   37  C24 UNL     1      -1.618   4.910  21.873  1.00  0.00     0.038 A
HETATM   38  C25 UNL     1      -2.785   5.656  21.663  1.00  0.00     0.115 A
HETATM   39  N4  UNL     1      -2.624   6.464  20.584  1.00  0.00    -0.360 N
HETATM   40  C26 UNL     1      -1.376   6.247  20.099  1.00  0.00     0.180 A
ATOM     41  H4  UNL     1      -3.314   7.115  20.208  1.00  0.00     0.166 HD
HETATM   42  N5  UNL     1      -0.821   5.332  20.882  1.00  0.00    -0.354 N
ATOM     43  H5  UNL     1       0.126   4.980  20.742  1.00  0.00     0.166 HD
ENDBRANCH  34  37
ENDBRANCH  30  34
ENDBRANCH  27  30
ENDBRANCH  25  27
ENDBRANCH   1  25
TORSDOF 16
ENDMDL