MODEL 4
REMARK VINA RESULT: -7.137699509      3.679      8.693
REMARK  15 active torsions:
REMARK  status: ('A' for Active; 'I' for Inactive)
REMARK    1  A    between atoms: C2_2  and  C3_3
REMARK    2  A    between atoms: C3_3  and  C4_4
REMARK    3  A    between atoms: C4_4  and  N1_5
REMARK    4  A    between atoms: N1_5  and  C5_6
REMARK    5  A    between atoms: N1_5  and  C20_25
REMARK    6  A    between atoms: C5_6  and  C6_7
REMARK    7  A    between atoms: C5_6  and  C7_10
REMARK    8  A    between atoms: C6_7  and  O1_8
REMARK    9  A    between atoms: C7_10  and  O2_11
REMARK   10  A    between atoms: O2_11  and  C8_12
REMARK   11  A    between atoms: C8_12  and  C9_14
REMARK   12  A    between atoms: C20_25  and  C21_26
REMARK   13  A    between atoms: C20_25  and  C26_38
REMARK       I    between atoms: C21_26  and  N2_28
REMARK   14  A    between atoms: N2_28  and  C22_30
REMARK   15  A    between atoms: C25_35  and  O7_36
ROOT
HETATM    1  N1  UNL     1      -1.896   3.193  22.092  1.00  0.00    -0.391 N
ENDROOT
BRANCH   1   2
HETATM    2  C4  UNL     1      -0.867   2.717  21.229  1.00  0.00     0.118 C
BRANCH   2   3
HETATM    3  C3  UNL     1      -1.122   1.552  20.342  1.00  0.00     0.019 C
BRANCH   3   4
HETATM    4  C2  UNL     1      -0.445   1.586  19.001  1.00  0.00    -0.003 C
HETATM    5  C1  UNL     1      -0.632   0.273  18.273  1.00  0.00     0.005 C
ENDBRANCH   3   4
ENDBRANCH   2   3
ENDBRANCH   1   2
BRANCH   1   6
HETATM    6  C5  UNL     1      -1.617   3.189  23.444  1.00  0.00     0.128 C
BRANCH   6   7
HETATM    7  C6  UNL     1      -0.172   2.985  23.899  1.00  0.00     0.191 C
BRANCH   7   8
HETATM    8  O1  UNL     1       0.602   4.117  23.825  1.00  0.00    -0.399 OA
ATOM      9  H1  UNL     1       1.537   3.949  23.859  1.00  0.00     0.209 HD
ENDBRANCH   7   8
ENDBRANCH   6   7
BRANCH   6  10
HETATM   10  C7  UNL     1      -1.991   4.548  24.100  1.00  0.00     0.205 C
BRANCH  10  11
HETATM   11  O2  UNL     1      -1.794   4.425  25.518  1.00  0.00    -0.319 OA
BRANCH  11  12
HETATM   12  C8  UNL     1      -2.921   4.517  26.316  1.00  0.00     0.267 C
HETATM   13  O3  UNL     1      -3.999   4.063  25.866  1.00  0.00    -0.264 OA
BRANCH  12  14
HETATM   14  C9  UNL     1      -2.849   5.145  27.690  1.00  0.00     0.049 C
HETATM   15  C10 UNL     1      -4.134   5.882  27.913  1.00  0.00     0.020 C
HETATM   16  C11 UNL     1      -4.152   6.870  29.009  1.00  0.00     0.006 C
HETATM   17  C12 UNL     1      -3.197   6.697  30.126  1.00  0.00    -0.014 C
HETATM   18  C13 UNL     1      -1.856   7.258  29.762  1.00  0.00     0.009 C
HETATM   19  C17 UNL     1      -3.118   5.314  30.714  1.00  0.00     0.009 C
HETATM   20  C14 UNL     1      -1.024   6.314  28.965  1.00  0.00    -0.013 C
HETATM   21  C15 UNL     1      -0.820   5.053  29.756  1.00  0.00     0.009 C
HETATM   22  C19 UNL     1      -1.650   6.058  27.620  1.00  0.00     0.024 C
HETATM   23  C16 UNL     1      -2.148   4.425  30.007  1.00  0.00    -0.013 C
HETATM   24  C18 UNL     1      -2.745   4.044  28.683  1.00  0.00     0.024 C
ENDBRANCH  12  14
ENDBRANCH  11  12
ENDBRANCH  10  11
ENDBRANCH   6  10
ENDBRANCH   1   6
BRANCH   1  25
HETATM   25  C20 UNL     1      -3.168   3.402  21.511  1.00  0.00     0.175 C
BRANCH  25  26
HETATM   26  C21 UNL     1      -3.298   4.553  20.591  1.00  0.00     0.241 C
HETATM   27  O4  UNL     1      -4.182   4.598  19.645  1.00  0.00    -0.271 OA
HETATM   28  N2  UNL     1      -2.512   5.729  20.607  1.00  0.00    -0.349 N
ATOM     29  H2  UNL     1      -1.780   5.837  21.309  1.00  0.00     0.163 HD
BRANCH  28  30
HETATM   30  C22 UNL     1      -2.739   6.800  19.622  1.00  0.00     0.149 C
HETATM   31  C23 UNL     1      -3.357   7.999  20.259  1.00  0.00     0.141 C
HETATM   32  C24 UNL     1      -2.836   9.121  19.393  1.00  0.00     0.263 C
HETATM   33  O5  UNL     1      -3.257  10.314  19.347  1.00  0.00    -0.265 OA
HETATM   34  O6  UNL     1      -1.784   8.638  18.616  1.00  0.00    -0.288 OA
HETATM   35  C25 UNL     1      -1.427   7.332  19.060  1.00  0.00     0.289 C
BRANCH  35  36
HETATM   36  O7  UNL     1      -0.407   7.351  19.996  1.00  0.00    -0.369 OA
ATOM     37  H7  UNL     1      -0.213   6.492  20.351  1.00  0.00     0.212 HD
ENDBRANCH  35  36
ENDBRANCH  28  30
ENDBRANCH  25  26
BRANCH  25  38
HETATM   38  C26 UNL     1      -4.322   3.342  22.451  1.00  0.00     0.009 C
HETATM   39  C27 UNL     1      -5.289   4.445  22.533  1.00  0.00     0.012 C
HETATM   40  C28 UNL     1      -5.032   2.027  22.419  1.00  0.00     0.012 C
ENDBRANCH  25  38
ENDBRANCH   1  25
TORSDOF 15
ENDMDL