MODEL 4
REMARK VINA RESULT: -6.191961807      4.040      8.080
REMARK  13 active torsions:
REMARK  status: ('A' for Active; 'I' for Inactive)
REMARK    1  A    between atoms: C2_2  and  C3_3
REMARK    2  A    between atoms: C3_3  and  C4_4
REMARK    3  A    between atoms: C4_4  and  N1_5
REMARK    4  A    between atoms: C6_8  and  C7_9
REMARK    5  A    between atoms: C7_9  and  C8_10
REMARK       I    between atoms: N2_12  and  C10_14
REMARK    6  A    between atoms: C10_14  and  C11_16
REMARK    7  A    between atoms: C11_16  and  N3_18
REMARK       I    between atoms: N3_18  and  C13_20
REMARK    8  A    between atoms: C13_20  and  C14_22
REMARK    9  A    between atoms: C14_22  and  N4_24
REMARK       I    between atoms: N4_24  and  C16_26
REMARK   10  A    between atoms: C16_26  and  C17_28
REMARK   11  A    between atoms: C21_32  and  O5_33
REMARK   12  A    between atoms: N5_35  and  C22_36
REMARK   13  A    between atoms: C22_36  and  C23_37
ROOT
HETATM    1  C7  UNL     1      -2.547   4.354  24.346  1.00  0.00     0.032 C
HETATM    2  N2  UNL     1      -1.921   5.031  23.433  1.00  0.00    -0.328 N
ATOM      3  H2  UNL     1      -0.990   5.357  23.693  1.00  0.00     0.168 HD
HETATM    4  C10 UNL     1      -2.338   5.376  22.148  1.00  0.00     0.244 C
HETATM    5  O2  UNL     1      -3.378   6.039  21.858  1.00  0.00    -0.271 OA
ENDROOT
BRANCH   1   6
HETATM    6  C6  UNL     1      -1.889   4.122  25.629  1.00  0.00     0.106 A
HETATM    7  C5  UNL     1      -2.358   4.842  26.756  1.00  0.00     0.268 A
HETATM    8  N1  UNL     1      -1.861   4.652  27.980  1.00  0.00    -0.265 N
HETATM    9  O1  UNL     1      -3.270   5.672  26.531  1.00  0.00    -0.267 OA
HETATM   10  C26 UNL     1      -0.885   3.756  28.173  1.00  0.00     0.333 A
HETATM   11  N5  UNL     1      -0.412   3.053  27.138  1.00  0.00    -0.278 N
HETATM   12  O6  UNL     1      -0.406   3.580  29.356  1.00  0.00    -0.246 OA
HETATM   13  C21 UNL     1      -0.913   3.238  25.876  1.00  0.00     0.164 A
BRANCH   8  14
HETATM   14  C4  UNL     1      -2.364   5.413  29.071  1.00  0.00     0.137 C
BRANCH  14  15
HETATM   15  C3  UNL     1      -2.047   6.856  29.111  1.00  0.00     0.020 C
BRANCH  15  16
HETATM   16  C2  UNL     1      -0.705   7.243  29.624  1.00  0.00    -0.003 C
HETATM   17  C1  UNL     1      -0.946   8.358  30.660  1.00  0.00     0.005 C
ENDBRANCH  15  16
ENDBRANCH  14  15
ENDBRANCH   8  14
BRANCH  11  18
HETATM   18  C22 UNL     1       0.622   2.099  27.335  1.00  0.00     0.140 C
BRANCH  18  19
HETATM   19  C23 UNL     1       0.258   0.799  27.950  1.00  0.00    -0.004 C
HETATM   20  C24 UNL     1       1.410  -0.072  28.372  1.00  0.00     0.011 C
HETATM   21  C25 UNL     1      -0.718  -0.046  27.177  1.00  0.00     0.011 C
ENDBRANCH  18  19
ENDBRANCH  11  18
BRANCH  13  22
HETATM   22  O5  UNL     1      -0.365   2.456  24.835  1.00  0.00    -0.345 OA
ATOM     23  H5  UNL     1      -0.825   1.692  24.506  1.00  0.00     0.219 HD
ENDBRANCH  13  22
ENDBRANCH   1   6
BRANCH   1  24
HETATM   24  C8  UNL     1      -3.843   3.775  23.983  1.00  0.00     0.054 C
HETATM   25  C9  UNL     1      -3.673   2.293  23.666  1.00  0.00     0.011 C
ENDBRANCH   1  24
BRANCH   4  26
HETATM   26  C11 UNL     1      -1.527   4.959  20.952  1.00  0.00     0.172 C
HETATM   27  C12 UNL     1      -2.018   5.795  19.771  1.00  0.00     0.042 C
BRANCH  26  28
HETATM   28  N3  UNL     1      -1.680   3.552  20.636  1.00  0.00    -0.346 N
HETATM   29  C13 UNL     1      -0.853   2.599  21.245  1.00  0.00     0.240 C
HETATM   30  O3  UNL     1       0.043   2.945  22.087  1.00  0.00    -0.271 OA
ATOM     31  H3  UNL     1      -2.392   3.256  19.968  1.00  0.00     0.163 HD
BRANCH  29  32
HETATM   32  C14 UNL     1      -0.976   1.159  20.942  1.00  0.00     0.172 C
HETATM   33  C15 UNL     1      -0.967   0.930  19.434  1.00  0.00     0.042 C
BRANCH  32  34
HETATM   34  N4  UNL     1       0.075   0.421  21.593  1.00  0.00    -0.348 N
HETATM   35  C16 UNL     1      -0.040  -0.233  22.816  1.00  0.00     0.226 C
HETATM   36  O4  UNL     1      -1.099  -0.240  23.479  1.00  0.00    -0.273 OA
ATOM     37  H4  UNL     1       0.977   0.375  21.119  1.00  0.00     0.163 HD
BRANCH  35  38
HETATM   38  C17 UNL     1       1.147  -0.964  23.371  1.00  0.00     0.030 C
HETATM   39  C18 UNL     1       0.624  -2.228  24.029  1.00  0.00     0.024 C
HETATM   40  C19 UNL     1       2.118  -1.261  22.277  1.00  0.00     0.024 C
HETATM   41  C20 UNL     1       1.836  -0.166  24.447  1.00  0.00     0.024 C
ENDBRANCH  35  38
ENDBRANCH  32  34
ENDBRANCH  29  32
ENDBRANCH  26  28
ENDBRANCH   4  26
TORSDOF 13
ENDMDL