MODEL 4
REMARK VINA RESULT: -6.178658781      2.270      4.812
REMARK  14 active torsions:
REMARK  status: ('A' for Active; 'I' for Inactive)
REMARK    1  A    between atoms: C3_3  and  C4_4
REMARK    2  A    between atoms: C4_4  and  O1_5
REMARK    3  A    between atoms: C5_7  and  C6_8
REMARK    4  A    between atoms: C6_8  and  C8_10
REMARK    5  A    between atoms: C8_10  and  N1_11
REMARK    6  A    between atoms: N3_18  and  C14_19
REMARK    7  A    between atoms: C14_19  and  C15_20
REMARK    8  A    between atoms: C15_20  and  O2_21
REMARK    9  A    between atoms: C15_20  and  C16_23
REMARK   10  A    between atoms: C16_23  and  N4_24
REMARK   11  A    between atoms: C19_27  and  C20_28
REMARK   12  A    between atoms: C20_28  and  O3_31
REMARK   13  A    between atoms: C25_35  and  C26_36
REMARK   14  A    between atoms: C26_36  and  N5_37
ROOT
HETATM    1  C1  UNL     1      -3.050   0.039  20.004  1.00  0.00     0.051 C
HETATM    2  C2  UNL     1      -2.985   1.290  20.827  1.00  0.00    -0.027 A
HETATM    3  C3  UNL     1      -1.812   1.989  21.052  1.00  0.00    -0.004 A
HETATM    4  C5  UNL     1      -2.161   3.084  21.847  1.00  0.00     0.026 A
HETATM    5  N3  UNL     1      -3.496   3.013  22.111  1.00  0.00    -0.348 N
HETATM    6  C25 UNL     1      -3.998   1.952  21.480  1.00  0.00     0.046 A
ENDROOT
BRANCH   5   7
HETATM    7  C14 UNL     1      -4.253   3.766  23.135  1.00  0.00     0.166 C
BRANCH   7   8
HETATM    8  C15 UNL     1      -3.782   3.412  24.570  1.00  0.00     0.175 C
BRANCH   8   9
HETATM    9  O2  UNL     1      -4.205   2.087  24.719  1.00  0.00    -0.389 OA
ATOM     10  H2  UNL     1      -5.112   2.182  24.981  1.00  0.00     0.210 HD
ENDBRANCH   8   9
BRANCH   8  11
HETATM   11  C16 UNL     1      -4.463   4.320  25.547  1.00  0.00     0.096 C
BRANCH  11  12
HETATM   12  N4  UNL     1      -3.677   4.884  26.562  1.00  0.00    -0.371 N
HETATM   13  C17 UNL     1      -2.282   4.765  26.512  1.00  0.00     0.063 C
HETATM   14  C18 UNL     1      -1.693   5.263  27.828  1.00  0.00     0.052 C
HETATM   15  C19 UNL     1      -2.438   6.464  28.337  1.00  0.00     0.025 C
HETATM   16  C23 UNL     1      -3.937   6.262  28.438  1.00  0.00     0.028 C
HETATM   17  C24 UNL     1      -4.275   4.896  27.877  1.00  0.00     0.127 C
BRANCH  15  18
HETATM   18  C20 UNL     1      -1.958   6.853  29.685  1.00  0.00     0.054 C
HETATM   19  C21 UNL     1      -1.972   5.686  30.669  1.00  0.00     0.045 C
HETATM   20  C22 UNL     1      -0.615   7.510  29.746  1.00  0.00     0.045 C
BRANCH  18  21
HETATM   21  O3  UNL     1      -2.879   7.820  30.193  1.00  0.00    -0.390 OA
ATOM     22  H3  UNL     1      -2.493   8.184  30.980  1.00  0.00     0.210 HD
ENDBRANCH  18  21
ENDBRANCH  15  18
ENDBRANCH  11  12
ENDBRANCH   8  11
ENDBRANCH   7   8
ENDBRANCH   5   7
BRANCH   4  23
HETATM   23  C6  UNL     1      -1.260   4.214  22.096  1.00  0.00     0.060 C
HETATM   24  C7  UNL     1      -0.502   4.315  23.366  1.00  0.00     0.018 C
BRANCH  23  25
HETATM   25  C8  UNL     1      -1.997   5.579  22.043  1.00  0.00     0.282 C
BRANCH  25  26
HETATM   26  N1  UNL     1      -2.665   5.692  20.741  1.00  0.00     0.092 N
HETATM   27  C9  UNL     1      -3.568   6.781  20.595  1.00  0.00     0.302 C
HETATM   28  C10 UNL     1      -3.392   7.502  19.268  1.00  0.00     0.302 C
HETATM   29  N2  UNL     1      -2.043   7.954  19.092  1.00  0.00     0.087 N
HETATM   30  C11 UNL     1      -1.762   9.147  19.882  1.00  0.00     0.310 C
HETATM   31  C12 UNL     1      -1.086   6.894  19.310  1.00  0.00     0.302 C
HETATM   32  C13 UNL     1      -1.721   5.576  19.667  1.00  0.00     0.302 C
ENDBRANCH  25  26
ENDBRANCH  23  25
ENDBRANCH   4  23
BRANCH   6  33
HETATM   33  C26 UNL     1      -5.402   1.427  21.415  1.00  0.00     0.330 C
BRANCH  33  34
HETATM   34  N5  UNL     1      -6.090   1.843  20.245  1.00  0.00     0.094 N
HETATM   35  C27 UNL     1      -6.799   3.083  20.408  1.00  0.00     0.273 C
HETATM   36  C28 UNL     1      -7.613   2.825  21.650  1.00  0.00     0.032 C
HETATM   37  C29 UNL     1      -8.139   1.410  21.336  1.00  0.00     0.032 C
HETATM   38  C30 UNL     1      -7.333   0.935  20.176  1.00  0.00     0.273 C
ENDBRANCH  33  34
ENDBRANCH   6  33
BRANCH   3  39
HETATM   39  C4  UNL     1      -0.521   1.593  20.460  1.00  0.00     0.205 C
BRANCH  39  40
HETATM   40  O1  UNL     1      -0.362   2.321  19.215  1.00  0.00    -0.396 OA
ATOM     41  H1  UNL     1       0.527   2.655  19.185  1.00  0.00     0.209 HD
ENDBRANCH  39  40
ENDBRANCH   3  39
TORSDOF 14
ENDMDL