MODEL 4
REMARK VINA RESULT: -7.088947151      3.718      9.613
REMARK  5 active torsions:
REMARK  status: ('A' for Active; 'I' for Inactive)
REMARK       I    between atoms: C3_5  and  N3_7
REMARK       I    between atoms: N4_10  and  C6_11
REMARK       I    between atoms: C6_11  and  N5_13
REMARK    1  A    between atoms: N5_13  and  C7_15
REMARK    2  A    between atoms: C7_15  and  C8_16
REMARK    3  A    between atoms: C8_16  and  N6_17
REMARK    4  A    between atoms: C12_21  and  C13_22
REMARK    5  A    between atoms: C12_21  and  N7_25
REMARK       I    between atoms: N7_25  and  C16_27
ROOT
HETATM    1  C1  UNL     1      24.930 -17.803  26.893  1.00  0.00     0.037 C
HETATM    2  C2  UNL     1      23.926 -17.295  26.459  1.00  0.00     0.001 C
HETATM    3  N1  UNL     1      22.766 -16.706  25.937  1.00  0.00    -0.290 N
ATOM      4  H1  UNL     1      21.871 -16.831  26.411  1.00  0.00     0.178 HD
HETATM    5  C3  UNL     1      22.834 -16.004  24.856  1.00  0.00     0.199 C
HETATM    6  N2  UNL     1      24.100 -15.832  24.192  1.00  0.00    -0.063 NA
HETATM    7  N3  UNL     1      21.668 -15.404  24.322  1.00  0.00    -0.337 N
HETATM    8  C4  UNL     1      20.671 -14.701  25.095  1.00  0.00     0.147 C
HETATM    9  C5  UNL     1      20.222 -13.623  24.140  1.00  0.00     0.149 C
HETATM   10  N4  UNL     1      20.407 -14.182  22.825  1.00  0.00    -0.316 N
HETATM   11  C6  UNL     1      19.886 -13.693  21.601  1.00  0.00     0.319 C
HETATM   12  O1  UNL     1      20.124 -14.285  20.495  1.00  0.00    -0.247 OA
HETATM   13  N5  UNL     1      19.078 -12.530  21.525  1.00  0.00    -0.341 N
ATOM     14  H5  UNL     1      18.866 -12.031  22.389  1.00  0.00     0.164 HD
HETATM   15  C20 UNL     1      21.235 -15.364  22.945  1.00  0.00     0.256 C
ENDROOT
BRANCH  13  16
HETATM   16  C7  UNL     1      18.541 -12.019  20.290  1.00  0.00     0.152 C
BRANCH  16  17
HETATM   17  C8  UNL     1      17.356 -12.840  19.846  1.00  0.00     0.256 C
BRANCH  17  18
HETATM   18  N6  UNL     1      16.108 -12.160  20.007  1.00  0.00    -0.069 N
HETATM   19  C9  UNL     1      16.249 -10.712  19.947  1.00  0.00     0.272 C
HETATM   20  C10 UNL     1      15.131 -12.524  19.001  1.00  0.00     0.240 C
HETATM   21  C11 UNL     1      13.709 -12.310  19.472  1.00  0.00     0.072 C
HETATM   22  C12 UNL     1      13.406 -13.333  20.544  1.00  0.00     0.099 C
HETATM   23  C18 UNL     1      14.735 -13.802  21.096  1.00  0.00     0.072 C
HETATM   24  C19 UNL     1      15.572 -12.538  21.313  1.00  0.00     0.240 C
BRANCH  22  25
HETATM   25  C13 UNL     1      12.688 -12.657  21.653  1.00  0.00    -0.075 C
HETATM   26  C14 UNL     1      12.122 -12.095  22.555  1.00  0.00    -0.108 C
HETATM   27  C15 UNL     1      11.436 -11.391  23.641  1.00  0.00     0.112 C
ENDBRANCH  22  25
BRANCH  22  28
HETATM   28  N7  UNL     1      12.601 -14.421  20.083  1.00  0.00    -0.341 N
HETATM   29  C16 UNL     1      12.619 -15.651  20.768  1.00  0.00     0.214 C
HETATM   30  C17 UNL     1      11.798 -16.826  20.336  1.00  0.00     0.117 C
HETATM   31  O2  UNL     1      13.334 -15.835  21.795  1.00  0.00    -0.274 OA
ATOM     32  H7  UNL     1      12.013 -14.306  19.257  1.00  0.00     0.164 HD
ENDBRANCH  22  28
ENDBRANCH  17  18
ENDBRANCH  16  17
ENDBRANCH  13  16
TORSDOF 5
ENDMDL