MODEL 5
REMARK VINA RESULT: -7.325053938      3.199      5.378
REMARK  5 active torsions:
REMARK  status: ('A' for Active; 'I' for Inactive)
REMARK    1  A    between atoms: N2_4  and  N3_6
REMARK    2  A    between atoms: N3_6  and  C1_8
REMARK    3  A    between atoms: C1_8  and  C6_17
REMARK       I    between atoms: N4_9  and  C2_11
REMARK       I    between atoms: C2_11  and  N5_13
REMARK    4  A    between atoms: C6_17  and  N6_18
REMARK       I    between atoms: N6_18  and  C7_20
REMARK    5  A    between atoms: C7_20  and  C8_22
ROOT
HETATM    1  C1  UNL     1      17.329 -14.373  22.403  1.00  0.00     0.131 C
HETATM    2  N4  UNL     1      17.905 -13.834  23.415  1.00  0.00    -0.295 N
ATOM      3  H4  UNL     1      18.068 -12.827  23.391  1.00  0.00     0.172 HD
HETATM    4  C2  UNL     1      18.329 -14.545  24.565  1.00  0.00     0.323 C
HETATM    5  O1  UNL     1      17.665 -15.541  24.931  1.00  0.00    -0.247 OA
HETATM    6  N5  UNL     1      19.477 -14.146  25.289  1.00  0.00    -0.334 N
HETATM    7  C3  UNL     1      20.438 -13.086  25.149  1.00  0.00     0.129 C
HETATM    8  C4  UNL     1      20.924 -13.335  26.555  1.00  0.00     0.040 C
HETATM    9  C5  UNL     1      20.163 -14.621  26.455  1.00  0.00     0.129 C
ENDROOT
BRANCH   1  10
HETATM   10  N3  UNL     1      17.086 -15.776  22.400  1.00  0.00    -0.273 N
ATOM     11  H3  UNL     1      17.831 -16.421  22.134  1.00  0.00     0.190 HD
BRANCH  10  12
HETATM   12  N2  UNL     1      15.834 -16.267  22.759  1.00  0.00    -0.248 N
HETATM   13  N1  UNL     1      15.717 -17.216  23.590  1.00  0.00    -0.331 N
ATOM     14  H12 UNL     1      16.564 -17.615  23.994  1.00  0.00     0.178 HD
ATOM     15  H11 UNL     1      14.799 -17.576  23.854  1.00  0.00     0.178 HD
ATOM     16  H2  UNL     1      14.997 -15.856  22.346  1.00  0.00     0.207 HD
ENDBRANCH  10  12
ENDBRANCH   1  10
BRANCH   1  17
HETATM   17  C6  UNL     1      16.949 -13.495  21.276  1.00  0.00     0.118 C
HETATM   18  C9  UNL     1      17.084 -12.043  21.590  1.00  0.00     0.069 C
HETATM   19  C10 UNL     1      18.092 -11.475  20.671  1.00  0.00     0.240 C
HETATM   20  N7  UNL     1      18.730 -12.580  20.039  1.00  0.00    -0.064 N
HETATM   21  C11 UNL     1      20.032 -12.751  20.676  1.00  0.00     0.237 C
HETATM   22  C14 UNL     1      18.993 -12.354  18.631  1.00  0.00     0.237 C
HETATM   23  C15 UNL     1      17.886 -13.730  20.124  1.00  0.00     0.276 C
HETATM   24  C12 UNL     1      20.902 -11.791  19.841  1.00  0.00     0.029 C
HETATM   25  C13 UNL     1      20.490 -12.307  18.464  1.00  0.00     0.029 C
BRANCH  17  26
HETATM   26  N6  UNL     1      15.572 -13.846  20.915  1.00  0.00    -0.342 N
HETATM   27  C7  UNL     1      14.443 -13.233  21.488  1.00  0.00     0.228 C
HETATM   28  O2  UNL     1      14.576 -12.344  22.347  1.00  0.00    -0.273 OA
ATOM     29  H6  UNL     1      15.425 -14.571  20.213  1.00  0.00     0.163 HD
BRANCH  27  30
HETATM   30  C8  UNL     1      13.085 -13.628  21.084  1.00  0.00     0.187 C
HETATM   31 BR1  UNL     1      13.050 -14.437  19.333  1.00  0.00    -0.087 Br
ENDBRANCH  27  30
ENDBRANCH  17  26
ENDBRANCH   1  17
TORSDOF 5
ENDMDL