MODEL 3
REMARK VINA RESULT: -6.758488287      2.269      3.024
REMARK  5 active torsions:
REMARK  status: ('A' for Active; 'I' for Inactive)
REMARK    1  A    between atoms: C2_2  and  N1_3
REMARK    2  A    between atoms: N1_3  and  C3_4
REMARK    3  A    between atoms: C3_4  and  C4_5
REMARK    4  A    between atoms: C11_16  and  C12_17
REMARK    5  A    between atoms: C12_17  and  N3_18
ROOT
HETATM    1  C4  UNL     1      19.268 -12.034  19.844  1.00  0.00    -0.066 C
HETATM    2  C5  UNL     1      19.847 -11.950  18.799  1.00  0.00    -0.022 C
HETATM    3 BR1  UNL     1      20.728 -11.815  17.145  1.00  0.00     0.010 Br
ENDROOT
BRANCH   1   4
HETATM    4  C3  UNL     1      18.574 -12.161  21.115  1.00  0.00     0.335 C
BRANCH   4   5
HETATM    5  N1  UNL     1      17.743 -13.309  21.239  1.00  0.00    -0.014 N
HETATM    6  C6  UNL     1      18.245 -14.495  20.623  1.00  0.00     0.242 C
HETATM    7  C7  UNL     1      19.174 -15.317  21.450  1.00  0.00     0.028 C
HETATM    8  C8  UNL     1      19.878 -14.575  22.537  1.00  0.00     0.003 C
HETATM    9  C9  UNL     1      18.867 -13.864  23.371  1.00  0.00     0.028 C
HETATM   10  C10 UNL     1      17.577 -13.566  22.678  1.00  0.00     0.242 C
BRANCH   5  11
HETATM   11  C2  UNL     1      16.376 -13.017  20.768  1.00  0.00     0.368 C
HETATM   12  C1  UNL     1      15.484 -14.150  21.273  1.00  0.00     0.091 C
HETATM   13  N2  UNL     1      15.858 -11.799  21.299  1.00  0.00    -0.009 N
HETATM   14  C11 UNL     1      15.504 -10.906  20.251  1.00  0.00     0.316 C
ATOM     15  H22 UNL     1      15.077 -11.965  21.935  1.00  0.00     0.283 HD
ATOM     16  H21 UNL     1      16.504 -11.369  21.960  1.00  0.00     0.283 HD
HETATM   17  N5  UNL     1      16.195 -11.440  19.089  1.00  0.00    -0.328 N
HETATM   18  C18 UNL     1      16.291 -12.847  19.316  1.00  0.00     0.284 C
ATOM     19  H5  UNL     1      16.539 -10.920  18.282  1.00  0.00     0.164 HD
HETATM   20  O1  UNL     1      16.293 -13.701  18.371  1.00  0.00    -0.269 OA
BRANCH  14  21
HETATM   21  C12 UNL     1      14.039 -10.956  19.966  1.00  0.00     0.296 C
BRANCH  21  22
HETATM   22  N3  UNL     1      13.186 -10.987  21.052  1.00  0.00    -0.013 N
HETATM   23  C13 UNL     1      12.360 -12.144  21.314  1.00  0.00     0.269 C
HETATM   24  C14 UNL     1      11.674 -11.619  22.595  1.00  0.00     0.269 C
HETATM   25  N4  UNL     1      12.212 -10.291  22.596  1.00  0.00    -0.021 N
HETATM   26  C15 UNL     1      11.849  -9.355  23.541  1.00  0.00     0.276 C
HETATM   27  C16 UNL     1      13.642 -10.546  22.359  1.00  0.00     0.476 C
HETATM   28  C17 UNL     1      12.183  -9.915  21.173  1.00  0.00     0.476 C
ENDBRANCH  21  22
ENDBRANCH  14  21
ENDBRANCH   5  11
ENDBRANCH   4   5
ENDBRANCH   1   4
TORSDOF 5
ENDMDL