MODEL 5
REMARK VINA RESULT: -6.239544666      1.725      2.757
REMARK  6 active torsions:
REMARK  status: ('A' for Active; 'I' for Inactive)
REMARK    1  A    between atoms: N2_7  and  C7_9
REMARK    2  A    between atoms: C7_9  and  C8_10
REMARK    3  A    between atoms: C8_10  and  C9_12
REMARK    4  A    between atoms: C9_12  and  N3_13
REMARK    5  A    between atoms: C16_21  and  O1_22
REMARK    6  A    between atoms: C17_24  and  O2_26
ROOT
HETATM    1  N3  UNL     1      16.886 -13.387  20.492  1.00  0.00    -0.029 N
HETATM    2  C10 UNL     1      16.363 -13.453  19.142  1.00  0.00     0.269 C
HETATM    3  C11 UNL     1      15.542 -12.234  18.801  1.00  0.00     0.265 C
HETATM    4  N4  UNL     1      14.803 -11.809  19.974  1.00  0.00    -0.065 N
HETATM    5  C12 UNL     1      13.942 -10.720  19.535  1.00  0.00     0.272 C
HETATM    6  C13 UNL     1      15.620 -11.344  21.036  1.00  0.00     0.265 C
HETATM    7  C14 UNL     1      16.989 -12.021  20.958  1.00  0.00     0.269 C
HETATM    8  C15 UNL     1      13.953 -12.844  20.475  1.00  0.00     0.273 C
HETATM    9  C16 UNL     1      14.553 -13.976  21.179  1.00  0.00     0.207 C
HETATM   10  C17 UNL     1      15.991 -14.067  21.421  1.00  0.00     0.252 C
HETATM   11  C18 UNL     1      16.345 -15.552  21.514  1.00  0.00     0.082 C
ENDROOT
BRANCH   1  12
HETATM   12  C9  UNL     1      18.171 -14.007  20.490  1.00  0.00     0.259 C
BRANCH  12  13
HETATM   13  C8  UNL     1      19.289 -13.364  21.206  1.00  0.00     0.110 C
HETATM   14 BR1  UNL     1      20.550 -12.418  20.071  1.00  0.00    -0.088 Br
BRANCH  13  15
HETATM   15  C7  UNL     1      20.095 -14.475  21.853  1.00  0.00     0.257 C
BRANCH  15  16
HETATM   16  N2  UNL     1      20.426 -14.272  23.225  1.00  0.00    -0.038 N
HETATM   17  C2  UNL     1      20.302 -15.556  23.895  1.00  0.00     0.216 C
HETATM   18  C1  UNL     1      18.877 -15.948  24.170  1.00  0.00     0.042 C
HETATM   19  C3  UNL     1      21.043 -15.315  25.174  1.00  0.00     0.307 C
HETATM   20  N1  UNL     1      22.194 -14.556  24.694  1.00  0.00     0.112 N
HETATM   21  C4  UNL     1      23.244 -15.520  24.416  1.00  0.00     0.312 C
HETATM   22  C5  UNL     1      21.751 -13.863  23.516  1.00  0.00     0.507 C
HETATM   23  C6  UNL     1      19.481 -13.311  23.777  1.00  0.00     0.275 C
ENDBRANCH  15  16
ENDBRANCH  13  15
ENDBRANCH  12  13
ENDBRANCH   1  12
BRANCH  10  24
HETATM   24  O2  UNL     1      16.284 -13.551  22.695  1.00  0.00    -0.363 OA
ATOM     25  H2  UNL     1      15.842 -14.117  23.317  1.00  0.00     0.212 HD
ENDBRANCH  10  24
BRANCH   9  26
HETATM   26  O1  UNL     1      14.072 -15.197  20.623  1.00  0.00    -0.389 OA
ATOM     27  H1  UNL     1      13.559 -15.663  21.272  1.00  0.00     0.210 HD
ENDBRANCH   9  26
TORSDOF 6
ENDMDL