MODEL 3
REMARK VINA RESULT: -7.339313067      2.982      7.520
REMARK  6 active torsions:
REMARK  status: ('A' for Active; 'I' for Inactive)
REMARK    1  A    between atoms: C3_3  and  C4_4
REMARK    2  A    between atoms: C5_6  and  O1_7
REMARK    3  A    between atoms: N1_10  and  C7_11
REMARK    4  A    between atoms: C7_11  and  C8_12
REMARK    5  A    between atoms: C8_12  and  N2_13
REMARK    6  A    between atoms: N2_13  and  C9_15
ROOT
HETATM    1  C1  UNL     1      18.896 -17.464  24.365  1.00  0.00     0.015 C
HETATM    2  C2  UNL     1      19.168 -16.368  23.933  1.00  0.00    -0.074 C
HETATM    3  C3  UNL     1      19.511 -15.033  23.375  1.00  0.00     0.226 C
HETATM    4  C5  UNL     1      18.462 -14.069  23.852  1.00  0.00     0.194 C
HETATM    5  C6  UNL     1      17.438 -13.617  22.907  1.00  0.00     0.272 C
HETATM    6  N1  UNL     1      17.824 -13.231  21.598  1.00  0.00    -0.060 N
HETATM    7  C15 UNL     1      19.160 -12.781  21.413  1.00  0.00     0.265 C
HETATM    8  C16 UNL     1      20.061 -13.981  21.286  1.00  0.00     0.267 C
HETATM    9  N4  UNL     1      19.595 -15.156  21.969  1.00  0.00    -0.045 N
HETATM   10  C17 UNL     1      20.489 -16.232  21.574  1.00  0.00     0.274 C
HETATM   11  C18 UNL     1      18.288 -15.548  21.474  1.00  0.00     0.267 C
HETATM   12  C19 UNL     1      17.608 -14.423  20.752  1.00  0.00     0.265 C
ENDROOT
BRANCH   3  13
HETATM   13  C4  UNL     1      20.780 -14.629  24.091  1.00  0.00     0.141 C
HETATM   14 BR1  UNL     1      20.595 -13.178  25.323  1.00  0.00    -0.093 Br
ENDBRANCH   3  13
BRANCH   4  15
HETATM   15  O1  UNL     1      17.805 -14.663  24.946  1.00  0.00    -0.390 OA
ATOM     16  H1  UNL     1      17.379 -13.969  25.436  1.00  0.00     0.210 HD
ENDBRANCH   4  15
BRANCH   6  17
HETATM   17  C7  UNL     1      16.920 -12.193  21.052  1.00  0.00     0.257 C
BRANCH  17  18
HETATM   18  C8  UNL     1      15.556 -12.323  21.615  1.00  0.00     0.142 C
BRANCH  18  19
HETATM   19  N2  UNL     1      14.573 -11.596  20.901  1.00  0.00    -0.415 N
ATOM     20  H2  UNL     1      14.320 -11.880  19.954  1.00  0.00     0.153 HD
BRANCH  19  21
HETATM   21  C9  UNL     1      13.942 -10.485  21.490  1.00  0.00     0.088 A
HETATM   22  C10 UNL     1      12.697  -9.840  20.853  1.00  0.00     0.039 A
HETATM   23  C11 UNL     1      12.655 -10.568  22.134  1.00  0.00     0.014 A
HETATM   24  C12 UNL     1      11.868 -11.780  22.428  1.00  0.00     0.049 A
HETATM   25  C14 UNL     1      12.308  -9.889  23.428  1.00  0.00     0.227 A
HETATM   26  C13 UNL     1      11.588 -11.184  23.818  1.00  0.00     0.218 A
HETATM   27  N3  UNL     1      10.949  -9.885  23.871  1.00  0.00    -0.062 N
ATOM     28  H32 UNL     1      10.090  -9.521  23.458  1.00  0.00     0.278 HD
ATOM     29  H31 UNL     1      10.468  -9.382  24.617  1.00  0.00     0.278 HD
ENDBRANCH  19  21
ENDBRANCH  18  19
ENDBRANCH  17  18
ENDBRANCH   6  17
TORSDOF 6
ENDMDL