MODEL 5
REMARK VINA RESULT: -5.771705041      3.912      5.765
REMARK  7 active torsions:
REMARK  status: ('A' for Active; 'I' for Inactive)
REMARK    1  A    between atoms: N1_2  and  C4_5
REMARK    2  A    between atoms: C4_5  and  C5_6
REMARK    3  A    between atoms: C6_7  and  O1_8
REMARK    4  A    between atoms: C7_10  and  N2_11
REMARK    5  A    between atoms: C8_15  and  O2_16
REMARK    6  A    between atoms: C9_18  and  C10_19
REMARK    7  A    between atoms: C10_19  and  N3_20
ROOT
HETATM    1  C5  UNL     1      19.255 -14.927  21.851  1.00  0.00     0.057 C
HETATM    2  C6  UNL     1      18.698 -16.307  21.646  1.00  0.00     0.158 C
HETATM    3  C7  UNL     1      17.219 -16.423  21.899  1.00  0.00     0.241 C
HETATM    4  C8  UNL     1      16.435 -15.423  21.075  1.00  0.00     0.158 C
HETATM    5  C9  UNL     1      16.991 -14.045  21.154  1.00  0.00     0.057 C
HETATM    6  C18 UNL     1      18.502 -14.028  20.886  1.00  0.00     0.074 C
HETATM    7 BR1  UNL     1      19.097 -12.215  20.940  1.00  0.00    -0.090 Br
ENDROOT
BRANCH   5   8
HETATM    8  C10 UNL     1      16.388 -13.127  20.171  1.00  0.00     0.245 C
BRANCH   8   9
HETATM    9  N3  UNL     1      15.209 -12.418  20.480  1.00  0.00    -0.062 N
HETATM   10  C11 UNL     1      14.596 -12.714  21.741  1.00  0.00     0.265 C
HETATM   11  C12 UNL     1      13.223 -12.024  21.752  1.00  0.00     0.265 C
HETATM   12  N4  UNL     1      13.296 -10.786  20.999  1.00  0.00    -0.066 N
HETATM   13  C13 UNL     1      12.263  -9.883  21.391  1.00  0.00     0.272 C
HETATM   14  C14 UNL     1      13.340 -11.100  19.604  1.00  0.00     0.265 C
HETATM   15  C16 UNL     1      14.585 -10.189  21.339  1.00  0.00     0.265 C
HETATM   16  C15 UNL     1      14.206 -12.362  19.430  1.00  0.00     0.265 C
HETATM   17  C17 UNL     1      15.635 -10.994  20.608  1.00  0.00     0.265 C
ENDBRANCH   8   9
ENDBRANCH   5   8
BRANCH   4  18
HETATM   18  O2  UNL     1      16.383 -15.941  19.776  1.00  0.00    -0.393 OA
ATOM     19  H2  UNL     1      15.465 -16.103  19.592  1.00  0.00     0.210 HD
ENDBRANCH   4  18
BRANCH   3  20
HETATM   20  N2  UNL     1      16.828 -17.761  21.423  1.00  0.00    -0.070 N
ATOM     21  H23 UNL     1      17.239 -18.008  20.523  1.00  0.00     0.274 HD
ATOM     22  H22 UNL     1      17.243 -18.521  21.962  1.00  0.00     0.274 HD
ATOM     23  H21 UNL     1      15.808 -17.773  21.421  1.00  0.00     0.274 HD
ENDBRANCH   3  20
BRANCH   1  24
HETATM   24  C4  UNL     1      19.304 -14.405  23.216  1.00  0.00     0.244 C
BRANCH  24  25
HETATM   25  N1  UNL     1      20.503 -14.285  23.937  1.00  0.00    -0.078 N
HETATM   26  C1  UNL     1      20.908 -15.487  24.666  1.00  0.00     0.271 C
HETATM   27  C2  UNL     1      21.660 -13.804  23.268  1.00  0.00     0.271 C
HETATM   28  C3  UNL     1      20.209 -13.301  25.020  1.00  0.00     0.271 C
ENDBRANCH  24  25
ENDBRANCH   1  24
BRANCH   2  29
HETATM   29  O1  UNL     1      19.390 -17.333  22.212  1.00  0.00    -0.393 OA
ATOM     30  H1  UNL     1      18.876 -18.063  22.540  1.00  0.00     0.210 HD
ENDBRANCH   2  29
TORSDOF 7
ENDMDL