MODEL 2
REMARK VINA RESULT: -6.249666570      2.769      6.128
REMARK  6 active torsions:
REMARK  status: ('A' for Active; 'I' for Inactive)
REMARK    1  A    between atoms: C3_3  and  C4_4
REMARK    2  A    between atoms: C4_4  and  C5_5
REMARK    3  A    between atoms: C5_5  and  C6_6
REMARK    4  A    between atoms: N1_11  and  N2_12
REMARK       I    between atoms: N2_12  and  C10_14
REMARK    5  A    between atoms: C12_19  and  N5_20
REMARK    6  A    between atoms: N5_20  and  C15_23
ROOT
HETATM    1  C1  UNL     1      20.484 -13.136  25.248  1.00  0.00     0.112 C
HETATM    2  C2  UNL     1      19.690 -13.672  24.148  1.00  0.00    -0.111 C
HETATM    3  C3  UNL     1      19.009 -14.122  23.243  1.00  0.00    -0.104 C
ENDROOT
BRANCH   3   4
HETATM    4  C4  UNL     1      18.263 -14.693  22.170  1.00  0.00     0.136 C
BRANCH   4   5
HETATM    5  C5  UNL     1      17.470 -13.831  21.231  1.00  0.00     0.172 C
HETATM    6  C9  UNL     1      16.578 -12.828  21.981  1.00  0.00     0.160 C
HETATM    7  N1  UNL     1      15.246 -12.945  21.411  1.00  0.00    -0.172 NA
HETATM    8  C12 UNL     1      15.310 -13.849  20.304  1.00  0.00     0.487 C
HETATM    9  N6  UNL     1      16.397 -14.671  20.748  1.00  0.00    -0.018 N
HETATM   10  C17 UNL     1      15.823 -15.341  21.932  1.00  0.00     0.277 C
HETATM   11  C18 UNL     1      16.880 -15.654  19.885  1.00  0.00     0.277 C
BRANCH   5  12
HETATM   12  C6  UNL     1      18.353 -13.037  20.439  1.00  0.00     0.047 C
HETATM   13  C7  UNL     1      19.772 -13.507  20.192  1.00  0.00     0.030 C
HETATM   14  C8  UNL     1      18.603 -11.672  21.046  1.00  0.00     0.030 C
HETATM   15 BR1  UNL     1      17.763 -12.437  18.661  1.00  0.00    -0.084 Br
ENDBRANCH   5  12
BRANCH   7  16
HETATM   16  N2  UNL     1      14.715 -11.680  21.099  1.00  0.00    -0.289 N
HETATM   17  C10 UNL     1      13.688 -11.200  21.960  1.00  0.00     0.198 C
HETATM   18  N3  UNL     1      13.615  -9.821  22.263  1.00  0.00    -0.063 NA
HETATM   19  N4  UNL     1      12.809 -12.006  22.476  1.00  0.00    -0.368 N
HETATM   20  C11 UNL     1      11.770 -11.504  23.349  1.00  0.00     0.148 C
ATOM     21  H4  UNL     1      12.852 -13.003  22.263  1.00  0.00     0.161 HD
ATOM     22  H2  UNL     1      15.047 -11.138  20.301  1.00  0.00     0.183 HD
ENDBRANCH   7  16
BRANCH   8  23
HETATM   23  N5  UNL     1      14.101 -14.355  19.813  1.00  0.00    -0.031 N
HETATM   24  C13 UNL     1      13.420 -13.260  19.061  1.00  0.00     0.276 C
HETATM   25  C14 UNL     1      14.116 -15.391  18.801  1.00  0.00     0.276 C
BRANCH  23  26
HETATM   26  C15 UNL     1      13.078 -14.786  20.734  1.00  0.00     0.236 C
HETATM   27  C16 UNL     1      12.499 -16.161  20.433  1.00  0.00     0.035 C
ENDBRANCH  23  26
ENDBRANCH   8  23
ENDBRANCH   4   5
ENDBRANCH   3   4
TORSDOF 6
ENDMDL