MODEL 1
REMARK VINA RESULT: -6.970655774      0.000      0.000
REMARK  6 active torsions:
REMARK  status: ('A' for Active; 'I' for Inactive)
REMARK       I    between atoms: N1_2  and  C2_4
REMARK    1  A    between atoms: C2_4  and  C3_6
REMARK    2  A    between atoms: C3_6  and  C5_8
REMARK       I    between atoms: C5_8  and  N2_10
REMARK    3  A    between atoms: N2_10  and  C6_12
REMARK    4  A    between atoms: C7_15  and  C8_16
REMARK    5  A    between atoms: C8_16  and  C9_17
REMARK    6  A    between atoms: C12_22  and  C13_23
ROOT
HETATM    1  C6  UNL     1      13.848 -11.684  18.963  1.00  0.00     0.132 A
HETATM    2  N3  UNL     1      13.365 -10.710  19.739  1.00  0.00    -0.343 N
ATOM      3  H3  UNL     1      13.507  -9.739  19.462  1.00  0.00     0.167 HD
HETATM    4  C7  UNL     1      12.686 -10.981  20.894  1.00  0.00     0.027 A
HETATM    5  C10 UNL     1      12.488 -12.288  21.281  1.00  0.00     0.115 A
HETATM    6  N4  UNL     1      12.964 -13.285  20.516  1.00  0.00    -0.359 N
HETATM    7  C11 UNL     1      12.761 -14.672  20.916  1.00  0.00     0.155 C
HETATM    8  C12 UNL     1      13.623 -12.999  19.394  1.00  0.00     0.065 A
ENDROOT
BRANCH   1   9
HETATM    9  N2  UNL     1      14.470 -11.535  17.890  1.00  0.00    -0.311 N
HETATM   10  C5  UNL     1      15.788 -11.255  17.580  1.00  0.00     0.236 C
HETATM   11  O2  UNL     1      16.634 -10.807  18.388  1.00  0.00    -0.272 OA
ATOM     12  H2  UNL     1      13.879 -11.642  17.066  1.00  0.00     0.170 HD
BRANCH  10  13
HETATM   13  C3  UNL     1      16.249 -11.497  16.185  1.00  0.00     0.166 C
HETATM   14  C4  UNL     1      16.295 -13.001  15.959  1.00  0.00     0.030 C
BRANCH  13  15
HETATM   15  C2  UNL     1      15.363 -10.910  15.186  1.00  0.00     0.230 C
HETATM   16  N1  UNL     1      15.265 -11.473  13.898  1.00  0.00    -0.365 N
HETATM   17  C1  UNL     1      14.397 -10.923  12.872  1.00  0.00     0.149 C
ATOM     18  H1  UNL     1      15.825 -12.296  13.678  1.00  0.00     0.161 HD
HETATM   19  O1  UNL     1      14.673  -9.899  15.453  1.00  0.00    -0.273 OA
ENDBRANCH  13  15
ENDBRANCH  10  13
ENDBRANCH   1   9
BRANCH   8  20
HETATM   20  C13 UNL     1      14.136 -14.153  18.588  1.00  0.00     0.146 C
HETATM   21 BR2  UNL     1      15.846 -14.769  19.196  1.00  0.00    -0.090 Br
ENDBRANCH   8  20
BRANCH   4  22
HETATM   22  C8  UNL     1      12.145  -9.904  21.762  1.00  0.00     0.069 C
BRANCH  22  23
HETATM   23  C9  UNL     1      11.886 -10.365  23.170  1.00  0.00     0.091 C
HETATM   24 BR1  UNL     1      11.808  -8.753  24.274  1.00  0.00    -0.096 Br
ENDBRANCH  22  23
ENDBRANCH   4  22
TORSDOF 6
ENDMDL