MODEL 1
REMARK VINA RESULT: -8.105192551      0.000      0.000
REMARK  8 active torsions:
REMARK  status: ('A' for Active; 'I' for Inactive)
REMARK    1  A    between atoms: C2_2  and  C7_23
REMARK    2  A    between atoms: N1_3  and  N2_5
REMARK    3  A    between atoms: N2_5  and  C3_7
REMARK    4  A    between atoms: C4_12  and  N5_13
REMARK    5  A    between atoms: N5_13  and  N7_16
REMARK    6  A    between atoms: N7_16  and  N8_17
REMARK    7  A    between atoms: C8_26  and  N11_27
REMARK    8  A    between atoms: C10_34  and  N13_35
ROOT
HETATM    1  N5  UNL     1      69.898  37.557  35.390  1.00  0.00    -0.155 N
HETATM    2  C5  UNL     1      68.682  38.078  35.872  1.00  0.00     0.205 C
HETATM    3  N6  UNL     1      67.684  38.501  36.269  1.00  0.00    -0.170 NA
ENDROOT
BRANCH   1   4
HETATM    4  C4  UNL     1      70.397  37.903  34.100  1.00  0.00     0.167 A
HETATM    5  N4  UNL     1      69.818  37.376  33.012  1.00  0.00    -0.268 N
HETATM    6  N3  UNL     1      70.241  37.670  31.800  1.00  0.00    -0.129 N
ATOM      7  H4  UNL     1      69.034  36.733  33.125  1.00  0.00     0.189 HD
HETATM    8  C3  UNL     1      71.271  38.514  31.622  1.00  0.00     0.711 A
ATOM      9  H3  UNL     1      69.783  37.254  30.989  1.00  0.00     0.205 HD
HETATM   10  N9  UNL     1      71.863  39.053  32.697  1.00  0.00    -0.196 N
HETATM   11  C6  UNL     1      71.453  38.770  33.937  1.00  0.00     0.158 A
ATOM     12  H9  UNL     1      72.646  39.694  32.565  1.00  0.00     0.183 HD
BRANCH   8  13
HETATM   13  N2  UNL     1      71.698  38.814  30.439  1.00  0.00    -0.131 N
ATOM     14  H2  UNL     1      72.691  38.977  30.267  1.00  0.00     0.205 HD
BRANCH  13  15
HETATM   15  N1  UNL     1      70.776  38.909  29.417  1.00  0.00    -0.289 N
HETATM   16  C2  UNL     1      71.117  39.286  28.180  1.00  0.00     0.052 C
HETATM   17  C1  UNL     1      72.521  39.590  27.984  1.00  0.00     0.072 C
ATOM     18  H1  UNL     1      69.801  38.683  29.612  1.00  0.00     0.187 HD
BRANCH  16  19
HETATM   19  C7  UNL     1      70.009  39.329  27.260  1.00  0.00     0.111 A
HETATM   20  N10 UNL     1      69.746  40.474  26.542  1.00  0.00    -0.187 N
HETATM   21  C8  UNL     1      68.771  40.619  25.668  1.00  0.00     0.679 A
ATOM     22  H10 UNL     1      70.356  41.277  26.701  1.00  0.00     0.184 HD
HETATM   23  N12 UNL     1      67.963  39.570  25.451  1.00  0.00    -0.154 N
HETATM   24  C9  UNL     1      68.116  38.406  26.087  1.00  0.00     0.295 A
ATOM     25  H12 UNL     1      67.203  39.666  24.777  1.00  0.00     0.187 HD
HETATM   26  O1  UNL     1      67.388  37.406  25.914  1.00  0.00    -0.265 OA
HETATM   27  C10 UNL     1      69.180  38.279  27.027  1.00  0.00     0.200 A
BRANCH  21  28
HETATM   28  N11 UNL     1      68.588  41.749  25.029  1.00  0.00    -0.234 N
ATOM     29 2H11 UNL     1      68.921  42.630  25.421  1.00  0.00     0.174 HD
ATOM     30 1H11 UNL     1      68.113  41.779  24.127  1.00  0.00     0.174 HD
ENDBRANCH  21  28
BRANCH  27  31
HETATM   31  N13 UNL     1      69.307  37.039  27.682  1.00  0.00    -0.107 N
HETATM   32  O2  UNL     1      69.950  36.100  27.204  1.00  0.00    -0.531 OA
HETATM   33  O3  UNL     1      68.737  36.887  28.919  1.00  0.00    -0.531 OA
ENDBRANCH  27  31
ENDBRANCH  16  19
ENDBRANCH  13  15
ENDBRANCH   8  13
ENDBRANCH   1   4
BRANCH   1  34
HETATM   34  N7  UNL     1      70.596  36.685  36.216  1.00  0.00    -0.011 NA
BRANCH  34  35
HETATM   35  N8  UNL     1      70.637  35.413  35.642  1.00  0.00    -0.328 N
ATOM     36  H82 UNL     1      71.494  34.883  35.486  1.00  0.00     0.174 HD
ATOM     37  H81 UNL     1      69.693  35.106  35.408  1.00  0.00     0.174 HD
ENDBRANCH  34  35
ENDBRANCH   1  34
TORSDOF 8
ENDMDL