MODEL 3
REMARK VINA RESULT: -7.022348549      0.800      1.425
REMARK  8 active torsions:
REMARK  status: ('A' for Active; 'I' for Inactive)
REMARK    1  A    between atoms: C2_2  and  O1_3
REMARK    2  A    between atoms: C2_2  and  C3_5
REMARK    3  A    between atoms: C2_2  and  C4_8
REMARK    4  A    between atoms: C4_8  and  O4_9
REMARK    5  A    between atoms: C4_8  and  N1_11
REMARK    6  A    between atoms: N1_11  and  C5_13
REMARK    7  A    between atoms: N3_19  and  O6_20
REMARK    8  A    between atoms: N4_24  and  C10_25
ROOT
HETATM    1  C5  UNL     1      71.936  39.873  31.496  1.00  0.00     0.137 A
HETATM    2  C6  UNL     1      71.510  39.205  30.377  1.00  0.00     0.158 A
HETATM    3  C7  UNL     1      70.591  38.094  30.459  1.00  0.00     0.109 C
HETATM    4  N2  UNL     1      69.851  37.194  30.461  1.00  0.00    -0.191 NA
HETATM    5  C8  UNL     1      71.921  39.537  29.065  1.00  0.00     0.300 A
HETATM    6  O5  UNL     1      71.485  38.876  28.094  1.00  0.00    -0.264 OA
HETATM    7  N3  UNL     1      72.761  40.549  28.964  1.00  0.00    -0.132 N
HETATM    8  C9  UNL     1      73.199  41.227  30.043  1.00  0.00     0.359 A
HETATM    9  O7  UNL     1      73.988  42.146  29.709  1.00  0.00    -0.244 OA
HETATM   10  N4  UNL     1      72.813  40.922  31.310  1.00  0.00    -0.260 N
ENDROOT
BRANCH   1  11
HETATM   11  N1  UNL     1      71.511  39.522  32.750  1.00  0.00    -0.345 N
ATOM     12  H1  UNL     1      71.245  40.336  33.305  1.00  0.00     0.163 HD
BRANCH  11  13
HETATM   13  C4  UNL     1      71.346  38.312  33.471  1.00  0.00     0.264 C
BRANCH  13  14
HETATM   14  C2  UNL     1      70.039  38.237  34.310  1.00  0.00     0.185 C
HETATM   15  C1  UNL     1      69.095  39.357  33.970  1.00  0.00     0.063 C
BRANCH  14  16
HETATM   16  O1  UNL     1      69.400  37.057  33.757  1.00  0.00    -0.375 OA
ATOM     17  H1  UNL     1      69.948  36.823  33.018  1.00  0.00     0.211 HD
ENDBRANCH  14  16
BRANCH  14  18
HETATM   18  C3  UNL     1      70.228  38.027  35.723  1.00  0.00     0.213 C
HETATM   19  O2  UNL     1      69.965  38.954  36.566  1.00  0.00    -0.646 OA
HETATM   20  O3  UNL     1      70.693  36.859  36.271  1.00  0.00    -0.646 OA
ENDBRANCH  14  18
ENDBRANCH  13  14
BRANCH  13  21
HETATM   21  O4  UNL     1      72.263  38.304  34.563  1.00  0.00    -0.373 OA
ATOM     22  H4  UNL     1      73.056  38.176  34.054  1.00  0.00     0.212 HD
ENDBRANCH  13  21
ENDBRANCH  11  13
ENDBRANCH   1  11
BRANCH  10  23
HETATM   23  C10 UNL     1      73.325  41.685  32.354  1.00  0.00     0.125 C
HETATM   24  C11 UNL     1      73.178  43.164  32.059  1.00  0.00     0.055 C
HETATM   25  C12 UNL     1      72.443  41.545  33.647  1.00  0.00     0.055 C
HETATM   26  C13 UNL     1      74.631  41.343  32.898  1.00  0.00     0.090 C
HETATM   27  N5  UNL     1      75.660  41.059  33.362  1.00  0.00    -0.195 NA
ENDBRANCH  10  23
BRANCH   7  28
HETATM   28  O6  UNL     1      73.169  40.879  27.668  1.00  0.00    -0.276 OA
ATOM     29  H6  UNL     1      73.492  41.763  27.547  1.00  0.00     0.245 HD
ENDBRANCH   7  28
TORSDOF 8
ENDMDL