MODEL 1
REMARK VINA RESULT: -8.124489216      0.000      0.000
REMARK  6 active torsions:
REMARK  status: ('A' for Active; 'I' for Inactive)
REMARK    1  A    between atoms: C2_3  and  C3_4
REMARK    2  A    between atoms: C3_4  and  N2_5
REMARK    3  A    between atoms: N2_5  and  C4_7
REMARK    4  A    between atoms: C7_15  and  N6_16
REMARK    5  A    between atoms: C9_27  and  C10_28
REMARK    6  A    between atoms: N11_29  and  N12_31
REMARK       I    between atoms: N12_31  and  C11_33
ROOT
HETATM    1  N1  UNL     1      67.643  39.561  34.769  1.00  0.00    -0.197 NA
HETATM    2  C1  UNL     1      68.650  39.962  35.202  1.00  0.00     0.060 C
HETATM    3  C2  UNL     1      69.888  40.480  35.734  1.00  0.00     0.143 C
ENDROOT
BRANCH   3   4
HETATM    4  C3  UNL     1      70.738  41.120  34.645  1.00  0.00     0.135 C
BRANCH   4   5
HETATM    5  N2  UNL     1      71.817  40.278  34.239  1.00  0.00    -0.373 N
ATOM      6  H2  UNL     1      72.054  39.489  34.840  1.00  0.00     0.161 HD
BRANCH   5   7
HETATM    7  C4  UNL     1      72.512  40.443  33.168  1.00  0.00     0.133 A
HETATM    8  N3  UNL     1      73.536  41.307  33.095  1.00  0.00    -0.335 N
HETATM    9  C5  UNL     1      74.266  41.486  31.981  1.00  0.00     0.123 A
ATOM     10  H3  UNL     1      73.771  41.854  33.924  1.00  0.00     0.168 HD
HETATM   11  C6  UNL     1      75.326  42.376  31.895  1.00  0.00     0.162 A
HETATM   12  C8  UNL     1      73.974  40.764  30.844  1.00  0.00     0.174 A
HETATM   13  N4  UNL     1      75.623  43.115  33.064  1.00  0.00    -0.080 NA
HETATM   14  N5  UNL     1      76.023  42.511  30.748  1.00  0.00    -0.177 N
HETATM   15  C7  UNL     1      75.731  41.804  29.644  1.00  0.00     0.678 A
ATOM     16  H5  UNL     1      76.799  43.173  30.717  1.00  0.00     0.185 HD
HETATM   17  N7  UNL     1      74.692  40.929  29.719  1.00  0.00    -0.173 N
ATOM     18  H7  UNL     1      74.451  40.378  28.895  1.00  0.00     0.186 HD
HETATM   19  N8  UNL     1      72.953  39.899  30.908  1.00  0.00    -0.217 N
HETATM   20  N9  UNL     1      72.497  39.103  29.939  1.00  0.00    -0.233 N
HETATM   21  C12 UNL     1      72.210  39.716  32.038  1.00  0.00     0.133 A
HETATM   22  N10 UNL     1      71.487  38.413  30.402  1.00  0.00    -0.282 N
ATOM     23  H9  UNL     1      72.875  39.043  28.993  1.00  0.00     0.209 HD
HETATM   24  C9  UNL     1      71.288  38.768  31.689  1.00  0.00     0.099 A
ATOM     25  H10 UNL     1      70.944  37.725  29.880  1.00  0.00     0.188 HD
BRANCH  15  26
HETATM   26  N6  UNL     1      76.409  41.951  28.561  1.00  0.00    -0.234 N
ATOM     27  H62 UNL     1      76.222  42.718  27.914  1.00  0.00     0.174 HD
ATOM     28  H61 UNL     1      77.158  41.302  28.316  1.00  0.00     0.174 HD
ENDBRANCH  15  26
BRANCH  24  29
HETATM   29  C10 UNL     1      70.249  38.218  32.556  1.00  0.00     0.140 C
HETATM   30  N11 UNL     1      70.559  37.333  33.443  1.00  0.00    -0.306 N
ATOM     31  H11 UNL     1      71.523  37.014  33.544  1.00  0.00     0.186 HD
BRANCH  30  32
HETATM   32  N12 UNL     1      69.554  36.822  34.258  1.00  0.00    -0.254 N
HETATM   33  C11 UNL     1      69.732  36.693  35.659  1.00  0.00     0.347 C
HETATM   34  N13 UNL     1      68.657  36.163  36.425  1.00  0.00    -0.038 NA
HETATM   35  O1  UNL     1      70.808  37.033  36.234  1.00  0.00    -0.249 OA
ATOM     36  H12 UNL     1      68.670  36.535  33.839  1.00  0.00     0.191 HD
ENDBRANCH  30  32
ENDBRANCH  24  29
ENDBRANCH   5   7
ENDBRANCH   4   5
ENDBRANCH   3   4
TORSDOF 6
ENDMDL