MODEL 3
REMARK VINA RESULT: -6.019078246      2.467      5.012
REMARK  10 active torsions:
REMARK  status: ('A' for Active; 'I' for Inactive)
REMARK    1  A    between atoms: C2_2  and  N1_3
REMARK    2  A    between atoms: C3_4  and  C4_5
REMARK       I    between atoms: C4_5  and  N2_7
REMARK    3  A    between atoms: N2_7  and  N3_9
REMARK    4  A    between atoms: C5_13  and  C6_14
REMARK    5  A    between atoms: C5_13  and  O3_16
REMARK    6  A    between atoms: O3_16  and  C8_17
REMARK       I    between atoms: C8_17  and  N4_19
REMARK    7  A    between atoms: N4_19  and  N5_20
REMARK    8  A    between atoms: C9_24  and  O6_25
REMARK    9  A    between atoms: C9_24  and  C10_27
REMARK   10  A    between atoms: C10_27  and  O8_29
ROOT
HETATM    1  N1  UNL     1      68.591  39.884  26.502  1.00  0.00    -0.296 N
HETATM    2  C3  UNL     1      68.124  40.970  25.785  1.00  0.00     0.328 C
HETATM    3  O2  UNL     1      66.689  40.918  25.943  1.00  0.00    -0.297 OA
HETATM    4  C5  UNL     1      66.145  39.819  25.371  1.00  0.00     0.297 C
HETATM    5  O5  UNL     1      66.648  38.631  25.936  1.00  0.00    -0.267 OA
HETATM    6  C9  UNL     1      68.016  38.647  26.170  1.00  0.00     0.348 C
ENDROOT
BRANCH   4   7
HETATM    7  C6  UNL     1      66.324  39.695  23.877  1.00  0.00     0.098 C
HETATM    8  C7  UNL     1      65.503  38.512  23.369  1.00  0.00     0.013 C
ENDBRANCH   4   7
BRANCH   4   9
HETATM    9  O3  UNL     1      64.773  39.760  25.642  1.00  0.00    -0.227 OA
BRANCH   9  10
HETATM   10  C8  UNL     1      64.222  39.698  26.959  1.00  0.00     0.462 C
HETATM   11  O4  UNL     1      63.465  40.719  27.139  1.00  0.00    -0.219 OA
HETATM   12  N4  UNL     1      64.510  38.683  27.803  1.00  0.00    -0.266 NA
BRANCH  12  13
HETATM   13  N5  UNL     1      64.786  37.706  28.621  1.00  0.00    -0.275 N
ATOM     14  H52 UNL     1      64.701  38.371  27.853  1.00  0.00     0.191 HD
ATOM     15  H51 UNL     1      64.998  36.944  29.264  1.00  0.00     0.191 HD
ENDBRANCH  12  13
ENDBRANCH   9  10
ENDBRANCH   4   9
BRANCH   2  16
HETATM   16  C4  UNL     1      68.526  42.332  26.127  1.00  0.00     0.285 C
HETATM   17  O1  UNL     1      68.038  42.931  27.164  1.00  0.00    -0.267 OA
HETATM   18  N2  UNL     1      69.444  43.092  25.374  1.00  0.00    -0.273 N
ATOM     19  H2  UNL     1      69.851  42.658  24.545  1.00  0.00     0.189 HD
BRANCH  18  20
HETATM   20  N3  UNL     1      69.828  44.373  25.676  1.00  0.00    -0.342 N
ATOM     21  H32 UNL     1      69.085  45.025  25.928  1.00  0.00     0.176 HD
ATOM     22  H31 UNL     1      70.792  44.707  25.663  1.00  0.00     0.176 HD
ENDBRANCH  18  20
ENDBRANCH   2  16
BRANCH   6  23
HETATM   23  O6  UNL     1      68.630  38.015  25.075  1.00  0.00    -0.340 OA
ATOM     24  H6  UNL     1      69.244  38.569  24.609  1.00  0.00     0.215 HD
ENDBRANCH   6  23
BRANCH   6  25
HETATM   25  C10 UNL     1      68.192  37.713  27.344  1.00  0.00     0.345 C
HETATM   26  O7  UNL     1      67.586  37.871  28.420  1.00  0.00    -0.257 OA
BRANCH  25  27
HETATM   27  O8  UNL     1      69.046  36.637  27.254  1.00  0.00    -0.321 OA
HETATM   28  C11 UNL     1      69.983  36.314  28.239  1.00  0.00     0.213 C
ENDBRANCH  25  27
ENDBRANCH   6  25
BRANCH   1  29
HETATM   29  C2  UNL     1      69.897  39.804  26.972  1.00  0.00     0.063 C
HETATM   30  C1  UNL     1      70.190  40.326  28.351  1.00  0.00     0.055 C
ENDBRANCH   1  29
TORSDOF 10
ENDMDL