MODEL 1
REMARK VINA RESULT: -7.674214203      0.000      0.000
REMARK  6 active torsions:
REMARK  status: ('A' for Active; 'I' for Inactive)
REMARK    1  A    between atoms: N1_1  and  N2_4
REMARK    2  A    between atoms: C3_9  and  N4_10
REMARK    3  A    between atoms: N4_10  and  C4_12
REMARK    4  A    between atoms: C4_12  and  C5_13
REMARK       I    between atoms: N7_19  and  C7_21
REMARK       I    between atoms: C7_21  and  N8_23
REMARK    5  A    between atoms: N8_23  and  N9_25
REMARK    6  A    between atoms: C8_27  and  C9_28
ROOT
HETATM    1  C5  UNL     1      70.537  38.049  28.227  1.00  0.00     0.087 A
HETATM    2  N5  UNL     1      69.704  38.982  28.665  1.00  0.00    -0.294 N
ATOM      3  H5  UNL     1      69.682  39.896  28.214  1.00  0.00     0.187 HD
HETATM    4  N6  UNL     1      68.935  38.740  29.644  1.00  0.00    -0.279 N
ATOM      5  H6  UNL     1      68.292  39.454  29.984  1.00  0.00     0.189 HD
HETATM    6  C6  UNL     1      68.978  37.538  30.221  1.00  0.00     0.169 A
HETATM    7  N7  UNL     1      68.275  37.086  31.235  1.00  0.00    -0.286 N
ATOM      8  H7  UNL     1      68.405  36.138  31.587  1.00  0.00     0.172 HD
HETATM    9  C7  UNL     1      67.339  37.955  31.818  1.00  0.00     0.340 C
HETATM   10  O1  UNL     1      66.182  38.077  31.315  1.00  0.00    -0.245 OA
HETATM   11  N8  UNL     1      67.682  38.704  32.977  1.00  0.00    -0.252 N
ATOM     12  H8  UNL     1      68.610  38.610  33.388  1.00  0.00     0.191 HD
HETATM   13  S1  UNL     1      70.188  36.756  29.286  1.00  0.00    -0.036 SA
ENDROOT
BRANCH   1  14
HETATM   14  C4  UNL     1      71.505  38.165  27.102  1.00  0.00     0.204 C
BRANCH  14  15
HETATM   15  N4  UNL     1      72.032  39.480  27.001  1.00  0.00    -0.219 N
ATOM     16  H4  UNL     1      71.742  40.084  26.232  1.00  0.00     0.178 HD
BRANCH  15  17
HETATM   17  C3  UNL     1      72.962  39.960  27.965  1.00  0.00     0.690 C
HETATM   18  N2  UNL     1      72.894  41.274  28.496  1.00  0.00    -0.129 N
HETATM   19  C1  UNL     1      73.792  41.370  29.648  1.00  0.00     0.187 C
HETATM   20  C2  UNL     1      74.670  40.153  29.436  1.00  0.00     0.160 C
HETATM   21  N3  UNL     1      73.947  39.349  28.491  1.00  0.00    -0.223 N
ATOM     22  H3  UNL     1      74.196  38.386  28.264  1.00  0.00     0.177 HD
BRANCH  18  23
HETATM   23  N1  UNL     1      72.107  42.323  28.022  1.00  0.00    -0.329 N
ATOM     24  H12 UNL     1      71.115  42.472  28.207  1.00  0.00     0.177 HD
ATOM     25  H11 UNL     1      72.450  43.076  27.425  1.00  0.00     0.177 HD
ENDBRANCH  18  23
ENDBRANCH  15  17
ENDBRANCH  14  15
ENDBRANCH   1  14
BRANCH  11  26
HETATM   26  N9  UNL     1      66.754  39.561  33.547  1.00  0.00    -0.304 N
HETATM   27  C8  UNL     1      66.960  40.050  34.719  1.00  0.00     0.157 C
ATOM     28  H9  UNL     1      65.906  39.805  33.036  1.00  0.00     0.186 HD
BRANCH  27  29
HETATM   29  C9  UNL     1      68.150  39.734  35.483  1.00  0.00     0.148 A
HETATM   30  N10 UNL     1      69.230  40.515  35.631  1.00  0.00    -0.269 N
HETATM   31  N11 UNL     1      70.102  39.878  36.397  1.00  0.00    -0.007 NA
ATOM     32  H10 UNL     1      69.357  41.442  35.224  1.00  0.00     0.185 HD
HETATM   33  N12 UNL     1      69.615  38.697  36.750  1.00  0.00    -0.007 NA
HETATM   34  N13 UNL     1      68.415  38.619  36.182  1.00  0.00    -0.269 N
ATOM     35  H13 UNL     1      67.784  37.822  36.266  1.00  0.00     0.185 HD
ENDBRANCH  27  29
ENDBRANCH  11  26
TORSDOF 6
ENDMDL