MODEL 5
REMARK VINA RESULT: -7.137072722      0.971      1.117
REMARK  9 active torsions:
REMARK  status: ('A' for Active; 'I' for Inactive)
REMARK    1  A    between atoms: O1_2  and  C2_3
REMARK    2  A    between atoms: C2_3  and  C3_5
REMARK    3  A    between atoms: C5_11  and  N2_12
REMARK    4  A    between atoms: C5_11  and  C6_16
REMARK    5  A    between atoms: N3_18  and  N4_20
REMARK    6  A    between atoms: N4_20  and  C8_22
REMARK    7  A    between atoms: C8_22  and  O4_23
REMARK    8  A    between atoms: C8_22  and  C9_25
REMARK    9  A    between atoms: C11_27  and  O5_28
ROOT
HETATM    1  C3  UNL     1      69.139  38.178  27.065  1.00  0.00     0.322 A
HETATM    2  O3  UNL     1      69.543  37.572  28.295  1.00  0.00    -0.283 OA
HETATM    3  C4  UNL     1      70.648  38.044  28.990  1.00  0.00     0.186 C
HETATM    4  N1  UNL     1      71.010  37.558  30.128  1.00  0.00    -0.379 N
ATOM      5  H11 UNL     1      71.822  37.905  30.639  1.00  0.00     0.158 HD
ATOM      6  H12 UNL     1      70.492  36.798  30.569  1.00  0.00     0.158 HD
HETATM    7  C5  UNL     1      71.407  39.157  28.344  1.00  0.00     0.332 C
HETATM    8  O6  UNL     1      70.466  40.032  27.838  1.00  0.00    -0.301 OA
HETATM    9  C12 UNL     1      69.605  39.483  26.925  1.00  0.00     0.235 A
HETATM   10  C13 UNL     1      68.756  40.522  26.189  1.00  0.00     0.086 C
HETATM   11  O7  UNL     1      70.104  38.473  26.129  1.00  0.00    -0.299 OA
ENDROOT
BRANCH   7  12
HETATM   12  N2  UNL     1      72.282  38.632  27.311  1.00  0.00    -0.033 N
ATOM     13  H23 UNL     1      71.762  38.147  26.580  1.00  0.00     0.279 HD
ATOM     14  H22 UNL     1      72.687  39.374  26.740  1.00  0.00     0.279 HD
ATOM     15  H21 UNL     1      72.999  38.037  27.728  1.00  0.00     0.279 HD
ENDBRANCH   7  12
BRANCH   7  16
HETATM   16  C6  UNL     1      72.267  39.863  29.312  1.00  0.00     0.070 C
HETATM   17  C7  UNL     1      71.727  40.886  30.237  1.00  0.00     0.071 C
HETATM   18  N3  UNL     1      73.522  39.592  29.367  1.00  0.00    -0.306 N
ATOM     19  H3  UNL     1      73.875  38.885  28.722  1.00  0.00     0.186 HD
BRANCH  18  20
HETATM   20  N4  UNL     1      74.433  40.174  30.221  1.00  0.00    -0.307 N
ATOM     21  H4  UNL     1      74.313  40.024  31.222  1.00  0.00     0.183 HD
BRANCH  20  22
HETATM   22  C8  UNL     1      75.552  40.985  29.783  1.00  0.00     0.239 C
BRANCH  22  23
HETATM   23  O4  UNL     1      75.309  41.351  28.472  1.00  0.00    -0.375 OA
ATOM     24  H4  UNL     1      74.383  41.548  28.399  1.00  0.00     0.212 HD
ENDBRANCH  22  23
BRANCH  22  25
HETATM   25  C9  UNL     1      75.739  42.211  30.669  1.00  0.00     0.067 A
HETATM   26  C10 UNL     1      74.870  42.268  31.894  1.00  0.00     0.043 A
HETATM   27  C11 UNL     1      76.348  42.054  32.023  1.00  0.00     0.127 A
BRANCH  27  28
HETATM   28  O5  UNL     1      77.116  43.055  32.584  1.00  0.00    -0.395 OA
ATOM     29  H5  UNL     1      77.285  43.867  32.121  1.00  0.00     0.210 HD
ENDBRANCH  27  28
ENDBRANCH  22  25
ENDBRANCH  20  22
ENDBRANCH  18  20
ENDBRANCH   7  16
BRANCH   1  30
HETATM   30  C2  UNL     1      67.852  37.733  26.525  1.00  0.00     0.328 C
HETATM   31  O2  UNL     1      66.889  37.567  27.332  1.00  0.00    -0.259 OA
BRANCH  30  32
HETATM   32  O1  UNL     1      67.600  37.476  25.191  1.00  0.00    -0.322 OA
HETATM   33  C1  UNL     1      66.252  37.272  24.748  1.00  0.00     0.213 C
ENDBRANCH  30  32
ENDBRANCH   1  30
TORSDOF 9
ENDMDL