MODEL 3
REMARK VINA RESULT: -7.029522869      2.098      3.369
REMARK  9 active torsions:
REMARK  status: ('A' for Active; 'I' for Inactive)
REMARK    1  A    between atoms: O1_2  and  C2_3
REMARK    2  A    between atoms: C2_3  and  C3_5
REMARK    3  A    between atoms: C3_5  and  O3_6
REMARK    4  A    between atoms: N1_8  and  N2_10
REMARK    5  A    between atoms: N2_10  and  C4_12
REMARK    6  A    between atoms: C6_14  and  S1_15
REMARK    7  A    between atoms: S1_15  and  N3_16
REMARK    8  A    between atoms: C7_21  and  S2_22
REMARK    9  A    between atoms: S2_22  and  N4_23
ROOT
HETATM    1  C4  UNL     1      71.465  39.184  32.647  1.00  0.00     0.093 A
HETATM    2  C5  UNL     1      70.889  38.803  31.456  1.00  0.00     0.063 A
HETATM    3  C6  UNL     1      71.364  39.222  30.203  1.00  0.00     0.121 A
HETATM    4  C7  UNL     1      72.462  40.054  30.227  1.00  0.00     0.174 A
HETATM    5  N5  UNL     1      73.005  40.411  31.422  1.00  0.00    -0.329 N
ATOM      6  H5  UNL     1      73.817  41.029  31.403  1.00  0.00     0.168 HD
HETATM    7  C8  UNL     1      72.557  40.015  32.616  1.00  0.00     0.128 A
HETATM    8  N6  UNL     1      73.175  40.435  33.673  1.00  0.00    -0.384 N
ATOM      9  H61 UNL     1      73.987  41.052  33.650  1.00  0.00     0.157 HD
ATOM     10  H62 UNL     1      72.833  40.133  34.586  1.00  0.00     0.157 HD
ENDROOT
BRANCH   1  11
HETATM   11  N2  UNL     1      70.968  38.749  33.904  1.00  0.00    -0.295 N
ATOM     12  H2  UNL     1      70.996  39.351  34.726  1.00  0.00     0.187 HD
BRANCH  11  13
HETATM   13  N1  UNL     1      70.432  37.439  33.962  1.00  0.00    -0.275 N
HETATM   14  C3  UNL     1      69.679  37.054  34.930  1.00  0.00     0.232 C
ATOM     15  H1  UNL     1      70.651  36.781  33.214  1.00  0.00     0.189 HD
BRANCH  14  16
HETATM   16  C2  UNL     1      69.315  37.924  36.043  1.00  0.00     0.335 C
HETATM   17  O2  UNL     1      70.238  38.446  36.748  1.00  0.00    -0.255 OA
BRANCH  16  18
HETATM   18  O1  UNL     1      67.999  38.201  36.359  1.00  0.00    -0.320 OA
HETATM   19  C1  UNL     1      67.353  39.396  35.956  1.00  0.00     0.213 C
ENDBRANCH  16  18
ENDBRANCH  14  16
BRANCH  14  20
HETATM   20  O3  UNL     1      69.204  35.755  34.897  1.00  0.00    -0.341 OA
ATOM     21  H3  UNL     1      68.367  35.573  34.487  1.00  0.00     0.219 HD
ENDBRANCH  14  20
ENDBRANCH  11  13
ENDBRANCH   1  11
BRANCH   3  22
HETATM   22  S1  UNL     1      70.594  38.716  28.751  1.00  0.00     0.259 S
HETATM   23  O4  UNL     1      70.060  39.875  27.914  1.00  0.00    -0.201 OA
HETATM   24  O5  UNL     1      69.294  37.999  29.158  1.00  0.00    -0.201 OA
BRANCH  22  25
HETATM   25  N3  UNL     1      71.437  37.572  27.820  1.00  0.00    -0.324 N
ATOM     26  H32 UNL     1      72.282  37.125  28.175  1.00  0.00     0.169 HD
ATOM     27  H31 UNL     1      71.047  37.368  26.900  1.00  0.00     0.169 HD
ENDBRANCH  22  25
ENDBRANCH   3  22
BRANCH   4  28
HETATM   28  S2  UNL     1      73.163  40.644  28.762  1.00  0.00     0.274 S
HETATM   29  O6  UNL     1      73.565  39.536  27.800  1.00  0.00    -0.199 OA
HETATM   30  O7  UNL     1      74.678  41.349  29.148  1.00  0.00    -0.199 OA
BRANCH  28  31
HETATM   31  N4  UNL     1      72.395  41.770  28.065  1.00  0.00    -0.323 N
ATOM     32  H42 UNL     1      72.859  42.635  27.790  1.00  0.00     0.169 HD
ATOM     33  H41 UNL     1      71.404  41.593  27.899  1.00  0.00     0.169 HD
ENDBRANCH  28  31
ENDBRANCH   4  28
TORSDOF 9
ENDMDL