MODEL 3
REMARK VINA RESULT: -7.929889652      3.000      4.322
REMARK  7 active torsions:
REMARK  status: ('A' for Active; 'I' for Inactive)
REMARK    1  A    between atoms: C2_3  and  N2_4
REMARK       I    between atoms: N2_4  and  C3_6
REMARK    2  A    between atoms: C5_10  and  C6_11
REMARK    3  A    between atoms: C6_11  and  O3_12
REMARK    4  A    between atoms: C6_11  and  N3_14
REMARK    5  A    between atoms: N3_14  and  N4_16
REMARK    6  A    between atoms: C7_17  and  C8_18
REMARK    7  A    between atoms: C10_29  and  N8_30
ROOT
HETATM    1  C1  UNL     1      64.341  38.569  28.525  1.00  0.00     0.177 C
HETATM    2  N1  UNL     1      65.544  37.814  28.860  1.00  0.00    -0.173 N
HETATM    3  C2  UNL     1      66.010  37.690  30.096  1.00  0.00     0.130 A
HETATM    4  C4  UNL     1      67.199  36.926  30.300  1.00  0.00     0.079 A
HETATM    5  C5  UNL     1      67.849  36.333  29.258  1.00  0.00     0.079 A
HETATM    6  N7  UNL     1      67.334  36.495  28.044  1.00  0.00    -0.191 N
ATOM      7  H7  UNL     1      67.801  36.062  27.247  1.00  0.00     0.184 HD
HETATM    8  C10 UNL     1      66.205  37.217  27.832  1.00  0.00     0.679 A
ENDROOT
BRANCH   5   9
HETATM    9  C6  UNL     1      69.123  35.510  29.463  1.00  0.00     0.285 C
BRANCH   9  10
HETATM   10  O3  UNL     1      69.343  35.012  28.161  1.00  0.00    -0.370 OA
ATOM     11  H3  UNL     1      70.174  34.564  28.270  1.00  0.00     0.212 HD
ENDBRANCH   9  10
BRANCH   9  12
HETATM   12  N3  UNL     1      70.211  36.344  29.795  1.00  0.00    -0.291 N
ATOM     13  H3  UNL     1      70.898  35.877  30.388  1.00  0.00     0.184 HD
BRANCH  12  14
HETATM   14  N4  UNL     1      70.557  37.634  29.506  1.00  0.00    -0.206 N
HETATM   15  C7  UNL     1      70.734  38.351  28.395  1.00  0.00     0.222 A
HETATM   16  N5  UNL     1      71.032  39.659  28.728  1.00  0.00    -0.276 N
HETATM   17  N6  UNL     1      71.042  39.747  30.025  1.00  0.00    -0.273 N
ATOM     18  H5  UNL     1      71.212  40.420  28.073  1.00  0.00     0.189 HD
HETATM   19  C9  UNL     1      70.762  38.555  30.528  1.00  0.00     0.214 A
ATOM     20  H6  UNL     1      71.232  40.592  30.564  1.00  0.00     0.189 HD
HETATM   21  S1  UNL     1      70.677  38.253  32.128  1.00  0.00    -0.037 SA
BRANCH  15  22
HETATM   22  C8  UNL     1      70.693  37.951  27.037  1.00  0.00     0.248 C
HETATM   23  O4  UNL     1      71.688  38.347  26.299  1.00  0.00    -0.642 OA
HETATM   24  O5  UNL     1      69.800  37.216  26.338  1.00  0.00    -0.642 OA
ENDBRANCH  15  22
ENDBRANCH  12  14
ENDBRANCH   9  12
ENDBRANCH   5   9
BRANCH   3  25
HETATM   25  N2  UNL     1      65.468  38.203  31.103  1.00  0.00    -0.286 N
HETATM   26  C3  UNL     1      65.482  39.342  31.839  1.00  0.00     0.289 C
HETATM   27  O1  UNL     1      64.630  40.293  31.675  1.00  0.00    -0.629 OA
HETATM   28  O2  UNL     1      66.410  39.635  32.868  1.00  0.00    -0.629 OA
ATOM     29  H2  UNL     1      64.794  37.548  31.500  1.00  0.00     0.173 HD
ENDBRANCH   3  25
BRANCH   8  30
HETATM   30  N8  UNL     1      65.721  37.363  26.638  1.00  0.00    -0.234 N
ATOM     31  H82 UNL     1      64.854  36.901  26.364  1.00  0.00     0.174 HD
ATOM     32  H81 UNL     1      66.238  37.952  25.984  1.00  0.00     0.174 HD
ENDBRANCH   8  30
TORSDOF 7
ENDMDL