MODEL 3
REMARK VINA RESULT: -7.699586593      2.983      6.375
REMARK  6 active torsions:
REMARK  status: ('A' for Active; 'I' for Inactive)
REMARK    1  A    between atoms: N1_2  and  N3_5
REMARK    2  A    between atoms: C3_10  and  C4_11
REMARK    3  A    between atoms: C7_21  and  N10_22
REMARK    4  A    between atoms: N10_22  and  N11_24
REMARK    5  A    between atoms: C8_26  and  C9_27
REMARK    6  A    between atoms: C9_27  and  N12_28
REMARK       I    between atoms: N12_28  and  C10_30
ROOT
HETATM    1  C1  UNL     1      67.925  39.897  28.549  1.00  0.00     0.193 C
HETATM    2  N1  UNL     1      68.663  39.342  27.434  1.00  0.00    -0.211 N
HETATM    3  C2  UNL     1      68.611  40.008  26.202  1.00  0.00     0.201 C
HETATM    4  N2  UNL     1      68.548  40.555  25.172  1.00  0.00    -0.170 NA
ENDROOT
BRANCH   2   5
HETATM    5  N3  UNL     1      69.419  38.171  27.547  1.00  0.00    -0.151 N
HETATM    6  N4  UNL     1      68.979  36.944  27.284  1.00  0.00     0.017 NA
HETATM    7  N5  UNL     1      70.010  36.140  27.519  1.00  0.00    -0.005 NA
HETATM    8  N6  UNL     1      71.064  36.850  27.919  1.00  0.00    -0.267 N
HETATM    9  C3  UNL     1      70.691  38.129  27.935  1.00  0.00     0.187 A
ATOM     10  H6  UNL     1      71.983  36.483  28.166  1.00  0.00     0.185 HD
BRANCH   9  11
HETATM   11  C4  UNL     1      71.571  39.242  28.328  1.00  0.00     0.126 A
HETATM   12  N7  UNL     1      71.990  40.186  27.492  1.00  0.00    -0.293 N
HETATM   13  N8  UNL     1      72.780  41.174  27.859  1.00  0.00    -0.283 N
ATOM     14  H7  UNL     1      71.687  40.143  26.519  1.00  0.00     0.187 HD
HETATM   15  C5  UNL     1      73.243  41.319  29.144  1.00  0.00     0.147 A
ATOM     16  H8  UNL     1      73.060  41.861  27.158  1.00  0.00     0.188 HD
HETATM   17  N9  UNL     1      73.998  42.084  29.945  1.00  0.00    -0.309 N
HETATM   18  C6  UNL     1      72.848  40.385  30.047  1.00  0.00     0.098 A
HETATM   19  S1  UNL     1      73.724  41.149  31.277  1.00  0.00    -0.007 SA
ATOM     20  H9  UNL     1      74.543  42.931  29.790  1.00  0.00     0.176 HD
HETATM   21  C7  UNL     1      72.013  39.340  29.652  1.00  0.00     0.102 A
BRANCH  21  22
HETATM   22  N10 UNL     1      71.625  38.458  30.448  1.00  0.00    -0.297 N
ATOM     23  H10 UNL     1      71.916  37.529  30.144  1.00  0.00     0.187 HD
BRANCH  22  24
HETATM   24  N11 UNL     1      70.943  38.403  31.571  1.00  0.00    -0.314 N
HETATM   25  C8  UNL     1      69.994  38.953  32.131  1.00  0.00     0.099 C
ATOM     26  H11 UNL     1      71.321  37.670  32.171  1.00  0.00     0.185 HD
BRANCH  25  27
HETATM   27  C9  UNL     1      69.595  38.481  33.497  1.00  0.00     0.168 C
BRANCH  27  28
HETATM   28  N12 UNL     1      70.245  37.261  33.878  1.00  0.00    -0.360 N
HETATM   29  C10 UNL     1      70.397  36.913  35.238  1.00  0.00     0.182 C
HETATM   30  N13 UNL     1      70.542  35.635  35.531  1.00  0.00    -0.374 N
HETATM   31  N14 UNL     1      70.404  37.811  36.329  1.00  0.00    -0.064 NA
ATOM     32 2H13 UNL     1      70.536  34.986  34.744  1.00  0.00     0.158 HD
ATOM     33 1H13 UNL     1      70.651  35.383  36.514  1.00  0.00     0.158 HD
ATOM     34  H12 UNL     1      70.604  36.636  33.156  1.00  0.00     0.162 HD
ENDBRANCH  27  28
ENDBRANCH  25  27
ENDBRANCH  22  24
ENDBRANCH  21  22
ENDBRANCH   9  11
ENDBRANCH   2   5
TORSDOF 6
ENDMDL