MODEL 4
REMARK VINA RESULT: -7.776157014      2.703      6.975
REMARK  8 active torsions:
REMARK  status: ('A' for Active; 'I' for Inactive)
REMARK    1  A    between atoms: N1_2  and  C2_4
REMARK    2  A    between atoms: C4_6  and  N2_7
REMARK    3  A    between atoms: C5_13  and  C6_14
REMARK    4  A    between atoms: C6_14  and  N6_15
REMARK    5  A    between atoms: N6_15  and  C7_17
REMARK    6  A    between atoms: C8_20  and  N8_21
REMARK    7  A    between atoms: N8_21  and  N9_23
REMARK    8  A    between atoms: C11_35  and  N13_36
ROOT
HETATM    1  N2  UNL     1      73.958  40.940  31.601  1.00  0.00    -0.207 N
HETATM    2  N3  UNL     1      75.152  41.312  32.028  1.00  0.00     0.004 NA
HETATM    3  N4  UNL     1      75.232  41.141  33.345  1.00  0.00    -0.224 N
ATOM      4  H4  UNL     1      76.031  41.342  33.946  1.00  0.00     0.205 HD
HETATM    5  N5  UNL     1      74.063  40.658  33.712  1.00  0.00    -0.273 N
ATOM      6  H5  UNL     1      73.812  40.422  34.672  1.00  0.00     0.189 HD
HETATM    7  C5  UNL     1      73.236  40.517  32.647  1.00  0.00     0.137 A
ENDROOT
BRANCH   7   8
HETATM    8  C6  UNL     1      71.858  40.027  32.568  1.00  0.00     0.203 C
BRANCH   8   9
HETATM    9  N6  UNL     1      71.740  38.648  32.243  1.00  0.00    -0.348 N
ATOM     10  H6  UNL     1      72.523  38.048  32.503  1.00  0.00     0.163 HD
BRANCH   9  11
HETATM   11  C7  UNL     1      70.758  38.085  31.663  1.00  0.00     0.241 A
HETATM   12  N7  UNL     1      70.948  37.411  30.533  1.00  0.00    -0.153 N
HETATM   13  C8  UNL     1      69.927  36.803  29.890  1.00  0.00     0.704 A
ATOM     14  H7  UNL     1      71.887  37.352  30.141  1.00  0.00     0.188 HD
HETATM   15  N10 UNL     1      68.716  36.919  30.460  1.00  0.00    -0.153 N
HETATM   16  C10 UNL     1      68.521  37.600  31.603  1.00  0.00     0.239 A
ATOM     17  H10 UNL     1      67.916  36.475  30.009  1.00  0.00     0.188 HD
HETATM   18  N11 UNL     1      67.382  37.729  32.169  1.00  0.00    -0.364 N
HETATM   19  O1  UNL     1      69.567  38.163  32.165  1.00  0.00    -0.246 OA
ATOM     20 2H11 UNL     1      66.570  37.291  31.733  1.00  0.00     0.159 HD
ATOM     21 1H11 UNL     1      67.233  38.245  33.036  1.00  0.00     0.159 HD
BRANCH  13  22
HETATM   22  N8  UNL     1      70.143  36.085  28.683  1.00  0.00    -0.135 N
HETATM   23  C9  UNL     1      69.994  36.777  27.420  1.00  0.00     0.197 C
BRANCH  22  24
HETATM   24  N9  UNL     1      70.491  34.738  28.694  1.00  0.00    -0.329 N
ATOM     25  H92 UNL     1      69.770  34.029  28.563  1.00  0.00     0.177 HD
ATOM     26  H91 UNL     1      71.457  34.441  28.832  1.00  0.00     0.177 HD
ENDBRANCH  22  24
ENDBRANCH  13  22
ENDBRANCH   9  11
ENDBRANCH   8   9
ENDBRANCH   7   8
BRANCH   1  27
HETATM   27  C4  UNL     1      73.488  40.972  30.262  1.00  0.00     0.146 A
HETATM   28  C3  UNL     1      72.916  42.089  29.688  1.00  0.00     0.099 A
HETATM   29  C2  UNL     1      72.461  42.108  28.381  1.00  0.00     0.120 A
HETATM   30  N14 UNL     1      72.597  40.982  27.667  1.00  0.00    -0.177 N
HETATM   31  C11 UNL     1      73.156  39.862  28.196  1.00  0.00     0.679 A
ATOM     32  H14 UNL     1      72.272  40.965  26.699  1.00  0.00     0.185 HD
HETATM   33  N12 UNL     1      73.587  39.885  29.477  1.00  0.00    -0.175 N
ATOM     34  H12 UNL     1      74.006  39.041  29.865  1.00  0.00     0.186 HD
BRANCH  29  35
HETATM   35  N1  UNL     1      71.920  43.176  27.848  1.00  0.00    -0.380 N
HETATM   36  C1  UNL     1      70.488  43.129  27.628  1.00  0.00     0.147 C
ATOM     37  H1  UNL     1      72.476  43.995  27.603  1.00  0.00     0.160 HD
ENDBRANCH  29  35
BRANCH  31  38
HETATM   38  N13 UNL     1      73.273  38.791  27.483  1.00  0.00    -0.234 N
ATOM     39 2H13 UNL     1      73.353  37.879  27.932  1.00  0.00     0.174 HD
ATOM     40 1H13 UNL     1      73.286  38.845  26.465  1.00  0.00     0.174 HD
ENDBRANCH  31  38
ENDBRANCH   1  27
TORSDOF 8
ENDMDL