MODEL 4
REMARK VINA RESULT: -7.443194851      2.923      6.398
REMARK  5 active torsions:
REMARK  status: ('A' for Active; 'I' for Inactive)
REMARK    1  A    between atoms: N2_7  and  C4_8
REMARK    2  A    between atoms: C4_8  and  C5_9
REMARK    3  A    between atoms: C5_9  and  C6_10
REMARK    4  A    between atoms: C6_10  and  C7_11
REMARK    5  A    between atoms: N4_16  and  O1_17
ROOT
HETATM    1  C4  UNL     1      18.497   3.577  14.661  1.00  0.00     0.129 C
ENDROOT
BRANCH   1   2
HETATM    2  N2  UNL     1      17.189   3.368  15.232  1.00  0.00    -0.353 N
HETATM    3  C3  UNL     1      16.995   2.786  16.426  1.00  0.00     0.095 A
HETATM    4  C2  UNL     1      15.729   2.605  16.937  1.00  0.00     0.065 A
HETATM    5  C1  UNL     1      14.647   3.024  16.215  1.00  0.00     0.100 A
HETATM    6  N1  UNL     1      13.446   2.866  16.671  1.00  0.00    -0.385 N
HETATM    7  N5  UNL     1      14.881   3.602  15.026  1.00  0.00    -0.339 N
ATOM      8  H12 UNL     1      13.268   2.428  17.574  1.00  0.00     0.157 HD
ATOM      9  H11 UNL     1      12.638   3.179  16.132  1.00  0.00     0.157 HD
HETATM   10  C10 UNL     1      16.118   3.773  14.538  1.00  0.00     0.184 A
ATOM     11  H5  UNL     1      14.087   3.923  14.472  1.00  0.00     0.168 HD
ENDBRANCH   1   2
BRANCH   1  12
HETATM   12  C5  UNL     1      19.502   3.809  15.742  1.00  0.00     0.026 C
BRANCH  12  13
HETATM   13  C6  UNL     1      20.748   4.482  15.289  1.00  0.00     0.063 C
BRANCH  13  14
HETATM   14  C7  UNL     1      20.838   5.916  15.560  1.00  0.00     0.060 A
HETATM   15  C8  UNL     1      21.367   6.585  16.644  1.00  0.00     0.048 A
HETATM   16  C9  UNL     1      21.223   7.944  16.459  1.00  0.00     0.112 A
HETATM   17  N3  UNL     1      20.613   8.061  15.272  1.00  0.00    -0.286 N
HETATM   18  N4  UNL     1      20.383   6.875  14.735  1.00  0.00    -0.168 N
ATOM     19  H3  UNL     1      20.360   8.949  14.839  1.00  0.00     0.188 HD
BRANCH  18  20
HETATM   20  O1  UNL     1      19.759   6.665  13.503  1.00  0.00    -0.268 OA
ATOM     21  H1  UNL     1      20.198   6.473  12.683  1.00  0.00     0.247 HD
ENDBRANCH  18  20
ENDBRANCH  13  14
ENDBRANCH  12  13
ENDBRANCH   1  12
TORSDOF 5
ENDMDL