MODEL 4
REMARK VINA RESULT: -7.087505754      3.726      6.044
REMARK  8 active torsions:
REMARK  status: ('A' for Active; 'I' for Inactive)
REMARK    1  A    between atoms: C5_9  and  C6_10
REMARK    2  A    between atoms: C6_10  and  C7_11
REMARK    3  A    between atoms: C7_11  and  C8_12
REMARK    4  A    between atoms: C8_12  and  C9_13
REMARK    5  A    between atoms: C9_13  and  C10_14
REMARK    6  A    between atoms: C11_15  and  C12_16
REMARK    7  A    between atoms: C13_17  and  C14_18
REMARK    8  A    between atoms: C14_18  and  N3_19
ROOT
HETATM    1  C7  UNL     1      20.775   4.914  14.635  1.00  0.00     0.001 C
ENDROOT
BRANCH   1   2
HETATM    2  C6  UNL     1      19.501   5.707  14.318  1.00  0.00     0.007 C
BRANCH   2   3
HETATM    3  C5  UNL     1      18.377   4.764  14.153  1.00  0.00     0.022 A
HETATM    4  C3  UNL     1      17.881   3.555  13.524  1.00  0.00     0.114 A
HETATM    5  N2  UNL     1      17.050   2.551  13.186  1.00  0.00    -0.330 N
HETATM    6  C4  UNL     1      17.155   4.387  14.427  1.00  0.00     0.067 A
HETATM    7  N1  UNL     1      15.906   2.708  13.800  1.00  0.00    -0.309 N
ATOM      8  H2  UNL     1      17.276   1.787  12.549  1.00  0.00     0.180 HD
HETATM    9  C2  UNL     1      15.900   3.809  14.576  1.00  0.00     0.022 A
ATOM     10  H1  UNL     1      15.114   2.073  13.704  1.00  0.00     0.186 HD
HETATM   11  C1  UNL     1      14.901   4.240  15.319  1.00  0.00     0.040 C
ENDBRANCH   2   3
ENDBRANCH   1   2
BRANCH   1  12
HETATM   12  C8  UNL     1      20.900   4.890  16.134  1.00  0.00     0.012 C
BRANCH  12  13
HETATM   13  C9  UNL     1      21.090   3.506  16.686  1.00  0.00     0.095 C
BRANCH  13  14
HETATM   14  C10 UNL     1      19.742   2.952  16.920  1.00  0.00    -0.092 C
HETATM   15  C11 UNL     1      18.633   2.513  17.121  1.00  0.00    -0.015 C
BRANCH  15  16
HETATM   16  C12 UNL     1      17.328   2.014  17.351  1.00  0.00    -0.013 C
HETATM   17  C13 UNL     1      16.206   1.599  17.532  1.00  0.00    -0.065 C
BRANCH  17  18
HETATM   18  C14 UNL     1      14.840   1.103  17.733  1.00  0.00     0.324 C
BRANCH  18  19
HETATM   19  N3  UNL     1      14.175   1.039  16.434  1.00  0.00    -0.069 N
ATOM     20  H33 UNL     1      14.754   1.406  15.679  1.00  0.00     0.275 HD
ATOM     21  H32 UNL     1      14.083   0.083  16.088  1.00  0.00     0.275 HD
ATOM     22  H31 UNL     1      13.276   1.516  16.507  1.00  0.00     0.275 HD
ENDBRANCH  18  19
ENDBRANCH  17  18
ENDBRANCH  15  16
ENDBRANCH  13  14
ENDBRANCH  12  13
ENDBRANCH   1  12
TORSDOF 8
ENDMDL