MODEL 4
REMARK VINA RESULT: -6.940860251      2.340      2.965
REMARK  5 active torsions:
REMARK  status: ('A' for Active; 'I' for Inactive)
REMARK    1  A    between atoms: O1_1  and  C1_3
REMARK    2  A    between atoms: C1_3  and  C2_4
REMARK    3  A    between atoms: C2_4  and  C3_5
REMARK    4  A    between atoms: C6_8  and  C7_9
REMARK    5  A    between atoms: N1_10  and  C8_12
ROOT
HETATM    1  C3  UNL     1      21.251   4.151  17.277  1.00  0.00    -0.056 A
HETATM    2  C4  UNL     1      21.303   5.140  16.310  1.00  0.00     0.008 A
HETATM    3  C5  UNL     1      20.409   5.103  15.271  1.00  0.00     0.013 A
HETATM    4  C6  UNL     1      19.436   4.098  15.146  1.00  0.00    -0.021 A
HETATM    5  C11 UNL     1      19.406   3.130  16.117  1.00  0.00     0.013 A
HETATM    6  C12 UNL     1      20.310   3.149  17.187  1.00  0.00     0.008 A
ENDROOT
BRANCH   4   7
HETATM    7  C7  UNL     1      18.517   4.118  14.018  1.00  0.00     0.101 C
HETATM    8  N1  UNL     1      17.901   3.066  13.637  1.00  0.00    -0.350 N
ATOM      9  H1  UNL     1      18.036   2.175  14.115  1.00  0.00     0.166 HD
BRANCH   8  10
HETATM   10  C8  UNL     1      17.005   3.178  12.505  1.00  0.00     0.121 A
HETATM   11  C9  UNL     1      15.648   2.988  12.476  1.00  0.00     0.137 A
HETATM   12  N2  UNL     1      15.229   3.200  11.206  1.00  0.00    -0.358 N
HETATM   13  C10 UNL     1      16.288   3.517  10.435  1.00  0.00     0.182 A
ATOM     14  H2  UNL     1      14.264   3.131  10.883  1.00  0.00     0.166 HD
HETATM   15  N3  UNL     1      17.357   3.499  11.242  1.00  0.00    -0.337 N
ATOM     16  H3  UNL     1      18.310   3.702  10.942  1.00  0.00     0.168 HD
ENDBRANCH   8  10
ENDBRANCH   4   7
BRANCH   1  17
HETATM   17  C2  UNL     1      22.205   4.183  18.394  1.00  0.00     0.064 C
BRANCH  17  18
HETATM   18  C1  UNL     1      23.639   4.038  17.935  1.00  0.00     0.168 C
BRANCH  18  19
HETATM   19  O1  UNL     1      23.762   2.862  17.200  1.00  0.00    -0.401 OA
ATOM     20  H1  UNL     1      24.265   3.040  16.415  1.00  0.00     0.209 HD
ENDBRANCH  18  19
ENDBRANCH  17  18
ENDBRANCH   1  17
TORSDOF 5
ENDMDL