MODEL 3
REMARK VINA RESULT: -7.187712284      2.109      4.083
REMARK  4 active torsions:
REMARK  status: ('A' for Active; 'I' for Inactive)
REMARK    1  A    between atoms: N2_10  and  C8_12
REMARK    2  A    between atoms: C8_12  and  C9_13
REMARK    3  A    between atoms: C9_13  and  C10_14
REMARK    4  A    between atoms: C10_14  and  N3_15
ROOT
HETATM    1  C1  UNL     1      19.373   2.008  18.365  1.00  0.00     0.018 C
HETATM    2  C2  UNL     1      19.323   2.533  17.270  1.00  0.00    -0.074 C
HETATM    3  C3  UNL     1      19.280   3.176  15.979  1.00  0.00     0.060 A
HETATM    4  C4  UNL     1      20.077   4.283  15.748  1.00  0.00     0.026 A
HETATM    5  C5  UNL     1      20.021   4.876  14.519  1.00  0.00     0.019 A
HETATM    6  C6  UNL     1      19.195   4.391  13.532  1.00  0.00     0.090 A
HETATM    7  N1  UNL     1      18.442   3.312  13.811  1.00  0.00    -0.351 N
ATOM      8  H1  UNL     1      17.832   2.958  13.075  1.00  0.00     0.166 HD
HETATM    9  C7  UNL     1      18.436   2.668  14.991  1.00  0.00     0.119 A
HETATM   10  N2  UNL     1      17.743   1.655  15.286  1.00  0.00    -0.375 N
ATOM     11  H2  UNL     1      17.869   1.299  16.233  1.00  0.00     0.161 HD
ENDROOT
BRANCH  10  12
HETATM   12  C8  UNL     1      16.816   0.944  14.485  1.00  0.00     0.123 C
BRANCH  12  13
HETATM   13  C9  UNL     1      15.559   1.721  14.172  1.00  0.00     0.039 C
BRANCH  13  14
HETATM   14  C10 UNL     1      15.008   2.267  15.493  1.00  0.00     0.123 C
BRANCH  14  15
HETATM   15  N3  UNL     1      14.491   1.199  16.311  1.00  0.00    -0.367 N
HETATM   16  C11 UNL     1      14.899   1.068  17.511  1.00  0.00     0.196 C
HETATM   17  N4  UNL     1      14.445   0.045  18.391  1.00  0.00    -0.067 NA
HETATM   18  N5  UNL     1      15.862   1.967  18.047  1.00  0.00    -0.067 NA
ATOM     19  H3  UNL     1      13.801   0.551  15.932  1.00  0.00     0.161 HD
ENDBRANCH  14  15
ENDBRANCH  13  14
ENDBRANCH  12  13
ENDBRANCH  10  12
TORSDOF 4
ENDMDL