MODEL 1
REMARK VINA RESULT: -7.605380456      0.000      0.000
REMARK  4 active torsions:
REMARK  status: ('A' for Active; 'I' for Inactive)
REMARK    1  A    between atoms: C2_2  and  N1_3
REMARK    2  A    between atoms: C5_6  and  C6_7
REMARK    3  A    between atoms: C6_7  and  C7_8
REMARK    4  A    between atoms: C7_8  and  N2_9
ROOT
HETATM    1  C7  UNL     1      16.032   3.874  14.644  1.00  0.00     0.127 C
ENDROOT
BRANCH   1   2
HETATM    2  C6  UNL     1      17.309   3.451  13.949  1.00  0.00     0.058 C
BRANCH   2   3
HETATM    3  C5  UNL     1      18.499   3.653  14.815  1.00  0.00    -0.054 A
HETATM    4  C4  UNL     1      19.378   4.701  14.611  1.00  0.00     0.024 A
HETATM    5  C3  UNL     1      20.485   4.878  15.429  1.00  0.00     0.091 A
HETATM    6  N1  UNL     1      20.755   4.048  16.450  1.00  0.00    -0.367 N
HETATM    7  C10 UNL     1      19.907   3.026  16.657  1.00  0.00     0.091 A
HETATM    8  C9  UNL     1      18.791   2.810  15.869  1.00  0.00     0.024 A
BRANCH   6   9
HETATM    9  C2  UNL     1      21.909   4.220  17.312  1.00  0.00     0.123 C
HETATM   10  C1  UNL     1      21.538   3.963  18.754  1.00  0.00     0.027 C
ENDBRANCH   6   9
ENDBRANCH   2   3
ENDBRANCH   1   2
BRANCH   1  11
HETATM   11  N2  UNL     1      15.184   2.726  14.893  1.00  0.00    -0.360 N
HETATM   12  C8  UNL     1      15.026   2.236  16.076  1.00  0.00     0.208 A
HETATM   13  N3  UNL     1      14.209   1.113  16.379  1.00  0.00    -0.257 N
HETATM   14  N6  UNL     1      15.585   2.657  17.291  1.00  0.00    -0.253 N
HETATM   15  N4  UNL     1      14.254   0.868  17.632  1.00  0.00    -0.224 N
ATOM     16  H3  UNL     1      13.667   0.582  15.698  1.00  0.00     0.191 HD
HETATM   17  N5  UNL     1      15.095   1.792  18.274  1.00  0.00    -0.004 NA
ATOM     18  H4  UNL     1      13.753   0.111  18.098  1.00  0.00     0.205 HD
ATOM     19  H6  UNL     1      16.223   3.441  17.431  1.00  0.00     0.187 HD
ATOM     20  H2  UNL     1      14.697   2.292  14.108  1.00  0.00     0.162 HD
ENDBRANCH   1  11
TORSDOF 4
ENDMDL