MODEL 5
REMARK VINA RESULT: -7.290894685      1.963      2.798
REMARK  3 active torsions:
REMARK  status: ('A' for Active; 'I' for Inactive)
REMARK    1  A    between atoms: N1_5  and  C5_6
REMARK    2  A    between atoms: C5_6  and  C6_7
REMARK    3  A    between atoms: C6_7  and  N2_8
ROOT
HETATM    1  C6  UNL     1      17.390   4.076  14.053  1.00  0.00     0.151 C
ENDROOT
BRANCH   1   2
HETATM    2  C5  UNL     1      18.857   4.141  13.688  1.00  0.00     0.148 C
BRANCH   2   3
HETATM    3  N1  UNL     1      19.688   4.394  14.836  1.00  0.00    -0.365 N
HETATM    4  C4  UNL     1      19.736   3.444  15.800  1.00  0.00     0.091 A
HETATM    5  C3  UNL     1      20.495   3.574  16.942  1.00  0.00     0.024 A
HETATM    6  C2  UNL     1      21.232   4.713  17.110  1.00  0.00    -0.059 A
HETATM    7  C1  UNL     1      22.056   4.867  18.339  1.00  0.00     0.048 C
HETATM    8  C11 UNL     1      21.179   5.676  16.123  1.00  0.00     0.024 A
HETATM    9  C10 UNL     1      20.411   5.522  14.989  1.00  0.00     0.091 A
ENDBRANCH   2   3
ENDBRANCH   1   2
BRANCH   1  10
HETATM   10  N2  UNL     1      16.809   2.797  13.796  1.00  0.00    -0.327 N
HETATM   11  C7  UNL     1      16.319   1.882  14.668  1.00  0.00     0.138 A
HETATM   12  C8  UNL     1      15.852   0.789  13.992  1.00  0.00     0.134 A
HETATM   13  N3  UNL     1      15.259  -0.397  14.513  1.00  0.00    -0.081 NA
HETATM   14  N4  UNL     1      16.057   1.033  12.686  1.00  0.00    -0.318 N
HETATM   15  C9  UNL     1      16.638   2.254  12.581  1.00  0.00     0.196 A
ATOM     16  H4  UNL     1      15.818   0.413  11.913  1.00  0.00     0.169 HD
HETATM   17  N5  UNL     1      16.986   2.810  11.320  1.00  0.00    -0.063 NA
ENDBRANCH   1  10
TORSDOF 3
ENDMDL