MODEL 3
REMARK VINA RESULT: -6.437285281      2.325      3.089
REMARK  5 active torsions:
REMARK  status: ('A' for Active; 'I' for Inactive)
REMARK    1  A    between atoms: C1_2  and  N2_4
REMARK    2  A    between atoms: N2_4  and  C2_6
REMARK    3  A    between atoms: C2_6  and  C3_7
REMARK    4  A    between atoms: C3_7  and  C4_8
REMARK    5  A    between atoms: C4_8  and  N3_9
ROOT
HETATM    1  N3  UNL     1      14.972   3.414  14.299  1.00  0.00    -0.226 N
ATOM      2  H3  UNL     1      14.042   3.716  14.010  1.00  0.00     0.177 HD
HETATM    3  C5  UNL     1      15.160   2.971  15.495  1.00  0.00     0.677 A
HETATM    4  N4  UNL     1      16.441   2.547  15.913  1.00  0.00    -0.202 N
ATOM      5  H4  UNL     1      17.222   2.596  15.258  1.00  0.00     0.183 HD
HETATM    6  C6  UNL     1      16.647   2.094  17.125  1.00  0.00     0.107 A
HETATM    7  C7  UNL     1      15.528   2.026  18.058  1.00  0.00     0.035 A
HETATM    8  C8  UNL     1      14.293   2.406  17.736  1.00  0.00     0.107 A
HETATM    9  N5  UNL     1      14.085   2.899  16.410  1.00  0.00    -0.202 N
ATOM     10  H5  UNL     1      13.154   3.202  16.122  1.00  0.00     0.183 HD
ENDROOT
BRANCH   1  11
HETATM   11  C4  UNL     1      16.084   3.485  13.358  1.00  0.00     0.139 C
BRANCH  11  12
HETATM   12  C3  UNL     1      15.711   2.891  12.025  1.00  0.00     0.040 C
BRANCH  12  13
HETATM   13  C2  UNL     1      15.730   1.385  12.071  1.00  0.00     0.123 C
BRANCH  13  14
HETATM   14  N2  UNL     1      16.843   0.845  12.819  1.00  0.00    -0.369 N
ATOM     15  H2  UNL     1      17.754   1.292  12.714  1.00  0.00     0.161 HD
BRANCH  14  16
HETATM   16  C1  UNL     1      16.745  -0.264  13.686  1.00  0.00     0.180 C
HETATM   17  N1  UNL     1      15.646  -0.409  14.569  1.00  0.00    -0.070 NA
HETATM   18  S1  UNL     1      17.874  -1.451  13.737  1.00  0.00    -0.044 SA
ENDBRANCH  14  16
ENDBRANCH  13  14
ENDBRANCH  12  13
ENDBRANCH  11  12
ENDBRANCH   1  11
TORSDOF 5
ENDMDL