MODEL 3
REMARK VINA RESULT: -5.828482482      2.302      5.715
REMARK  7 active torsions:
REMARK  status: ('A' for Active; 'I' for Inactive)
REMARK    1  A    between atoms: C2_2  and  N1_3
REMARK    2  A    between atoms: C2_2  and  C3_7
REMARK    3  A    between atoms: N2_10  and  C6_11
REMARK    4  A    between atoms: C6_11  and  C7_12
REMARK    5  A    between atoms: C7_12  and  C8_13
REMARK    6  A    between atoms: C8_13  and  C9_14
REMARK    7  A    between atoms: C9_14  and  N3_15
ROOT
HETATM    1  C3  UNL     1      19.649   3.530  16.036  1.00  0.00     0.043 A
HETATM    2  C4  UNL     1      19.450   4.105  14.800  1.00  0.00     0.044 A
HETATM    3  C5  UNL     1      18.337   3.809  14.053  1.00  0.00     0.093 A
HETATM    4  N2  UNL     1      17.464   2.938  14.587  1.00  0.00    -0.353 N
HETATM    5  C10 UNL     1      17.664   2.383  15.792  1.00  0.00     0.185 A
HETATM    6  N4  UNL     1      18.749   2.663  16.535  1.00  0.00    -0.349 N
HETATM    7  C11 UNL     1      18.960   2.062  17.836  1.00  0.00     0.156 C
ENDROOT
BRANCH   4   8
HETATM    8  C6  UNL     1      16.282   2.589  13.857  1.00  0.00     0.129 C
BRANCH   8   9
HETATM    9  C7  UNL     1      16.288   3.223  12.471  1.00  0.00     0.022 C
BRANCH   9  10
HETATM   10  C8  UNL     1      16.031   2.181  11.414  1.00  0.00     0.029 C
BRANCH  10  11
HETATM   11  C9  UNL     1      16.108   0.809  12.016  1.00  0.00     0.229 C
BRANCH  11  12
HETATM   12  N3  UNL     1      16.857  -0.040  11.116  1.00  0.00    -0.079 N
ATOM     13  H33 UNL     1      17.589   0.466  10.617  1.00  0.00     0.274 HD
ATOM     14  H32 UNL     1      17.457  -0.702  11.610  1.00  0.00     0.274 HD
ATOM     15  H31 UNL     1      16.199  -0.501  10.487  1.00  0.00     0.274 HD
ENDBRANCH  11  12
ENDBRANCH  10  11
ENDBRANCH   9  10
ENDBRANCH   8   9
ENDBRANCH   4   8
BRANCH   1  16
HETATM   16  C2  UNL     1      20.851   3.882  16.790  1.00  0.00     0.229 C
HETATM   17  C1  UNL     1      21.221   5.313  16.464  1.00  0.00     0.046 C
BRANCH  16  18
HETATM   18  N1  UNL     1      22.011   3.080  16.486  1.00  0.00    -0.070 N
ATOM     19  H13 UNL     1      22.893   3.551  16.687  1.00  0.00     0.275 HD
ATOM     20  H12 UNL     1      22.139   2.295  17.125  1.00  0.00     0.275 HD
ATOM     21  H11 UNL     1      21.920   2.796  15.510  1.00  0.00     0.275 HD
ENDBRANCH  16  18
ENDBRANCH   1  16
TORSDOF 7
ENDMDL