MODEL 5
REMARK VINA RESULT: -6.829288451      2.705      3.715
REMARK  6 active torsions:
REMARK  status: ('A' for Active; 'I' for Inactive)
REMARK    1  A    between atoms: N1_1  and  C1_4
REMARK    2  A    between atoms: N4_10  and  C3_11
REMARK    3  A    between atoms: C3_11  and  C4_12
REMARK    4  A    between atoms: C4_12  and  O1_13
REMARK    5  A    between atoms: O1_13  and  C5_14
REMARK    6  A    between atoms: C5_14  and  C6_15
ROOT
HETATM    1  C1  UNL     1      14.484   2.164  16.846  1.00  0.00     0.693 A
HETATM    2  N2  UNL     1      13.420   2.817  16.296  1.00  0.00    -0.131 N
ATOM      3  H2  UNL     1      12.438   2.559  16.386  1.00  0.00     0.205 HD
HETATM    4  N3  UNL     1      13.900   3.846  15.627  1.00  0.00    -0.281 N
ATOM      5  H3  UNL     1      13.346   4.526  15.107  1.00  0.00     0.188 HD
HETATM    6  C2  UNL     1      15.237   3.854  15.741  1.00  0.00     0.218 A
HETATM    7  N4  UNL     1      15.628   2.798  16.508  1.00  0.00    -0.175 N
ENDROOT
BRANCH   7   8
HETATM    8  C3  UNL     1      16.963   2.401  16.904  1.00  0.00     0.174 C
BRANCH   8   9
HETATM    9  C4  UNL     1      17.551   1.568  15.800  1.00  0.00     0.189 C
BRANCH   9  10
HETATM   10  O1  UNL     1      16.758   0.587  15.302  1.00  0.00    -0.383 OA
BRANCH  10  11
HETATM   11  C5  UNL     1      16.863   0.273  13.982  1.00  0.00     0.232 C
BRANCH  11  12
HETATM   12  C6  UNL     1      16.615   1.449  13.081  1.00  0.00     0.076 A
HETATM   13  C7  UNL     1      15.572   1.514  12.188  1.00  0.00     0.035 A
HETATM   14  C8  UNL     1      15.367   2.604  11.371  1.00  0.00     0.004 A
HETATM   15  C9  UNL     1      16.235   3.666  11.453  1.00  0.00     0.025 A
HETATM   16  C10 UNL     1      17.264   3.539  12.373  1.00  0.00     0.142 A
HETATM   17  O2  UNL     1      17.428   2.489  13.130  1.00  0.00    -0.325 OA
ENDBRANCH  11  12
ENDBRANCH  10  11
ENDBRANCH   9  10
ENDBRANCH   8   9
ENDBRANCH   7   8
BRANCH   1  18
HETATM   18  N1  UNL     1      14.396   1.102  17.573  1.00  0.00    -0.233 N
ATOM     19  H12 UNL     1      15.061   0.329  17.583  1.00  0.00     0.174 HD
ATOM     20  H11 UNL     1      13.639   0.911  18.230  1.00  0.00     0.174 HD
ENDBRANCH   1  18
TORSDOF 6
ENDMDL