MODEL 4
REMARK VINA RESULT: -6.808074622      2.711      4.389
REMARK  4 active torsions:
REMARK  status: ('A' for Active; 'I' for Inactive)
REMARK    1  A    between atoms: C1_4  and  C2_5
REMARK    2  A    between atoms: C1_4  and  C6_12
REMARK    3  A    between atoms: C2_5  and  N2_6
REMARK    4  A    between atoms: C6_12  and  N4_13
ROOT
HETATM    1  N1  UNL     1      17.490  -0.610  13.641  1.00  0.00    -0.403 N
ATOM      2  H11 UNL     1      18.288  -0.812  14.243  1.00  0.00     0.155 HD
ATOM      3  H12 UNL     1      17.164  -1.368  13.040  1.00  0.00     0.155 HD
HETATM    4  C1  UNL     1      16.898   0.500  13.604  1.00  0.00     0.017 C
ENDROOT
BRANCH   4   5
HETATM    5  C2  UNL     1      15.733   0.794  12.726  1.00  0.00     0.182 C
BRANCH   5   6
HETATM    6  N2  UNL     1      15.960   1.961  11.896  1.00  0.00    -0.346 N
HETATM    7  C3  UNL     1      15.153   3.016  11.697  1.00  0.00     0.109 A
HETATM    8  C4  UNL     1      15.744   3.893  10.844  1.00  0.00     0.106 A
HETATM    9  N3  UNL     1      16.940   3.365  10.509  1.00  0.00    -0.361 N
HETATM   10  C5  UNL     1      17.061   2.207  11.145  1.00  0.00     0.182 A
ATOM     11  H3  UNL     1      17.627   3.781   9.881  1.00  0.00     0.166 HD
ENDBRANCH   5   6
ENDBRANCH   4   5
BRANCH   4  12
HETATM   12  C6  UNL     1      17.372   1.605  14.480  1.00  0.00     0.181 C
BRANCH  12  13
HETATM   13  N4  UNL     1      16.353   1.970  15.466  1.00  0.00    -0.359 N
HETATM   14  C7  UNL     1      15.809   3.191  15.521  1.00  0.00     0.091 A
HETATM   15  C8  UNL     1      14.849   3.545  16.446  1.00  0.00     0.019 A
HETATM   16  C9  UNL     1      14.409   2.622  17.369  1.00  0.00     0.029 A
HETATM   17  C10 UNL     1      14.966   1.358  17.320  1.00  0.00     0.061 A
HETATM   18  N5  UNL     1      14.535   0.384  18.255  1.00  0.00    -0.101 NA
HETATM   19  C11 UNL     1      15.927   1.067  16.365  1.00  0.00     0.117 A
ENDBRANCH  12  13
ENDBRANCH   4  12
TORSDOF 4
ENDMDL