MODEL 4
REMARK VINA RESULT: -5.679174895      1.924      2.166
REMARK  5 active torsions:
REMARK  status: ('A' for Active; 'I' for Inactive)
REMARK    1  A    between atoms: N1_2  and  N2_3
REMARK    2  A    between atoms: N1_2  and  C2_6
REMARK    3  A    between atoms: N3_7  and  S1_9
REMARK    4  A    between atoms: S1_9  and  C3_12
REMARK    5  A    between atoms: C3_12  and  N4_13
ROOT
HETATM    1  C3  UNL     1      16.919   1.557  16.131  1.00  0.00     0.430 C
HETATM    2  C4  UNL     1      16.088   1.224  17.266  1.00  0.00     0.110 C
HETATM    3  N5  UNL     1      15.413   0.933  18.184  1.00  0.00    -0.194 NA
ENDROOT
BRANCH   1   4
HETATM    4  S1  UNL     1      16.371   0.527  14.762  1.00  0.00     0.274 S
HETATM    5  O1  UNL     1      15.596  -0.610  15.403  1.00  0.00    -0.202 OA
HETATM    6  O2  UNL     1      17.552   0.021  13.993  1.00  0.00    -0.202 OA
BRANCH   4   7
HETATM    7  N3  UNL     1      15.305   1.451  13.770  1.00  0.00    -0.277 N
HETATM    8  C2  UNL     1      15.761   2.328  12.933  1.00  0.00     0.210 C
ATOM      9  H3  UNL     1      14.298   1.304  13.845  1.00  0.00     0.179 HD
BRANCH   8  10
HETATM   10  N1  UNL     1      17.154   2.558  12.802  1.00  0.00    -0.298 N
HETATM   11  C1  UNL     1      17.843   3.473  13.666  1.00  0.00     0.178 C
BRANCH  10  12
HETATM   12  N2  UNL     1      17.897   1.894  11.823  1.00  0.00    -0.343 N
ATOM     13  H22 UNL     1      18.828   1.534  12.031  1.00  0.00     0.177 HD
ATOM     14  H21 UNL     1      17.480   1.783  10.898  1.00  0.00     0.177 HD
ENDBRANCH  10  12
ENDBRANCH   8  10
ENDBRANCH   4   7
ENDBRANCH   1   4
BRANCH   1  15
HETATM   15  N4  UNL     1      18.320   1.255  16.411  1.00  0.00    -0.047 N
ATOM     16  H43 UNL     1      18.548   1.345  17.401  1.00  0.00     0.277 HD
ATOM     17  H42 UNL     1      18.533   0.263  16.308  1.00  0.00     0.277 HD
ATOM     18  H41 UNL     1      18.905   1.844  15.820  1.00  0.00     0.277 HD
ENDBRANCH   1  15
TORSDOF 5
ENDMDL