MODEL 5
REMARK VINA RESULT: -4.903259192      2.219      4.179
REMARK  5 active torsions:
REMARK  status: ('A' for Active; 'I' for Inactive)
REMARK    1  A    between atoms: S1_2  and  C2_4
REMARK    2  A    between atoms: C2_4  and  C3_5
REMARK    3  A    between atoms: C4_7  and  O3_8
REMARK    4  A    between atoms: C5_10  and  O4_11
REMARK    5  A    between atoms: C6_13  and  O5_14
ROOT
HETATM    1  C3  UNL     1      17.297   2.353  14.014  1.00  0.00     0.167 C
HETATM    2  O2  UNL     1      17.262   3.440  13.176  1.00  0.00    -0.350 OA
HETATM    3  C4  UNL     1      17.352   2.935  11.859  1.00  0.00     0.288 C
HETATM    4  C5  UNL     1      16.327   1.794  11.983  1.00  0.00     0.204 C
HETATM    5  C6  UNL     1      16.925   1.132  13.209  1.00  0.00     0.181 C
ENDROOT
BRANCH   1   6
HETATM    6  C2  UNL     1      16.329   2.449  15.164  1.00  0.00     0.143 C
BRANCH   6   7
HETATM    7  S1  UNL     1      16.775   1.470  16.546  1.00  0.00     0.013 S
HETATM    8  C1  UNL     1      18.458   0.985  16.565  1.00  0.00     0.127 C
HETATM    9  O1  UNL     1      15.729   0.156  16.622  1.00  0.00    -0.258 OA
ENDBRANCH   6   7
ENDBRANCH   1   6
BRANCH   5  10
HETATM   10  O5  UNL     1      16.007   0.319  13.861  1.00  0.00    -0.390 OA
ATOM     11  H5  UNL     1      15.288   0.811  14.242  1.00  0.00     0.210 HD
ENDBRANCH   5  10
BRANCH   3  12
HETATM   12  O3  UNL     1      17.005   3.852  10.916  1.00  0.00    -0.369 OA
ATOM     13  H3  UNL     1      17.251   3.589  10.037  1.00  0.00     0.212 HD
ENDBRANCH   3  12
BRANCH   4  14
HETATM   14  O4  UNL     1      15.117   2.394  12.270  1.00  0.00    -0.388 OA
ATOM     15  H4  UNL     1      14.911   2.944  11.522  1.00  0.00     0.210 HD
ENDBRANCH   4  14
TORSDOF 5
ENDMDL