MODEL 3
REMARK VINA RESULT: -6.728624536      2.980      5.411
REMARK  8 active torsions:
REMARK  status: ('A' for Active; 'I' for Inactive)
REMARK    1  A    between atoms: N1_1  and  N2_4
REMARK    2  A    between atoms: N2_4  and  O1_5
REMARK    3  A    between atoms: N2_4  and  N3_7
REMARK    4  A    between atoms: N3_7  and  C1_9
REMARK    5  A    between atoms: C1_9  and  C2_10
REMARK    6  A    between atoms: C4_13  and  C5_14
REMARK    7  A    between atoms: C5_14  and  O3_15
REMARK    8  A    between atoms: C6_18  and  O5_19
ROOT
HETATM    1  C2  UNL     1      16.758   1.095  14.819  1.00  0.00     0.195 C
HETATM    2  O2  UNL     1      15.807   0.746  13.818  1.00  0.00    -0.377 OA
HETATM    3  C3  UNL     1      16.299   1.093  12.569  1.00  0.00     0.202 C
HETATM    4  C4  UNL     1      17.130   2.332  12.564  1.00  0.00     0.172 C
HETATM    5  O4  UNL     1      17.056   3.133  13.640  1.00  0.00    -0.349 OA
HETATM    6  C6  UNL     1      16.697   2.583  14.847  1.00  0.00     0.288 C
ENDROOT
BRANCH   1   7
HETATM    7  C1  UNL     1      16.381   0.412  16.082  1.00  0.00     0.180 C
BRANCH   7   8
HETATM    8  N3  UNL     1      16.075   1.218  17.209  1.00  0.00    -0.293 N
ATOM      9  H3  UNL     1      16.829   1.792  17.587  1.00  0.00     0.184 HD
BRANCH   8  10
HETATM   10  N2  UNL     1      14.843   1.298  17.844  1.00  0.00    -0.106 N
BRANCH  10  11
HETATM   11  N1  UNL     1      13.920   2.064  17.363  1.00  0.00    -0.304 N
ATOM     12  H12 UNL     1      12.963   1.721  17.291  1.00  0.00     0.180 HD
ATOM     13  H11 UNL     1      14.236   2.989  17.071  1.00  0.00     0.180 HD
ENDBRANCH  10  11
BRANCH  10  14
HETATM   14  O1  UNL     1      14.498   0.624  18.991  1.00  0.00    -0.254 OA
ATOM     15  H1  UNL     1      13.566   0.478  19.105  1.00  0.00     0.248 HD
ENDBRANCH  10  14
ENDBRANCH   8  10
ENDBRANCH   7   8
ENDBRANCH   1   7
BRANCH   6  16
HETATM   16  O5  UNL     1      15.361   2.945  15.123  1.00  0.00    -0.369 OA
ATOM     17  H5  UNL     1      15.381   3.778  15.578  1.00  0.00     0.212 HD
ENDBRANCH   6  16
BRANCH   4  18
HETATM   18  C5  UNL     1      16.775   3.140  11.317  1.00  0.00     0.198 C
BRANCH  18  19
HETATM   19  O3  UNL     1      17.883   3.448  10.561  1.00  0.00    -0.398 OA
ATOM     20  H3  UNL     1      18.658   3.577  11.095  1.00  0.00     0.209 HD
ENDBRANCH  18  19
ENDBRANCH   4  18
TORSDOF 8
ENDMDL