MODEL 3
REMARK VINA RESULT: -6.299794751      1.327      1.663
REMARK  5 active torsions:
REMARK  status: ('A' for Active; 'I' for Inactive)
REMARK    1  A    between atoms: N1_1  and  N2_4
REMARK    2  A    between atoms: N2_4  and  S1_6
REMARK    3  A    between atoms: S1_6  and  N3_9
REMARK    4  A    between atoms: N3_9  and  S2_11
REMARK    5  A    between atoms: S2_11  and  N4_12
ROOT
HETATM    1  S1  UNL     1      15.762   1.582  15.879  1.00  0.00     0.346 S
HETATM    2  O1  UNL     1      15.717   3.027  15.443  1.00  0.00    -0.180 OA
HETATM    3  O2  UNL     1      17.085   1.384  16.566  1.00  0.00    -0.180 OA
ENDROOT
BRANCH   1   4
HETATM    4  N2  UNL     1      14.500   1.209  16.983  1.00  0.00    -0.216 N
ATOM      5  H2  UNL     1      14.366   0.281  17.382  1.00  0.00     0.201 HD
BRANCH   4   6
HETATM    6  N1  UNL     1      13.685   2.282  17.279  1.00  0.00    -0.335 N
ATOM      7  H12 UNL     1      13.709   2.749  18.186  1.00  0.00     0.177 HD
ATOM      8  H11 UNL     1      13.069   2.555  16.514  1.00  0.00     0.177 HD
ENDBRANCH   4   6
ENDBRANCH   1   4
BRANCH   1   9
HETATM    9  N3  UNL     1      15.607   0.600  14.474  1.00  0.00    -0.176 N
ATOM     10  H3  UNL     1      15.087  -0.277  14.450  1.00  0.00     0.195 HD
BRANCH   9  11
HETATM   11  S2  UNL     1      16.426   1.262  13.117  1.00  0.00     0.327 S
HETATM   12  O3  UNL     1      15.527   2.119  12.278  1.00  0.00    -0.182 OA
HETATM   13  O4  UNL     1      16.931   0.141  12.250  1.00  0.00    -0.182 OA
BRANCH  11  14
HETATM   14  N4  UNL     1      17.751   2.229  13.704  1.00  0.00    -0.311 N
ATOM     15  H42 UNL     1      17.697   2.892  14.477  1.00  0.00     0.170 HD
ATOM     16  H41 UNL     1      18.574   2.012  13.142  1.00  0.00     0.170 HD
ENDBRANCH  11  14
ENDBRANCH   9  11
ENDBRANCH   1   9
TORSDOF 5
ENDMDL