MODEL 3
REMARK VINA RESULT: -5.419433307      1.804      4.895
REMARK  5 active torsions:
REMARK  status: ('A' for Active; 'I' for Inactive)
REMARK    1  A    between atoms: N2_6  and  C5_7
REMARK    2  A    between atoms: C5_7  and  O1_8
REMARK    3  A    between atoms: C5_7  and  C6_10
REMARK    4  A    between atoms: C6_10  and  N3_11
REMARK    5  A    between atoms: C6_10  and  N4_15
ROOT
HETATM    1  C5  UNL     1      15.362   2.368  16.420  1.00  0.00     0.415 C
ENDROOT
BRANCH   1   2
HETATM    2  N2  UNL     1      15.788   1.868  15.167  1.00  0.00     0.128 N
HETATM    3  C4  UNL     1      16.119   0.469  15.065  1.00  0.00     0.285 C
HETATM    4  C3  UNL     1      17.279   0.880  14.168  1.00  0.00     0.077 C
HETATM    5  C2  UNL     1      17.002   0.837  12.699  1.00  0.00     0.280 C
HETATM    6  C7  UNL     1      17.023   2.298  14.599  1.00  0.00     0.262 C
HETATM    7  N1  UNL     1      16.703   2.155  12.244  1.00  0.00     0.086 N
HETATM    8  C1  UNL     1      17.555   2.639  11.189  1.00  0.00     0.310 C
HETATM    9  C8  UNL     1      16.785   3.074  13.339  1.00  0.00     0.308 C
ENDBRANCH   1   2
BRANCH   1  10
HETATM   10  O1  UNL     1      14.442   3.406  16.225  1.00  0.00    -0.365 OA
ATOM     11  H1  UNL     1      14.372   3.924  17.018  1.00  0.00     0.212 HD
ENDBRANCH   1  10
BRANCH   1  12
HETATM   12  C6  UNL     1      14.733   1.398  17.360  1.00  0.00     0.436 C
BRANCH  12  13
HETATM   13  N3  UNL     1      13.717   2.143  18.107  1.00  0.00    -0.046 N
ATOM     14  H33 UNL     1      13.895   2.174  19.110  1.00  0.00     0.277 HD
ATOM     15  H32 UNL     1      13.749   3.149  17.941  1.00  0.00     0.277 HD
ATOM     16  H31 UNL     1      12.818   1.723  17.868  1.00  0.00     0.277 HD
ENDBRANCH  12  13
BRANCH  12  17
HETATM   17  N4  UNL     1      15.657   0.923  18.395  1.00  0.00    -0.046 N
ATOM     18  H43 UNL     1      15.937  -0.041  18.220  1.00  0.00     0.277 HD
ATOM     19  H42 UNL     1      16.566   1.379  18.309  1.00  0.00     0.277 HD
ATOM     20  H41 UNL     1      15.285   1.029  19.339  1.00  0.00     0.277 HD
ENDBRANCH  12  17
ENDBRANCH   1  12
TORSDOF 5
ENDMDL