MODEL 4
REMARK VINA RESULT: -6.312949579      2.002      4.788
REMARK  5 active torsions:
REMARK  status: ('A' for Active; 'I' for Inactive)
REMARK    1  A    between atoms: S1_2  and  C1_4
REMARK    2  A    between atoms: C1_4  and  C2_5
REMARK    3  A    between atoms: C4_7  and  O3_8
REMARK    4  A    between atoms: C5_10  and  C6_11
REMARK    5  A    between atoms: C6_11  and  O4_12
ROOT
HETATM    1  C2  UNL     1      17.219   2.399  14.926  1.00  0.00     0.204 C
HETATM    2  C3  UNL     1      17.192   3.452  13.868  1.00  0.00     0.068 C
HETATM    3  C4  UNL     1      17.465   2.654  12.598  1.00  0.00     0.153 C
HETATM    4  C5  UNL     1      16.844   1.319  12.975  1.00  0.00     0.238 C
HETATM    5  N1  UNL     1      17.407   1.123  14.291  1.00  0.00    -0.061 N
ATOM      6  H11 UNL     1      17.018   0.333  14.804  1.00  0.00     0.278 HD
ATOM      7  H12 UNL     1      18.370   0.787  14.293  1.00  0.00     0.278 HD
ENDROOT
BRANCH   1   8
HETATM    8  C1  UNL     1      15.933   2.327  15.731  1.00  0.00     0.190 C
BRANCH   8   9
HETATM    9  S1  UNL     1      16.015   0.803  16.670  1.00  0.00     0.252 S
HETATM   10  O1  UNL     1      15.141   0.902  18.076  1.00  0.00    -0.212 OA
HETATM   11  O2  UNL     1      15.635  -0.508  15.727  1.00  0.00    -0.212 OA
ENDBRANCH   8   9
ENDBRANCH   1   8
BRANCH   3  12
HETATM   12  O3  UNL     1      16.873   3.200  11.488  1.00  0.00    -0.393 OA
ATOM     13  H3  UNL     1      16.914   2.630  10.729  1.00  0.00     0.210 HD
ENDBRANCH   3  12
BRANCH   4  14
HETATM   14  C6  UNL     1      17.230   0.222  12.016  1.00  0.00     0.199 C
BRANCH  14  15
HETATM   15  O4  UNL     1      18.321   0.651  11.274  1.00  0.00    -0.399 OA
ATOM     16  H4  UNL     1      18.338   1.601  11.286  1.00  0.00     0.209 HD
ENDBRANCH  14  15
ENDBRANCH   4  14
TORSDOF 5
ENDMDL