MODEL 1
REMARK VINA RESULT: -6.093838290      0.000      0.000
REMARK  6 active torsions:
REMARK  status: ('A' for Active; 'I' for Inactive)
REMARK    1  A    between atoms: S1_2  and  C1_3
REMARK    2  A    between atoms: S1_2  and  C3_7
REMARK    3  A    between atoms: C1_3  and  C2_4
REMARK    4  A    between atoms: C2_4  and  O2_5
REMARK    5  A    between atoms: C5_10  and  O4_11
REMARK    6  A    between atoms: C6_13  and  O5_14
ROOT
HETATM    1  C3  UNL     1      17.776   1.771  15.010  1.00  0.00     0.245 C
HETATM    2  O3  UNL     1      17.837   0.580  14.289  1.00  0.00    -0.368 OA
HETATM    3  C4  UNL     1      17.712  -0.352  15.346  1.00  0.00     0.203 C
HETATM    4  C5  UNL     1      16.421   0.116  15.974  1.00  0.00     0.174 C
HETATM    5  C6  UNL     1      16.603   1.635  15.929  1.00  0.00     0.190 C
ENDROOT
BRANCH   1   6
HETATM    6  S1  UNL     1      17.699   3.156  13.938  1.00  0.00     0.049 S
HETATM    7  O1  UNL     1      19.046   4.104  13.951  1.00  0.00    -0.255 OA
BRANCH   6   8
HETATM    8  C1  UNL     1      17.251   2.599  12.312  1.00  0.00     0.137 C
BRANCH   8   9
HETATM    9  C2  UNL     1      15.778   2.266  12.254  1.00  0.00     0.176 C
BRANCH   9  10
HETATM   10  O2  UNL     1      15.639   0.920  12.514  1.00  0.00    -0.400 OA
ATOM     11  H2  UNL     1      15.146   0.534  11.798  1.00  0.00     0.209 HD
ENDBRANCH   9  10
ENDBRANCH   8   9
ENDBRANCH   6   8
ENDBRANCH   1   6
BRANCH   5  12
HETATM   12  O5  UNL     1      15.444   2.211  15.435  1.00  0.00    -0.389 OA
ATOM     13  H5  UNL     1      14.661   1.955  15.908  1.00  0.00     0.210 HD
ENDBRANCH   5  12
BRANCH   4  14
HETATM   14  O4  UNL     1      15.350  -0.234  15.162  1.00  0.00    -0.391 OA
ATOM     15  H4  UNL     1      14.538  -0.153  15.649  1.00  0.00     0.210 HD
ENDBRANCH   4  14
TORSDOF 6
ENDMDL