MODEL 3
REMARK VINA RESULT: -5.248311312      2.202      3.948
REMARK  6 active torsions:
REMARK  status: ('A' for Active; 'I' for Inactive)
REMARK    1  A    between atoms: S1_2  and  C2_4
REMARK    2  A    between atoms: C2_4  and  N1_5
REMARK    3  A    between atoms: C3_6  and  O2_7
REMARK    4  A    between atoms: C4_9  and  O3_10
REMARK    5  A    between atoms: C5_12  and  C6_13
REMARK    6  A    between atoms: C6_13  and  O4_14
ROOT
HETATM    1  N1  UNL     1      16.195   1.129  13.912  1.00  0.00     0.140 N
HETATM    2  C3  UNL     1      15.975   1.392  12.529  1.00  0.00     0.389 C
HETATM    3  C4  UNL     1      17.460   1.515  12.256  1.00  0.00     0.212 C
HETATM    4  C5  UNL     1      17.595   0.940  13.653  1.00  0.00     0.283 C
ENDROOT
BRANCH   1   5
HETATM    5  C2  UNL     1      15.948   2.183  14.839  1.00  0.00     0.384 C
BRANCH   5   6
HETATM    6  S1  UNL     1      15.882   1.579  16.525  1.00  0.00     0.039 S
HETATM    7  C1  UNL     1      14.412   2.106  17.336  1.00  0.00     0.129 C
HETATM    8  O1  UNL     1      15.828  -0.114  16.419  1.00  0.00    -0.257 OA
ENDBRANCH   5   6
ENDBRANCH   1   5
BRANCH   2   9
HETATM    9  O2  UNL     1      15.221   2.493  12.202  1.00  0.00    -0.366 OA
ATOM     10  H2  UNL     1      14.755   2.934  12.903  1.00  0.00     0.212 HD
ENDBRANCH   2   9
BRANCH   4  11
HETATM   11  C6  UNL     1      17.961  -0.528  13.687  1.00  0.00     0.203 C
BRANCH  11  12
HETATM   12  O4  UNL     1      18.487  -0.851  14.949  1.00  0.00    -0.399 OA
ATOM     13  H4  UNL     1      17.786  -1.143  15.520  1.00  0.00     0.209 HD
ENDBRANCH  11  12
ENDBRANCH   4  11
BRANCH   3  14
HETATM   14  O3  UNL     1      17.896   2.846  12.154  1.00  0.00    -0.389 OA
ATOM     15  H3  UNL     1      17.993   3.273  12.997  1.00  0.00     0.210 HD
ENDBRANCH   3  14
TORSDOF 6
ENDMDL