MODEL 1
REMARK VINA RESULT: -6.319863201      0.000      0.000
REMARK  6 active torsions:
REMARK  status: ('A' for Active; 'I' for Inactive)
REMARK    1  A    between atoms: N2_6  and  C5_7
REMARK    2  A    between atoms: C5_7  and  C6_8
REMARK    3  A    between atoms: C6_8  and  N3_9
REMARK    4  A    between atoms: C6_8  and  N4_13
REMARK    5  A    between atoms: C6_8  and  C7_17
REMARK    6  A    between atoms: C7_17  and  O1_18
ROOT
HETATM    1  C6  UNL     1      17.223   2.176  12.559  1.00  0.00     0.320 C
ENDROOT
BRANCH   1   2
HETATM    2  C5  UNL     1      17.746   2.529  13.915  1.00  0.00     0.219 C
BRANCH   2   3
HETATM    3  N2  UNL     1      16.928   1.985  14.981  1.00  0.00    -0.297 N
HETATM    4  N1  UNL     1      17.022   0.803  15.542  1.00  0.00    -0.305 N
HETATM    5  C3  UNL     1      16.096   0.633  16.508  1.00  0.00     0.118 A
HETATM    6  C4  UNL     1      17.978  -0.244  15.213  1.00  0.00     0.177 C
HETATM    7  C2  UNL     1      15.359   1.786  16.567  1.00  0.00    -0.028 A
HETATM    8  C1  UNL     1      14.221   2.063  17.487  1.00  0.00     0.051 C
HETATM    9  C8  UNL     1      15.891   2.617  15.608  1.00  0.00     0.118 A
ENDBRANCH   2   3
ENDBRANCH   1   2
BRANCH   1  10
HETATM   10  N3  UNL     1      17.562   0.817  12.199  1.00  0.00    -0.041 N
ATOM     11  H33 UNL     1      18.256   0.424  12.835  1.00  0.00     0.277 HD
ATOM     12  H32 UNL     1      16.791   0.176  12.393  1.00  0.00     0.277 HD
ATOM     13  H31 UNL     1      17.865   0.753  11.228  1.00  0.00     0.277 HD
ENDBRANCH   1  10
BRANCH   1  14
HETATM   14  N4  UNL     1      17.760   3.071  11.526  1.00  0.00    -0.041 N
ATOM     15  H43 UNL     1      17.016   3.590  11.059  1.00  0.00     0.277 HD
ATOM     16  H42 UNL     1      18.266   3.855  11.937  1.00  0.00     0.277 HD
ATOM     17  H41 UNL     1      18.338   2.564  10.856  1.00  0.00     0.277 HD
ENDBRANCH   1  14
BRANCH   1  18
HETATM   18  C7  UNL     1      15.719   2.298  12.473  1.00  0.00     0.235 C
BRANCH  18  19
HETATM   19  O1  UNL     1      15.332   2.836  11.232  1.00  0.00    -0.397 OA
ATOM     20  H1  UNL     1      14.907   3.677  11.347  1.00  0.00     0.209 HD
ENDBRANCH  18  19
ENDBRANCH   1  18
TORSDOF 6
ENDMDL