MODEL 2
REMARK VINA RESULT: -6.109842922      1.307      2.705
REMARK  4 active torsions:
REMARK  status: ('A' for Active; 'I' for Inactive)
REMARK    1  A    between atoms: O1_1  and  C1_3
REMARK    2  A    between atoms: C1_3  and  C2_4
REMARK    3  A    between atoms: C2_4  and  N1_5
REMARK    4  A    between atoms: N1_5  and  C3_8
ROOT
HETATM    1  C3  UNL     1      46.158  26.105  41.460  1.00  0.00     0.415 C
HETATM    2  N2  UNL     1      46.560  25.268  40.352  1.00  0.00    -0.042 N
ATOM      3  H21 UNL     1      47.365  24.671  40.546  1.00  0.00     0.279 HD
ATOM      4  H22 UNL     1      46.984  25.773  39.574  1.00  0.00     0.279 HD
HETATM    5  C4  UNL     1      45.341  24.539  40.004  1.00  0.00     0.265 C
HETATM    6  C5  UNL     1      44.145  25.378  39.808  1.00  0.00     0.300 C
HETATM    7  N3  UNL     1      44.064  26.618  40.487  1.00  0.00     0.098 N
HETATM    8  C6  UNL     1      43.273  26.651  41.672  1.00  0.00     0.273 C
HETATM    9  C7  UNL     1      43.474  28.091  42.130  1.00  0.00     0.033 C
HETATM   10  C8  UNL     1      44.942  28.300  41.792  1.00  0.00     0.041 C
HETATM   11  C9  UNL     1      45.328  27.214  40.852  1.00  0.00     0.281 C
ENDROOT
BRANCH   1  12
HETATM   12  N1  UNL     1      47.234  26.506  42.265  1.00  0.00    -0.042 N
ATOM     13  H12 UNL     1      47.130  27.457  42.620  1.00  0.00     0.279 HD
ATOM     14  H11 UNL     1      48.093  26.654  41.734  1.00  0.00     0.279 HD
BRANCH  12  15
HETATM   15  C2  UNL     1      47.386  25.527  43.319  1.00  0.00     0.260 C
BRANCH  15  16
HETATM   16  C1  UNL     1      47.331  26.153  44.708  1.00  0.00     0.191 C
BRANCH  16  17
HETATM   17  O1  UNL     1      46.537  27.291  44.641  1.00  0.00    -0.399 OA
ATOM     18  H1  UNL     1      46.963  27.981  45.137  1.00  0.00     0.209 HD
ENDBRANCH  16  17
ENDBRANCH  15  16
ENDBRANCH  12  15
ENDBRANCH   1  12
TORSDOF 4
ENDMDL