MODEL 4
REMARK VINA RESULT: -5.582854180      1.184      1.929
REMARK  4 active torsions:
REMARK  status: ('A' for Active; 'I' for Inactive)
REMARK    1  A    between atoms: O1_1  and  C1_3
REMARK    2  A    between atoms: C4_9  and  O2_10
REMARK    3  A    between atoms: O2_10  and  C5_11
REMARK    4  A    between atoms: C5_11  and  N2_12
ROOT
HETATM    1  C1  UNL     1      45.023  27.444  38.551  1.00  0.00     0.174 C
HETATM    2  C2  UNL     1      43.830  26.979  37.755  1.00  0.00     0.266 C
HETATM    3  N1  UNL     1      43.560  25.621  38.128  1.00  0.00    -0.070 N
ATOM      4  H11 UNL     1      43.758  24.948  37.388  1.00  0.00     0.277 HD
ATOM      5  H12 UNL     1      42.566  25.414  38.220  1.00  0.00     0.277 HD
HETATM    6  C3  UNL     1      44.326  25.380  39.362  1.00  0.00     0.266 C
HETATM    7  C4  UNL     1      45.611  26.102  39.003  1.00  0.00     0.179 C
ENDROOT
BRANCH   7   8
HETATM    8  O2  UNL     1      46.458  26.259  40.081  1.00  0.00    -0.362 OA
BRANCH   8   9
HETATM    9  C5  UNL     1      46.046  25.364  41.069  1.00  0.00     0.299 C
BRANCH   9  10
HETATM   10  N2  UNL     1      46.370  25.842  42.396  1.00  0.00    -0.330 N
HETATM   11  C6  UNL     1      47.295  25.398  43.251  1.00  0.00     0.111 A
HETATM   12  C7  UNL     1      47.252  26.161  44.419  1.00  0.00     0.106 A
HETATM   13  N3  UNL     1      46.275  27.072  44.234  1.00  0.00    -0.361 N
HETATM   14  C8  UNL     1      45.756  26.871  43.024  1.00  0.00     0.184 A
ATOM     15  H3  UNL     1      45.986  27.788  44.901  1.00  0.00     0.166 HD
ENDBRANCH   9  10
ENDBRANCH   8   9
ENDBRANCH   7   8
BRANCH   1  16
HETATM   16  O1  UNL     1      44.540  28.066  39.710  1.00  0.00    -0.391 OA
ATOM     17  H1  UNL     1      43.592  28.007  39.691  1.00  0.00     0.210 HD
ENDBRANCH   1  16
TORSDOF 4
ENDMDL