MODEL 4
REMARK VINA RESULT: -6.031482413      2.409      5.076
REMARK  2 active torsions:
REMARK  status: ('A' for Active; 'I' for Inactive)
REMARK    1  A    between atoms: C1_4  and  N2_5
REMARK    2  A    between atoms: N3_10  and  N4_12
ROOT
HETATM    1  N2  UNL     1      45.098  26.660  42.053  1.00  0.00    -0.322 N
HETATM    2  C2  UNL     1      45.891  27.595  42.828  1.00  0.00     0.142 C
HETATM    3  C3  UNL     1      46.514  26.811  43.977  1.00  0.00     0.103 C
HETATM    4  S1  UNL     1      47.157  25.411  42.962  1.00  0.00    -0.091 SA
HETATM    5  C4  UNL     1      45.887  25.537  41.675  1.00  0.00     0.162 C
HETATM    6  N3  UNL     1      45.730  24.787  40.657  1.00  0.00    -0.278 N
ATOM      7  H3  UNL     1      46.386  24.018  40.529  1.00  0.00     0.189 HD
ENDROOT
BRANCH   1   8
HETATM    8  C1  UNL     1      43.710  26.869  41.720  1.00  0.00     0.178 C
HETATM    9  N1  UNL     1      42.909  27.466  42.526  1.00  0.00    -0.395 N
ATOM     10  H12 UNL     1      43.277  27.793  43.418  1.00  0.00     0.156 HD
ATOM     11  H11 UNL     1      41.927  27.614  42.290  1.00  0.00     0.156 HD
ENDBRANCH   1   8
BRANCH   6  12
HETATM   12  N4  UNL     1      44.737  24.944  39.720  1.00  0.00    -0.274 N
HETATM   13  C5  UNL     1      44.848  25.429  38.559  1.00  0.00     0.215 C
HETATM   14  N5  UNL     1      43.726  25.522  37.713  1.00  0.00    -0.065 NA
HETATM   15  N6  UNL     1      46.102  25.882  38.098  1.00  0.00    -0.065 NA
ATOM     16  H4  UNL     1      43.804  24.635  39.993  1.00  0.00     0.189 HD
ENDBRANCH   6  12
TORSDOF 2
ENDMDL