MODEL 2
REMARK VINA RESULT: -6.049496380      0.560      1.293
REMARK  6 active torsions:
REMARK  status: ('A' for Active; 'I' for Inactive)
REMARK    1  A    between atoms: C1_4  and  C2_5
REMARK    2  A    between atoms: C1_4  and  N4_13
REMARK    3  A    between atoms: C2_5  and  N2_6
REMARK    4  A    between atoms: N4_13  and  C7_15
REMARK    5  A    between atoms: C7_15  and  C8_16
REMARK    6  A    between atoms: C8_16  and  O1_17
ROOT
HETATM    1  N1  UNL     1      44.642  23.399  39.970  1.00  0.00    -0.388 N
ATOM      2  H11 UNL     1      43.727  23.061  39.673  1.00  0.00     0.157 HD
ATOM      3  H12 UNL     1      45.331  22.783  40.401  1.00  0.00     0.157 HD
HETATM    4  C1  UNL     1      44.942  24.638  39.810  1.00  0.00     0.090 C
ENDROOT
BRANCH   4   5
HETATM    5  C2  UNL     1      46.258  25.125  40.236  1.00  0.00     0.223 C
BRANCH   5   6
HETATM    6  N2  UNL     1      46.271  25.705  41.563  1.00  0.00    -0.297 N
HETATM    7  C3  UNL     1      47.158  25.349  42.511  1.00  0.00     0.110 A
HETATM    8  C4  UNL     1      47.176  25.897  43.772  1.00  0.00     0.020 A
HETATM    9  C5  UNL     1      46.231  26.872  44.103  1.00  0.00     0.020 A
HETATM   10  C6  UNL     1      45.342  27.209  43.107  1.00  0.00     0.107 A
HETATM   11  N3  UNL     1      45.383  26.634  41.897  1.00  0.00    -0.310 N
ATOM     12  H3  UNL     1      44.699  26.923  41.199  1.00  0.00     0.186 HD
ENDBRANCH   5   6
ENDBRANCH   4   5
BRANCH   4  13
HETATM   13  N4  UNL     1      43.985  25.495  39.212  1.00  0.00    -0.377 N
ATOM     14  H4  UNL     1      43.046  25.503  39.610  1.00  0.00     0.160 HD
BRANCH  13  15
HETATM   15  C7  UNL     1      44.235  26.357  38.083  1.00  0.00     0.147 C
BRANCH  15  16
HETATM   16  C8  UNL     1      44.373  27.781  38.529  1.00  0.00     0.183 C
BRANCH  16  17
HETATM   17  O1  UNL     1      43.562  28.681  37.892  1.00  0.00    -0.399 OA
ATOM     18  H1  UNL     1      43.143  29.324  38.452  1.00  0.00     0.209 HD
ENDBRANCH  16  17
ENDBRANCH  15  16
ENDBRANCH  13  15
ENDBRANCH   4  13
TORSDOF 6
ENDMDL