MODEL 5
REMARK VINA RESULT: -5.788552140      2.260      4.259
REMARK  2 active torsions:
REMARK  status: ('A' for Active; 'I' for Inactive)
REMARK    1  A    between atoms: C2_2  and  C3_4
REMARK    2  A    between atoms: N2_5  and  C4_6
REMARK       I    between atoms: N3_10  and  C7_11
ROOT
HETATM    1  C3  UNL     1      44.766  26.430  40.654  1.00  0.00     0.238 C
HETATM    2  N2  UNL     1      44.029  27.655  40.765  1.00  0.00    -0.331 N
HETATM    3  C5  UNL     1      43.419  27.568  42.073  1.00  0.00     0.147 C
HETATM    4  C6  UNL     1      44.643  27.092  42.872  1.00  0.00     0.148 C
HETATM    5  N3  UNL     1      45.480  26.367  41.890  1.00  0.00    -0.328 N
HETATM    6  C7  UNL     1      46.693  25.788  42.292  1.00  0.00     0.185 C
HETATM    7  N4  UNL     1      46.958  24.562  42.044  1.00  0.00    -0.374 N
ATOM      8  H41 UNL     1      47.840  24.141  42.336  1.00  0.00     0.158 HD
ATOM      9  H42 UNL     1      46.260  24.015  41.539  1.00  0.00     0.158 HD
HETATM   10  N5  UNL     1      47.662  26.548  42.993  1.00  0.00    -0.064 NA
ENDROOT
BRANCH   1  11
HETATM   11  C2  UNL     1      45.499  26.234  39.425  1.00  0.00     0.057 C
HETATM   12  C1  UNL     1      45.369  25.248  38.565  1.00  0.00     0.039 C
HETATM   13  N1  UNL     1      46.503  27.217  39.097  1.00  0.00    -0.104 NA
ENDBRANCH   1  11
BRANCH   2  14
HETATM   14  C4  UNL     1      43.905  28.710  39.878  1.00  0.00     0.352 C
HETATM   15  O1  UNL     1      43.535  28.562  38.692  1.00  0.00    -0.283 OA
ENDBRANCH   2  14
TORSDOF 2
ENDMDL