MODEL 2
REMARK VINA RESULT: -5.069412476      1.319      2.290
REMARK  3 active torsions:
REMARK  status: ('A' for Active; 'I' for Inactive)
REMARK    1  A    between atoms: C2_2  and  C3_3
REMARK    2  A    between atoms: C3_3  and  N1_4
REMARK    3  A    between atoms: N2_7  and  N3_8
REMARK       I    between atoms: N3_8  and  C6_10
ROOT
HETATM    1  N1  UNL     1      45.676  27.434  42.627  1.00  0.00    -0.384 N
HETATM    2  C4  UNL     1      44.371  27.829  42.282  1.00  0.00     0.104 C
HETATM    3  C5  UNL     1      43.585  27.000  41.352  1.00  0.00     0.127 C
HETATM    4  N2  UNL     1      44.290  26.105  40.526  1.00  0.00    -0.298 N
HETATM    5  C7  UNL     1      45.517  25.603  41.027  1.00  0.00     0.168 C
HETATM    6  C8  UNL     1      46.355  26.685  41.626  1.00  0.00     0.144 C
ENDROOT
BRANCH   4   7
HETATM    7  N3  UNL     1      44.177  26.270  39.178  1.00  0.00    -0.272 N
HETATM    8  C6  UNL     1      44.545  27.496  38.571  1.00  0.00     0.200 C
HETATM    9  N4  UNL     1      45.757  27.677  38.188  1.00  0.00    -0.372 N
HETATM   10  N5  UNL     1      43.596  28.520  38.379  1.00  0.00    -0.062 NA
ATOM     11  H42 UNL     1      46.444  26.936  38.327  1.00  0.00     0.158 HD
ATOM     12  H41 UNL     1      46.022  28.560  37.751  1.00  0.00     0.158 HD
ATOM     13  H3  UNL     1      43.825  25.505  38.602  1.00  0.00     0.190 HD
ENDBRANCH   4   7
BRANCH   1  14
HETATM   14  C3  UNL     1      45.907  27.016  43.971  1.00  0.00     0.148 C
BRANCH  14  15
HETATM   15  C2  UNL     1      47.170  26.221  44.052  1.00  0.00    -0.018 C
HETATM   16  C1  UNL     1      47.514  25.482  45.090  1.00  0.00     0.008 C
ENDBRANCH  14  15
ENDBRANCH   1  14
TORSDOF 3
ENDMDL