MODEL 3
REMARK VINA RESULT: -5.975339404      1.539      1.996
REMARK  6 active torsions:
REMARK  status: ('A' for Active; 'I' for Inactive)
REMARK    1  A    between atoms: C1_4  and  C2_5
REMARK    2  A    between atoms: C3_6  and  C4_7
REMARK    3  A    between atoms: C4_7  and  N2_8
REMARK    4  A    between atoms: N2_8  and  C5_10
REMARK    5  A    between atoms: C8_13  and  O1_14
REMARK    6  A    between atoms: C10_17  and  O2_18
ROOT
HETATM    1  C5  UNL     1      44.054  27.069  40.000  1.00  0.00     0.129 C
HETATM    2  C6  UNL     1      44.551  25.769  40.485  1.00  0.00    -0.001 C
HETATM    3  C7  UNL     1      45.071  24.843  39.703  1.00  0.00     0.003 C
HETATM    4  C8  UNL     1      45.218  24.997  38.238  1.00  0.00     0.143 C
HETATM    5  C9  UNL     1      44.360  26.106  37.694  1.00  0.00     0.070 C
HETATM    6  C10 UNL     1      44.508  27.312  38.587  1.00  0.00     0.146 C
ENDROOT
BRANCH   1   7
HETATM    7  N2  UNL     1      44.608  28.174  40.784  1.00  0.00    -0.402 N
ATOM      8  H2  UNL     1      45.154  28.926  40.364  1.00  0.00     0.154 HD
BRANCH   7   9
HETATM    9  C4  UNL     1      44.329  28.118  42.173  1.00  0.00     0.210 C
BRANCH   9  10
HETATM   10  C3  UNL     1      45.383  27.368  42.873  1.00  0.00    -0.081 C
HETATM   11  C2  UNL     1      46.258  26.738  43.424  1.00  0.00    -0.060 C
BRANCH  11  12
HETATM   12  C1  UNL     1      47.293  25.970  44.050  1.00  0.00     0.146 C
HETATM   13  N1  UNL     1      48.190  25.390  43.333  1.00  0.00    -0.401 N
ATOM     14  H12 UNL     1      48.150  25.487  42.319  1.00  0.00     0.156 HD
ATOM     15  H11 UNL     1      48.928  24.844  43.778  1.00  0.00     0.156 HD
ENDBRANCH  11  12
ENDBRANCH   9  10
ENDBRANCH   7   9
ENDBRANCH   1   7
BRANCH   6  16
HETATM   16  O2  UNL     1      45.840  27.655  38.601  1.00  0.00    -0.393 OA
ATOM     17  H2  UNL     1      45.942  28.466  39.085  1.00  0.00     0.210 HD
ENDBRANCH   6  16
BRANCH   4  18
HETATM   18  O1  UNL     1      46.575  25.279  37.940  1.00  0.00    -0.392 OA
ATOM     19  H1  UNL     1      46.696  25.250  36.998  1.00  0.00     0.210 HD
ENDBRANCH   4  18
TORSDOF 6
ENDMDL