MODEL 1
REMARK VINA RESULT: -6.224024320      0.000      0.000
REMARK  4 active torsions:
REMARK  status: ('A' for Active; 'I' for Inactive)
REMARK       I    between atoms: C2_4  and  N2_5
REMARK       I    between atoms: C2_4  and  N3_15
REMARK    1  A    between atoms: N2_5  and  C3_7
REMARK    2  A    between atoms: C4_8  and  C5_9
REMARK    3  A    between atoms: N3_15  and  C11_17
REMARK    4  A    between atoms: C11_17  and  C12_18
REMARK       I    between atoms: C12_18  and  N4_20
ROOT
HETATM    1  C1  UNL     1      15.653  -6.266  30.880  1.00  0.00     0.165 C
HETATM    2  N1  UNL     1      15.446  -5.953  29.487  1.00  0.00    -0.230 N
ATOM      3  H1  UNL     1      15.765  -6.610  28.776  1.00  0.00     0.177 HD
HETATM    4  C2  UNL     1      14.871  -4.872  29.125  1.00  0.00     0.681 C
HETATM    5  N2  UNL     1      14.422  -3.956  30.066  1.00  0.00    -0.149 N
ATOM      6  H2  UNL     1      13.583  -4.166  30.606  1.00  0.00     0.195 HD
HETATM    7  N3  UNL     1      14.691  -4.615  27.746  1.00  0.00    -0.217 N
ATOM      8  H3  UNL     1      13.738  -4.504  27.399  1.00  0.00     0.178 HD
ENDROOT
BRANCH   5   9
HETATM    9  C3  UNL     1      15.103  -2.740  30.291  1.00  0.00     0.031 C
HETATM   10  C4  UNL     1      15.673  -1.690  30.499  1.00  0.00    -0.048 C
BRANCH  10  11
HETATM   11  C5  UNL     1      16.333  -0.430  30.760  1.00  0.00    -0.007 C
HETATM   12  C6  UNL     1      17.089  -0.250  31.820  1.00  0.00    -0.011 C
HETATM   13  C7  UNL     1      17.792   1.003  32.154  1.00  0.00     0.028 C
HETATM   14  C8  UNL     1      17.370   2.171  31.307  1.00  0.00     0.004 C
HETATM   15  C9  UNL     1      17.290   1.669  29.881  1.00  0.00     0.006 C
HETATM   16  C10 UNL     1      16.146   0.680  29.805  1.00  0.00     0.048 C
ENDBRANCH  10  11
ENDBRANCH   5   9
BRANCH   7  17
HETATM   17  C11 UNL     1      15.767  -4.502  26.808  1.00  0.00     0.240 C
BRANCH  17  18
HETATM   18  C12 UNL     1      16.059  -5.691  26.009  1.00  0.00     0.235 C
HETATM   19  O1  UNL     1      16.639  -6.653  26.630  1.00  0.00    -0.272 OA
HETATM   20  N4  UNL     1      15.765  -5.856  24.660  1.00  0.00    -0.364 N
HETATM   21  C13 UNL     1      16.115  -7.106  23.977  1.00  0.00     0.149 C
ATOM     22  H4  UNL     1      15.305  -5.106  24.144  1.00  0.00     0.161 HD
ENDBRANCH  17  18
ENDBRANCH   7  17
TORSDOF 4
ENDMDL