MODEL 3
REMARK VINA RESULT: -6.065253839      2.873      6.100
REMARK  3 active torsions:
REMARK  status: ('A' for Active; 'I' for Inactive)
REMARK       I    between atoms: C2_2  and  N1_4
REMARK    1  A    between atoms: N1_4  and  C3_6
REMARK       I    between atoms: N2_9  and  C6_10
REMARK       I    between atoms: C6_10  and  N4_14
REMARK    2  A    between atoms: N4_14  and  C7_16
REMARK    3  A    between atoms: C12_21  and  O2_22
ROOT
HETATM    1  C3  UNL     1      18.179  -5.560  31.079  1.00  0.00     0.135 C
HETATM    2  C4  UNL     1      17.175  -4.677  31.750  1.00  0.00     0.050 C
HETATM    3  C5  UNL     1      16.709  -3.832  30.556  1.00  0.00     0.146 C
HETATM    4  N2  UNL     1      16.462  -4.889  29.596  1.00  0.00    -0.190 N
HETATM    5  C6  UNL     1      15.400  -4.892  28.659  1.00  0.00     0.672 C
HETATM    6  N3  UNL     1      14.303  -4.221  28.837  1.00  0.00    -0.235 N
ATOM      7  H31 UNL     1      13.538  -4.224  28.162  1.00  0.00     0.174 HD
ATOM      8  H32 UNL     1      14.248  -3.684  29.703  1.00  0.00     0.174 HD
HETATM    9  N4  UNL     1      15.476  -5.645  27.444  1.00  0.00    -0.222 N
ATOM     10  H4  UNL     1      14.926  -6.496  27.324  1.00  0.00     0.178 HD
HETATM   11  C12 UNL     1      17.472  -5.910  29.768  1.00  0.00     0.260 C
ENDROOT
BRANCH  11  12
HETATM   12  O2  UNL     1      16.932  -7.188  29.861  1.00  0.00    -0.374 OA
ATOM     13  H2  UNL     1      16.234  -7.283  29.223  1.00  0.00     0.212 HD
ENDBRANCH  11  12
BRANCH   9  14
HETATM   14  C7  UNL     1      16.350  -5.174  26.390  1.00  0.00     0.099 C
HETATM   15  C8  UNL     1      17.290  -6.288  25.978  1.00  0.00     0.026 C
HETATM   16  C9  UNL     1      16.605  -7.006  24.840  1.00  0.00     0.002 C
HETATM   17  C10 UNL     1      15.525  -6.113  24.322  1.00  0.00     0.002 C
HETATM   18  C11 UNL     1      15.567  -4.838  25.140  1.00  0.00     0.026 C
ENDBRANCH   9  14
BRANCH   1  19
HETATM   19  N1  UNL     1      18.538  -6.723  31.823  1.00  0.00    -0.352 N
HETATM   20  C2  UNL     1      19.622  -6.777  32.739  1.00  0.00     0.214 C
HETATM   21  C1  UNL     1      19.990  -7.974  33.504  1.00  0.00     0.117 C
HETATM   22  O1  UNL     1      20.299  -5.729  32.891  1.00  0.00    -0.274 OA
ATOM     23  H1  UNL     1      17.981  -7.567  31.690  1.00  0.00     0.163 HD
ENDBRANCH   1  19
TORSDOF 3
ENDMDL