MODEL 5
REMARK VINA RESULT: -5.820887635      2.331      3.338
REMARK  4 active torsions:
REMARK  status: ('A' for Active; 'I' for Inactive)
REMARK    1  A    between atoms: N1_2  and  N2_3
REMARK    2  A    between atoms: N2_3  and  C2_5
REMARK    3  A    between atoms: C2_5  and  N3_7
REMARK       I    between atoms: N3_7  and  C3_9
REMARK       I    between atoms: C3_9  and  N5_13
REMARK    4  A    between atoms: N5_13  and  C4_15
ROOT
HETATM    1  C2  UNL     1      16.735  -5.512  27.599  1.00  0.00     0.210 C
HETATM    2  S1  UNL     1      18.194  -6.188  27.816  1.00  0.00    -0.039 SA
ENDROOT
BRANCH   1   3
HETATM    3  N2  UNL     1      15.799  -5.459  28.632  1.00  0.00    -0.191 N
ATOM      4  H2  UNL     1      15.054  -6.154  28.663  1.00  0.00     0.196 HD
BRANCH   3   5
HETATM    5  N1  UNL     1      15.855  -4.479  29.623  1.00  0.00     0.010 N
HETATM    6  C1  UNL     1      16.363  -3.266  28.968  1.00  0.00     0.302 C
HETATM    7  C5  UNL     1      16.762  -4.844  30.650  1.00  0.00     0.264 C
HETATM    8  C6  UNL     1      16.247  -4.675  32.049  1.00  0.00     0.030 C
HETATM    9  C7  UNL     1      15.277  -5.725  32.489  1.00  0.00     0.002 C
HETATM   10  C8  UNL     1      14.470  -6.293  31.347  1.00  0.00     0.002 C
HETATM   11  C9  UNL     1      13.707  -5.234  30.616  1.00  0.00     0.030 C
HETATM   12  C10 UNL     1      14.518  -4.134  30.056  1.00  0.00     0.264 C
ENDBRANCH   3   5
ENDBRANCH   1   3
BRANCH   1  13
HETATM   13  N3  UNL     1      16.431  -4.971  26.321  1.00  0.00    -0.165 N
HETATM   14  C3  UNL     1      15.139  -5.063  25.737  1.00  0.00     0.680 C
HETATM   15  N4  UNL     1      14.161  -4.329  26.162  1.00  0.00    -0.234 N
HETATM   16  N5  UNL     1      14.948  -5.986  24.672  1.00  0.00    -0.168 N
ATOM     17  H42 UNL     1      14.297  -3.668  26.926  1.00  0.00     0.174 HD
ATOM     18  H41 UNL     1      13.234  -4.395  25.743  1.00  0.00     0.174 HD
ATOM     19  H5  UNL     1      14.026  -6.063  24.241  1.00  0.00     0.186 HD
ATOM     20  H3  UNL     1      17.170  -4.497  25.802  1.00  0.00     0.186 HD
BRANCH  16  21
HETATM   21  C4  UNL     1      16.008  -6.803  24.189  1.00  0.00     0.368 C
HETATM   22  O1  UNL     1      16.533  -7.657  24.947  1.00  0.00    -0.283 OA
ENDBRANCH  16  21
ENDBRANCH   1  13
TORSDOF 4
ENDMDL