MODEL 1
REMARK VINA RESULT: -6.964853101      0.000      0.000
REMARK  2 active torsions:
REMARK  status: ('A' for Active; 'I' for Inactive)
REMARK    1  A    between atoms: N1_2  and  C2_5
REMARK    2  A    between atoms: C4_7  and  N2_8
REMARK       I    between atoms: N2_8  and  C5_10
REMARK       I    between atoms: C5_10  and  N3_12
ROOT
HETATM    1  C2  UNL     1      19.048  -7.038  31.310  1.00  0.00     0.192 C
HETATM    2  C3  UNL     1      19.025  -7.524  29.905  1.00  0.00     0.064 C
HETATM    3  C4  UNL     1      18.212  -6.462  29.103  1.00  0.00     0.037 C
HETATM    4  C7  UNL     1      17.000  -6.085  29.908  1.00  0.00     0.036 C
HETATM    5  C8  UNL     1      17.366  -5.194  31.076  1.00  0.00    -0.005 C
HETATM    6  C9  UNL     1      17.989  -3.884  30.606  1.00  0.00     0.010 C
HETATM    7  C10 UNL     1      19.280  -4.699  30.412  1.00  0.00    -0.005 C
HETATM    8  C11 UNL     1      19.163  -5.292  29.025  1.00  0.00     0.036 C
HETATM    9  C12 UNL     1      18.778  -5.592  31.494  1.00  0.00     0.025 C
ENDROOT
BRANCH   3  10
HETATM   10  N2  UNL     1      17.853  -7.025  27.837  1.00  0.00    -0.334 N
HETATM   11  C5  UNL     1      17.128  -6.284  26.880  1.00  0.00     0.322 C
HETATM   12  O1  UNL     1      16.742  -5.101  27.029  1.00  0.00    -0.247 OA
HETATM   13  N3  UNL     1      16.802  -6.921  25.639  1.00  0.00    -0.285 N
HETATM   14  C6  UNL     1      16.193  -6.348  24.676  1.00  0.00     0.204 C
ATOM     15  H3  UNL     1      17.074  -7.897  25.518  1.00  0.00     0.172 HD
HETATM   16  N4  UNL     1      15.948  -7.131  23.509  1.00  0.00    -0.066 NA
HETATM   17  N5  UNL     1      15.738  -5.005  24.661  1.00  0.00    -0.066 NA
ATOM     18  H2  UNL     1      18.127  -7.983  27.622  1.00  0.00     0.165 HD
ENDBRANCH   3  10
BRANCH   1  19
HETATM   19  N1  UNL     1      20.338  -7.317  31.962  1.00  0.00    -0.074 N
HETATM   20  C1  UNL     1      20.775  -8.662  31.752  1.00  0.00     0.267 C
ATOM     21  H12 UNL     1      20.304  -7.092  32.956  1.00  0.00     0.277 HD
ATOM     22  H11 UNL     1      21.051  -6.649  31.668  1.00  0.00     0.277 HD
ENDBRANCH   1  19
TORSDOF 2
ENDMDL