MODEL 2
REMARK VINA RESULT: -5.515489438      2.033      2.871
REMARK  6 active torsions:
REMARK  status: ('A' for Active; 'I' for Inactive)
REMARK    1  A    between atoms: C2_2  and  N1_3
REMARK    2  A    between atoms: C2_2  and  C5_14
REMARK    3  A    between atoms: N1_3  and  C3_5
REMARK    4  A    between atoms: C3_5  and  N2_7
REMARK    5  A    between atoms: N2_7  and  N3_9
REMARK    6  A    between atoms: N3_9  and  C4_11
ROOT
HETATM    1  N1  UNL     1      15.434  -4.817  27.632  1.00  0.00    -0.361 N
ATOM      2  H1  UNL     1      14.841  -4.348  26.948  1.00  0.00     0.162 HD
ENDROOT
BRANCH   1   3
HETATM    3  C2  UNL     1      16.485  -5.681  27.147  1.00  0.00     0.083 C
HETATM    4  C1  UNL     1      17.803  -5.306  27.773  1.00  0.00     0.032 C
BRANCH   3   5
HETATM    5  C5  UNL     1      16.539  -5.740  25.648  1.00  0.00     0.008 C
HETATM    6  C6  UNL     1      17.262  -6.906  25.082  1.00  0.00     0.007 C
HETATM    7  C7  UNL     1      16.315  -7.650  24.168  1.00  0.00     0.000 C
HETATM    8  C8  UNL     1      15.418  -6.530  23.686  1.00  0.00     0.000 C
HETATM    9  C9  UNL     1      15.167  -5.795  25.013  1.00  0.00     0.007 C
ENDBRANCH   3   5
ENDBRANCH   1   3
BRANCH   1  10
HETATM   10  C3  UNL     1      15.183  -4.588  29.004  1.00  0.00     0.186 C
HETATM   11  S1  UNL     1      15.032  -5.846  30.055  1.00  0.00    -0.040 SA
BRANCH  10  12
HETATM   12  N2  UNL     1      15.053  -3.270  29.521  1.00  0.00    -0.274 N
ATOM     13  H2  UNL     1      14.380  -3.095  30.268  1.00  0.00     0.189 HD
BRANCH  12  14
HETATM   14  N3  UNL     1      15.818  -2.212  29.037  1.00  0.00    -0.276 N
ATOM     15  H3  UNL     1      16.410  -2.376  28.223  1.00  0.00     0.189 HD
BRANCH  14  16
HETATM   16  C4  UNL     1      15.818  -0.918  29.618  1.00  0.00     0.199 C
HETATM   17  N4  UNL     1      15.831   0.248  28.807  1.00  0.00    -0.068 NA
HETATM   18  S2  UNL     1      15.803  -0.715  31.234  1.00  0.00    -0.043 SA
ENDBRANCH  14  16
ENDBRANCH  12  14
ENDBRANCH  10  12
ENDBRANCH   1  10
TORSDOF 6
ENDMDL