MODEL 5
REMARK VINA RESULT: -6.069328487      2.387      5.900
REMARK  3 active torsions:
REMARK  status: ('A' for Active; 'I' for Inactive)
REMARK    1  A    between atoms: C2_2  and  N1_3
REMARK       I    between atoms: N1_3  and  C3_5
REMARK       I    between atoms: C3_5  and  N2_7
REMARK       I    between atoms: C4_9  and  N3_10
REMARK       I    between atoms: C4_9  and  N5_14
REMARK    2  A    between atoms: N5_14  and  C6_16
REMARK    3  A    between atoms: C11_21  and  N6_22
ROOT
HETATM    1  N1  UNL     1      15.508  -5.747  24.579  1.00  0.00    -0.343 N
ATOM      2  H1  UNL     1      15.143  -4.817  24.378  1.00  0.00     0.164 HD
HETATM    3  C3  UNL     1      16.012  -5.997  25.877  1.00  0.00     0.334 C
HETATM    4  O1  UNL     1      16.461  -7.146  26.118  1.00  0.00    -0.247 OA
HETATM    5  N2  UNL     1      16.039  -5.035  26.909  1.00  0.00    -0.141 N
ATOM      6  H2  UNL     1      15.191  -4.490  27.065  1.00  0.00     0.189 HD
HETATM    7  C4  UNL     1      17.035  -4.792  27.662  1.00  0.00     0.691 C
HETATM    8  N3  UNL     1      18.233  -5.508  27.498  1.00  0.00    -0.126 N
ATOM      9  H3  UNL     1      18.714  -5.401  26.606  1.00  0.00     0.197 HD
HETATM   10  C5  UNL     1      18.821  -6.340  28.426  1.00  0.00     0.196 C
HETATM   11  N4  UNL     1      19.327  -7.026  29.199  1.00  0.00    -0.171 NA
HETATM   12  N5  UNL     1      16.953  -3.810  28.662  1.00  0.00    -0.219 N
ATOM     13  H5  UNL     1      17.656  -3.071  28.641  1.00  0.00     0.178 HD
ENDROOT
BRANCH  12  14
HETATM   14  C6  UNL     1      15.983  -3.745  29.702  1.00  0.00     0.129 C
HETATM   15  C7  UNL     1      16.277  -4.875  30.694  1.00  0.00     0.027 C
HETATM   16  C8  UNL     1      14.998  -5.178  31.486  1.00  0.00     0.002 C
HETATM   17  C9  UNL     1      14.268  -3.867  31.650  1.00  0.00     0.002 C
HETATM   18  C10 UNL     1      15.284  -2.745  31.807  1.00  0.00     0.035 C
HETATM   19  C11 UNL     1      15.969  -2.456  30.466  1.00  0.00     0.206 C
BRANCH  19  20
HETATM   20  N6  UNL     1      15.182  -1.424  29.824  1.00  0.00    -0.073 N
ATOM     21  H63 UNL     1      14.217  -1.730  29.696  1.00  0.00     0.274 HD
ATOM     22  H62 UNL     1      15.026  -0.639  30.456  1.00  0.00     0.274 HD
ATOM     23  H61 UNL     1      15.583  -1.106  28.941  1.00  0.00     0.274 HD
ENDBRANCH  19  20
ENDBRANCH  12  14
BRANCH   1  24
HETATM   24  C2  UNL     1      15.480  -6.723  23.528  1.00  0.00     0.120 C
HETATM   25  C1  UNL     1      14.087  -6.783  22.944  1.00  0.00     0.026 C
ENDBRANCH   1  24
TORSDOF 3
ENDMDL