MODEL 3
REMARK VINA RESULT: -6.580337393      1.976      2.439
REMARK  3 active torsions:
REMARK  status: ('A' for Active; 'I' for Inactive)
REMARK    1  A    between atoms: C4_4  and  C5_5
REMARK    2  A    between atoms: C5_5  and  N1_6
REMARK       I    between atoms: N1_6  and  C6_8
REMARK       I    between atoms: C6_8  and  N3_12
REMARK    3  A    between atoms: N3_12  and  N4_14
REMARK       I    between atoms: N4_14  and  C7_16
REMARK       I    between atoms: C7_16  and  N5_18
ROOT
HETATM    1  N1  UNL     1      15.560  -4.278  31.321  1.00  0.00    -0.225 N
ATOM      2  H1  UNL     1      16.506  -4.072  31.643  1.00  0.00     0.177 HD
HETATM    3  C6  UNL     1      15.048  -3.759  30.078  1.00  0.00     0.686 C
HETATM    4  N2  UNL     1      15.051  -2.495  29.855  1.00  0.00    -0.234 N
ATOM      5  H21 UNL     1      14.688  -2.127  28.975  1.00  0.00     0.174 HD
ATOM      6  H22 UNL     1      15.428  -1.881  30.578  1.00  0.00     0.174 HD
HETATM    7  N3  UNL     1      14.522  -4.613  29.072  1.00  0.00    -0.129 N
ATOM      8  H3  UNL     1      13.520  -4.799  29.039  1.00  0.00     0.205 HD
ENDROOT
BRANCH   7   9
HETATM    9  N4  UNL     1      15.357  -5.194  28.134  1.00  0.00    -0.237 N
HETATM   10  C7  UNL     1      15.119  -5.031  26.752  1.00  0.00     0.337 C
HETATM   11  O1  UNL     1      14.120  -4.335  26.378  1.00  0.00    -0.245 OA
HETATM   12  N5  UNL     1      15.947  -5.614  25.753  1.00  0.00    -0.333 N
HETATM   13  C8  UNL     1      15.687  -5.400  24.352  1.00  0.00     0.127 C
HETATM   14  C12 UNL     1      17.070  -6.446  26.093  1.00  0.00     0.127 C
HETATM   15  C9  UNL     1      15.461  -6.707  23.630  1.00  0.00     0.020 C
HETATM   16  C10 UNL     1      16.366  -7.794  24.076  1.00  0.00     0.003 C
HETATM   17  C11 UNL     1      17.469  -7.401  25.003  1.00  0.00     0.020 C
ATOM     18  H4  UNL     1      16.156  -5.747  28.446  1.00  0.00     0.192 HD
ENDBRANCH   7   9
BRANCH   1  19
HETATM   19  C5  UNL     1      14.650  -5.112  32.090  1.00  0.00     0.143 C
BRANCH  19  20
HETATM   20  C4  UNL     1      13.217  -4.790  31.821  1.00  0.00     0.008 A
HETATM   21  C2  UNL     1      12.126  -5.685  32.286  1.00  0.00    -0.013 A
HETATM   22  C1  UNL     1      10.920  -5.796  31.368  1.00  0.00     0.010 C
HETATM   23  C3  UNL     1      12.387  -4.448  33.046  1.00  0.00     0.011 A
ENDBRANCH  19  20
ENDBRANCH   1  19
TORSDOF 3
ENDMDL