MODEL 4
REMARK VINA RESULT: -6.283393103      2.427      3.236
REMARK  5 active torsions:
REMARK  status: ('A' for Active; 'I' for Inactive)
REMARK       I    between atoms: C1_2  and  N1_3
REMARK    1  A    between atoms: C1_2  and  C6_17
REMARK    2  A    between atoms: N1_3  and  N2_5
REMARK    3  A    between atoms: N2_5  and  C2_7
REMARK    4  A    between atoms: C2_7  and  N3_9
REMARK    5  A    between atoms: N3_9  and  C3_11
ROOT
HETATM    1  N2  UNL     1      14.572  -3.814  29.179  1.00  0.00    -0.274 N
ATOM      2  H2  UNL     1      14.019  -2.965  29.060  1.00  0.00     0.189 HD
ENDROOT
BRANCH   1   3
HETATM    3  N1  UNL     1      14.609  -4.776  28.152  1.00  0.00    -0.268 N
HETATM    4  C1  UNL     1      15.675  -4.715  27.258  1.00  0.00     0.240 C
HETATM    5  O1  UNL     1      16.551  -3.777  27.411  1.00  0.00    -0.271 OA
ATOM      6  H1  UNL     1      13.885  -5.489  28.067  1.00  0.00     0.190 HD
BRANCH   4   7
HETATM    7  C6  UNL     1      15.882  -5.627  26.155  1.00  0.00     0.079 C
HETATM    8  C7  UNL     1      17.278  -6.209  26.071  1.00  0.00     0.014 C
HETATM    9  C8  UNL     1      17.377  -7.119  24.854  1.00  0.00     0.001 C
HETATM   10  C9  UNL     1      16.003  -7.384  24.248  1.00  0.00     0.000 C
HETATM   11  C10 UNL     1      15.242  -6.160  23.881  1.00  0.00     0.001 C
HETATM   12  C11 UNL     1      15.619  -4.998  24.794  1.00  0.00     0.014 C
ENDBRANCH   4   7
ENDBRANCH   1   3
BRANCH   1  13
HETATM   13  C2  UNL     1      15.290  -4.018  30.360  1.00  0.00     0.186 C
HETATM   14  S1  UNL     1      14.424  -4.669  31.622  1.00  0.00    -0.040 SA
BRANCH  13  15
HETATM   15  N3  UNL     1      16.638  -3.702  30.593  1.00  0.00    -0.358 N
ATOM     16  H3  UNL     1      16.964  -2.744  30.469  1.00  0.00     0.162 HD
BRANCH  15  17
HETATM   17  C3  UNL     1      17.560  -4.723  31.006  1.00  0.00     0.135 C
HETATM   18  C4  UNL     1      17.633  -5.830  29.988  1.00  0.00     0.259 C
HETATM   19  N4  UNL     1      18.734  -5.078  29.354  1.00  0.00    -0.071 N
HETATM   20  C5  UNL     1      19.015  -4.527  30.663  1.00  0.00     0.259 C
ATOM     21  H42 UNL     1      19.457  -5.553  28.814  1.00  0.00     0.277 HD
ATOM     22  H41 UNL     1      18.567  -4.473  28.549  1.00  0.00     0.277 HD
ENDBRANCH  15  17
ENDBRANCH  13  15
ENDBRANCH   1  13
TORSDOF 5
ENDMDL