MODEL 3
REMARK VINA RESULT: -5.327257134      1.599      2.228
REMARK  8 active torsions:
REMARK  status: ('A' for Active; 'I' for Inactive)
REMARK    1  A    between atoms: C3_3  and  C5_5
REMARK    2  A    between atoms: C5_5  and  N1_7
REMARK    3  A    between atoms: N1_7  and  C7_9
REMARK    4  A    between atoms: C7_9  and  N2_11
REMARK    5  A    between atoms: N2_11  and  N3_13
REMARK    6  A    between atoms: N3_13  and  C8_15
REMARK    7  A    between atoms: C8_15  and  N4_17
REMARK    8  A    between atoms: N4_17  and  C9_19
ROOT
HETATM    1  C1  UNL     1      13.643  -6.811  22.884  1.00  0.00     0.097 C
HETATM    2  C2  UNL     1      14.708  -6.650  23.478  1.00  0.00    -0.181 C
HETATM    3  C3  UNL     1      15.967  -6.488  24.125  1.00  0.00     0.070 C
HETATM    4  C4  UNL     1      16.605  -7.898  24.183  1.00  0.00     0.024 C
ENDROOT
BRANCH   3   5
HETATM    5  C5  UNL     1      15.893  -5.967  25.505  1.00  0.00     0.094 C
HETATM    6  C6  UNL     1      15.259  -4.570  25.436  1.00  0.00     0.033 C
BRANCH   5   7
HETATM    7  N1  UNL     1      17.062  -5.927  26.295  1.00  0.00    -0.361 N
ATOM      8  H1  UNL     1      17.904  -5.694  25.768  1.00  0.00     0.162 HD
BRANCH   7   9
HETATM    9  C7  UNL     1      17.295  -6.142  27.653  1.00  0.00     0.186 C
HETATM   10  S1  UNL     1      18.773  -6.059  28.309  1.00  0.00    -0.040 SA
BRANCH   9  11
HETATM   11  N2  UNL     1      16.202  -6.402  28.527  1.00  0.00    -0.274 N
ATOM     12  H2  UNL     1      15.994  -7.371  28.766  1.00  0.00     0.189 HD
BRANCH  11  13
HETATM   13  N3  UNL     1      15.405  -5.404  29.070  1.00  0.00    -0.274 N
ATOM     14  H3  UNL     1      15.390  -4.471  28.657  1.00  0.00     0.189 HD
BRANCH  13  15
HETATM   15  C8  UNL     1      14.610  -5.701  30.210  1.00  0.00     0.186 C
HETATM   16  S2  UNL     1      15.103  -6.848  31.288  1.00  0.00    -0.040 SA
BRANCH  15  17
HETATM   17  N4  UNL     1      13.387  -5.027  30.452  1.00  0.00    -0.366 N
ATOM     18  H4  UNL     1      12.996  -4.431  29.722  1.00  0.00     0.161 HD
BRANCH  17  19
HETATM   19  C9  UNL     1      12.686  -5.160  31.691  1.00  0.00     0.117 C
HETATM   20  C10 UNL     1      11.336  -5.780  31.500  1.00  0.00     0.026 C
ENDBRANCH  17  19
ENDBRANCH  15  17
ENDBRANCH  13  15
ENDBRANCH  11  13
ENDBRANCH   9  11
ENDBRANCH   7   9
ENDBRANCH   5   7
ENDBRANCH   3   5
TORSDOF 8
ENDMDL