MODEL 2
REMARK VINA RESULT: -5.612409379      3.134      4.651
REMARK  4 active torsions:
REMARK  status: ('A' for Active; 'I' for Inactive)
REMARK       I    between atoms: C1_2  and  N2_4
REMARK    1  A    between atoms: N2_4  and  N3_6
REMARK    2  A    between atoms: N3_6  and  C2_8
REMARK    3  A    between atoms: C2_8  and  N4_10
REMARK    4  A    between atoms: N4_10  and  C3_12
ROOT
HETATM    1  N4  UNL     1      17.115  -6.896  29.389  1.00  0.00    -0.357 N
ATOM      2  H4  UNL     1      17.249  -7.873  29.648  1.00  0.00     0.162 HD
ENDROOT
BRANCH   1   3
HETATM    3  C2  UNL     1      17.895  -6.443  28.316  1.00  0.00     0.187 C
HETATM    4  S1  UNL     1      19.056  -5.339  28.480  1.00  0.00    -0.040 SA
BRANCH   3   5
HETATM    5  N3  UNL     1      17.701  -6.953  26.978  1.00  0.00    -0.273 N
ATOM      6  H3  UNL     1      18.284  -7.728  26.662  1.00  0.00     0.189 HD
BRANCH   5   7
HETATM    7  N2  UNL     1      16.757  -6.435  26.104  1.00  0.00    -0.252 N
HETATM    8  C1  UNL     1      16.433  -6.919  24.831  1.00  0.00     0.347 C
HETATM    9  N1  UNL     1      15.425  -6.266  24.043  1.00  0.00    -0.038 NA
HETATM   10  O1  UNL     1      16.972  -7.920  24.299  1.00  0.00    -0.249 OA
ATOM     11  H2  UNL     1      16.244  -5.614  26.423  1.00  0.00     0.191 HD
ENDBRANCH   5   7
ENDBRANCH   3   5
ENDBRANCH   1   3
BRANCH   1  12
HETATM   12  C3  UNL     1      16.171  -6.186  30.161  1.00  0.00     0.033 C
HETATM   13  C4  UNL     1      15.322  -5.292  29.231  1.00  0.00     0.035 C
HETATM   14  C5  UNL     1      14.392  -4.426  29.989  1.00  0.00    -0.012 C
HETATM   15  C6  UNL     1      13.457  -5.327  30.791  1.00  0.00     0.010 C
HETATM   16  C10 UNL     1      15.048  -3.657  31.130  1.00  0.00     0.010 C
HETATM   17  C7  UNL     1      14.491  -5.916  31.762  1.00  0.00    -0.008 C
HETATM   18  C8  UNL     1      15.167  -7.012  30.923  1.00  0.00     0.036 C
HETATM   19  C9  UNL     1      15.516  -4.846  31.968  1.00  0.00    -0.008 C
HETATM   20  C11 UNL     1      16.780  -5.350  31.251  1.00  0.00     0.036 C
ENDBRANCH   1  12
TORSDOF 4
ENDMDL