MODEL 5
REMARK VINA RESULT: -6.335729467      1.752      3.104
REMARK  18 active torsions:
REMARK  status: ('A' for Active; 'I' for Inactive)
REMARK    1  A    between atoms: O1_2  and  C2_3
REMARK    2  A    between atoms: C2_3  and  C3_4
REMARK    3  A    between atoms: C3_4  and  O2_5
REMARK    4  A    between atoms: O2_5  and  C4_6
REMARK    5  A    between atoms: C4_6  and  C5_7
REMARK    6  A    between atoms: C5_7  and  O3_8
REMARK    7  A    between atoms: O3_8  and  C6_9
REMARK    8  A    between atoms: C6_9  and  C7_10
REMARK    9  A    between atoms: C7_10  and  O4_11
REMARK   10  A    between atoms: O4_11  and  C8_12
REMARK   11  A    between atoms: C8_12  and  C9_13
REMARK   12  A    between atoms: C9_13  and  O5_14
REMARK   13  A    between atoms: O5_14  and  C10_15
REMARK   14  A    between atoms: C10_15  and  C11_16
REMARK   15  A    between atoms: C11_16  and  O6_17
REMARK   16  A    between atoms: O6_17  and  C12_18
REMARK   17  A    between atoms: C12_18  and  C13_19
REMARK   18  A    between atoms: C13_19  and  N1_20
ROOT
HETATM    1  C11 UNL     1      44.986  21.959   2.012  1.00  0.00     0.193 C
ENDROOT
BRANCH   1   2
HETATM    2  C10 UNL     1      44.674  21.767   0.563  1.00  0.00     0.193 C
BRANCH   2   3
HETATM    3  O5  UNL     1      45.890  21.945  -0.179  1.00  0.00    -0.387 OA
BRANCH   3   4
HETATM    4  C9  UNL     1      45.847  20.924  -1.158  1.00  0.00     0.193 C
BRANCH   4   5
HETATM    5  C8  UNL     1      46.164  21.503  -2.524  1.00  0.00     0.193 C
BRANCH   5   6
HETATM    6  O4  UNL     1      45.175  22.295  -3.014  1.00  0.00    -0.387 OA
BRANCH   6   7
HETATM    7  C7  UNL     1      44.048  21.752  -3.506  1.00  0.00     0.193 C
BRANCH   7   8
HETATM    8  C6  UNL     1      42.741  22.204  -2.860  1.00  0.00     0.193 C
BRANCH   8   9
HETATM    9  O3  UNL     1      42.313  21.247  -2.001  1.00  0.00    -0.387 OA
BRANCH   9  10
HETATM   10  C5  UNL     1      42.323  19.945  -2.343  1.00  0.00     0.193 C
BRANCH  10  11
HETATM   11  C4  UNL     1      42.684  18.963  -1.291  1.00  0.00     0.193 C
BRANCH  11  12
HETATM   12  O2  UNL     1      41.744  17.987  -1.138  1.00  0.00    -0.387 OA
BRANCH  12  13
HETATM   13  C3  UNL     1      41.521  17.631   0.182  1.00  0.00     0.193 C
BRANCH  13  14
HETATM   14  C2  UNL     1      40.049  17.673   0.541  1.00  0.00     0.193 C
BRANCH  14  15
HETATM   15  O1  UNL     1      39.343  18.461  -0.355  1.00  0.00    -0.394 OA
HETATM   16  C1  UNL     1      38.201  17.786  -0.768  1.00  0.00     0.201 C
ENDBRANCH  14  15
ENDBRANCH  13  14
ENDBRANCH  12  13
ENDBRANCH  11  12
ENDBRANCH  10  11
ENDBRANCH   9  10
ENDBRANCH   8   9
ENDBRANCH   7   8
ENDBRANCH   6   7
ENDBRANCH   5   6
ENDBRANCH   4   5
ENDBRANCH   3   4
ENDBRANCH   2   3
ENDBRANCH   1   2
BRANCH   1  17
HETATM   17  O6  UNL     1      44.571  21.134   2.933  1.00  0.00    -0.387 OA
BRANCH  17  18
HETATM   18  C12 UNL     1      43.447  21.007   3.588  1.00  0.00     0.198 C
BRANCH  18  19
HETATM   19  C13 UNL     1      42.441  20.078   3.004  1.00  0.00     0.299 C
BRANCH  19  20
HETATM   20  N1  UNL     1      41.169  20.802   2.726  1.00  0.00     0.098 N
HETATM   21  C14 UNL     1      41.192  21.961   3.570  1.00  0.00     0.312 C
HETATM   22  C15 UNL     1      40.118  22.940   3.257  1.00  0.00    -0.018 A
HETATM   23  C16 UNL     1      39.660  23.819   4.228  1.00  0.00     0.010 A
HETATM   24  C24 UNL     1      39.578  22.987   2.001  1.00  0.00    -0.010 A
HETATM   25  C17 UNL     1      38.671  24.725   3.921  1.00  0.00     0.002 A
HETATM   26  C18 UNL     1      38.136  24.761   2.650  1.00  0.00     0.012 A
HETATM   27  C19 UNL     1      38.571  23.897   1.657  1.00  0.00    -0.025 A
HETATM   28  C20 UNL     1      38.018  23.955   0.399  1.00  0.00     0.012 A
HETATM   29  C21 UNL     1      38.466  23.089  -0.559  1.00  0.00     0.002 A
HETATM   30  C22 UNL     1      39.453  22.186  -0.244  1.00  0.00     0.010 A
HETATM   31  C23 UNL     1      40.023  22.121   1.037  1.00  0.00    -0.018 A
HETATM   32  C25 UNL     1      41.072  21.137   1.331  1.00  0.00     0.312 C
ENDBRANCH  19  20
ENDBRANCH  18  19
ENDBRANCH  17  18
ENDBRANCH   1  17
TORSDOF 18
ENDMDL