MODEL 2
REMARK VINA RESULT: -7.062752221      0.990      1.429
REMARK  19 active torsions:
REMARK  status: ('A' for Active; 'I' for Inactive)
REMARK    1  A    between atoms: O1_2  and  C2_3
REMARK    2  A    between atoms: C2_3  and  C3_4
REMARK    3  A    between atoms: C3_4  and  O2_5
REMARK    4  A    between atoms: O2_5  and  C4_6
REMARK    5  A    between atoms: C4_6  and  C5_7
REMARK    6  A    between atoms: C5_7  and  O3_8
REMARK    7  A    between atoms: O3_8  and  C6_9
REMARK    8  A    between atoms: C6_9  and  C7_10
REMARK    9  A    between atoms: C7_10  and  O4_11
REMARK   10  A    between atoms: O4_11  and  C8_12
REMARK   11  A    between atoms: C8_12  and  C9_13
REMARK   12  A    between atoms: C9_13  and  O5_14
REMARK   13  A    between atoms: O5_14  and  C10_15
REMARK   14  A    between atoms: C10_15  and  C11_16
REMARK   15  A    between atoms: C11_16  and  O6_17
REMARK   16  A    between atoms: O6_17  and  C12_18
REMARK   17  A    between atoms: C15_21  and  C16_22
REMARK   18  A    between atoms: C23_29  and  O7_30
REMARK   19  A    between atoms: O7_30  and  C24_31
ROOT
HETATM    1  C11 UNL     1      42.854  20.172   2.991  1.00  0.00     0.201 C
ENDROOT
BRANCH   1   2
HETATM    2  C10 UNL     1      43.629  20.910   4.046  1.00  0.00     0.194 C
BRANCH   2   3
HETATM    3  O5  UNL     1      44.308  21.990   3.575  1.00  0.00    -0.387 OA
BRANCH   3   4
HETATM    4  C9  UNL     1      45.337  21.683   2.730  1.00  0.00     0.193 C
BRANCH   4   5
HETATM    5  C8  UNL     1      45.455  22.735   1.641  1.00  0.00     0.193 C
BRANCH   5   6
HETATM    6  O4  UNL     1      45.957  22.207   0.479  1.00  0.00    -0.387 OA
BRANCH   6   7
HETATM    7  C7  UNL     1      45.146  21.263  -0.091  1.00  0.00     0.193 C
BRANCH   7   8
HETATM    8  C6  UNL     1      45.453  21.048  -1.528  1.00  0.00     0.193 C
BRANCH   8   9
HETATM    9  O3  UNL     1      44.361  21.297  -2.364  1.00  0.00    -0.387 OA
BRANCH   9  10
HETATM   10  C5  UNL     1      43.182  21.555  -1.708  1.00  0.00     0.193 C
BRANCH  10  11
HETATM   11  C4  UNL     1      42.089  20.585  -2.018  1.00  0.00     0.193 C
BRANCH  11  12
HETATM   12  O2  UNL     1      42.315  19.286  -1.647  1.00  0.00    -0.387 OA
BRANCH  12  13
HETATM   13  C3  UNL     1      41.206  18.621  -1.132  1.00  0.00     0.193 C
BRANCH  13  14
HETATM   14  C2  UNL     1      41.660  17.970   0.152  1.00  0.00     0.193 C
BRANCH  14  15
HETATM   15  O1  UNL     1      40.681  17.756   1.080  1.00  0.00    -0.394 OA
HETATM   16  C1  UNL     1      39.534  17.267   0.505  1.00  0.00     0.201 C
ENDBRANCH  14  15
ENDBRANCH  13  14
ENDBRANCH  12  13
ENDBRANCH  11  12
ENDBRANCH  10  11
ENDBRANCH   9  10
ENDBRANCH   8   9
ENDBRANCH   7   8
ENDBRANCH   6   7
ENDBRANCH   5   6
ENDBRANCH   4   5
ENDBRANCH   3   4
ENDBRANCH   2   3
ENDBRANCH   1   2
BRANCH   1  17
HETATM   17  O6  UNL     1      41.471  20.180   3.213  1.00  0.00    -0.346 OA
BRANCH  17  18
HETATM   18  C12 UNL     1      40.719  21.225   2.708  1.00  0.00     0.102 A
HETATM   19  C13 UNL     1      40.435  21.295   1.349  1.00  0.00     0.040 A
HETATM   20  C14 UNL     1      39.697  22.325   0.865  1.00  0.00     0.010 A
HETATM   21  C15 UNL     1      39.188  23.347   1.649  1.00  0.00    -0.051 A
HETATM   22  C22 UNL     1      39.476  23.266   2.995  1.00  0.00     0.047 A
HETATM   23  C23 UNL     1      40.222  22.237   3.526  1.00  0.00     0.112 A
BRANCH  21  24
HETATM   24  C16 UNL     1      38.383  24.449   1.066  1.00  0.00     0.018 C
HETATM   25  C17 UNL     1      37.527  25.007   2.187  1.00  0.00     0.009 C
HETATM   26  C18 UNL     1      36.549  25.973   1.605  1.00  0.00     0.001 C
HETATM   27  C19 UNL     1      36.900  26.383   0.198  1.00  0.00     0.000 C
HETATM   28  C20 UNL     1      36.994  25.250  -0.770  1.00  0.00     0.001 C
HETATM   29  C21 UNL     1      37.563  24.014  -0.104  1.00  0.00     0.009 C
ENDBRANCH  21  24
BRANCH  23  30
HETATM   30  O7  UNL     1      40.509  22.165   4.891  1.00  0.00    -0.283 OA
BRANCH  30  31
HETATM   31  C24 UNL     1      40.591  23.305   5.696  1.00  0.00     0.403 C
HETATM   32  O8  UNL     1      41.738  23.650   6.080  1.00  0.00    -0.276 OA
ENDBRANCH  30  31
ENDBRANCH  23  30
ENDBRANCH  17  18
ENDBRANCH   1  17
TORSDOF 19
ENDMDL