MODEL 1
REMARK VINA RESULT: -6.293779998      0.000      0.000
REMARK  18 active torsions:
REMARK  status: ('A' for Active; 'I' for Inactive)
REMARK    1  A    between atoms: C4_4  and  O1_5
REMARK    2  A    between atoms: O1_5  and  C5_6
REMARK    3  A    between atoms: C5_6  and  C6_7
REMARK    4  A    between atoms: C6_7  and  O2_8
REMARK    5  A    between atoms: O2_8  and  C7_9
REMARK    6  A    between atoms: C7_9  and  C8_10
REMARK    7  A    between atoms: C8_10  and  O3_11
REMARK    8  A    between atoms: O3_11  and  C9_12
REMARK    9  A    between atoms: C9_12  and  C10_13
REMARK   10  A    between atoms: C10_13  and  O4_14
REMARK   11  A    between atoms: O4_14  and  C11_15
REMARK   12  A    between atoms: C11_15  and  C12_16
REMARK   13  A    between atoms: C12_16  and  O5_17
REMARK   14  A    between atoms: O5_17  and  C13_18
REMARK   15  A    between atoms: C16_21  and  O6_22
REMARK   16  A    between atoms: O6_22  and  C17_23
REMARK   17  A    between atoms: C17_23  and  C18_24
REMARK   18  A    between atoms: C18_24  and  N1_25
ROOT
HETATM    1  O4  UNL     1      35.665  24.848   0.153  1.00  0.00    -0.387 OA
ENDROOT
BRANCH   1   2
HETATM    2  C10 UNL     1      34.978  24.523  -0.999  1.00  0.00     0.193 C
BRANCH   2   3
HETATM    3  C9  UNL     1      35.587  25.208  -2.173  1.00  0.00     0.193 C
BRANCH   3   4
HETATM    4  O3  UNL     1      36.320  24.343  -2.986  1.00  0.00    -0.387 OA
BRANCH   4   5
HETATM    5  C8  UNL     1      37.676  24.604  -3.004  1.00  0.00     0.193 C
BRANCH   5   6
HETATM    6  C7  UNL     1      38.389  23.591  -2.179  1.00  0.00     0.193 C
BRANCH   6   7
HETATM    7  O2  UNL     1      39.558  24.058  -1.602  1.00  0.00    -0.387 OA
BRANCH   7   8
HETATM    8  C6  UNL     1      40.630  23.208  -1.681  1.00  0.00     0.194 C
BRANCH   8   9
HETATM    9  C5  UNL     1      40.115  21.804  -1.439  1.00  0.00     0.201 C
BRANCH   9  10
HETATM   10  O1  UNL     1      40.988  21.012  -0.692  1.00  0.00    -0.349 OA
BRANCH  10  11
HETATM   11  C4  UNL     1      40.526  19.796  -0.219  1.00  0.00     0.068 A
HETATM   12  C3  UNL     1      39.582  19.085  -0.915  1.00  0.00     0.037 A
HETATM   13  C2  UNL     1      39.104  17.859  -0.455  1.00  0.00     0.003 A
HETATM   14  C1  UNL     1      39.579  17.327   0.728  1.00  0.00     0.000 A
HETATM   15  C25 UNL     1      40.521  18.033   1.426  1.00  0.00     0.003 A
HETATM   16  C24 UNL     1      40.984  19.242   0.960  1.00  0.00     0.037 A
ENDBRANCH  10  11
ENDBRANCH   9  10
ENDBRANCH   8   9
ENDBRANCH   7   8
ENDBRANCH   6   7
ENDBRANCH   5   6
ENDBRANCH   4   5
ENDBRANCH   3   4
ENDBRANCH   2   3
ENDBRANCH   1   2
BRANCH   1  17
HETATM   17  C11 UNL     1      36.240  26.111   0.155  1.00  0.00     0.194 C
BRANCH  17  18
HETATM   18  C12 UNL     1      37.589  25.966   0.814  1.00  0.00     0.201 C
BRANCH  18  19
HETATM   19  O5  UNL     1      37.532  25.327   2.012  1.00  0.00    -0.349 OA
BRANCH  19  20
HETATM   20  C13 UNL     1      38.386  24.463   2.568  1.00  0.00     0.069 A
HETATM   21  C14 UNL     1      38.965  23.485   1.737  1.00  0.00     0.039 A
HETATM   22  C15 UNL     1      39.851  22.569   2.239  1.00  0.00     0.039 A
HETATM   23  C16 UNL     1      40.219  22.557   3.573  1.00  0.00     0.069 A
HETATM   24  C22 UNL     1      39.652  23.516   4.383  1.00  0.00     0.039 A
HETATM   25  C23 UNL     1      38.741  24.465   3.889  1.00  0.00     0.039 A
BRANCH  23  26
HETATM   26  O6  UNL     1      41.112  21.644   4.111  1.00  0.00    -0.349 OA
BRANCH  26  27
HETATM   27  C17 UNL     1      42.487  22.011   4.207  1.00  0.00     0.206 C
BRANCH  27  28
HETATM   28  C18 UNL     1      43.334  21.174   3.271  1.00  0.00     0.299 C
BRANCH  28  29
HETATM   29  N1  UNL     1      44.170  22.113   2.523  1.00  0.00     0.090 N
HETATM   30  C19 UNL     1      45.238  21.376   1.863  1.00  0.00     0.274 C
HETATM   31  C20 UNL     1      44.327  21.303   0.640  1.00  0.00     0.060 C
HETATM   32  C21 UNL     1      43.490  22.424   1.260  1.00  0.00     0.274 C
ENDBRANCH  28  29
ENDBRANCH  27  28
ENDBRANCH  26  27
ENDBRANCH  23  26
ENDBRANCH  19  20
ENDBRANCH  18  19
ENDBRANCH  17  18
ENDBRANCH   1  17
TORSDOF 18
ENDMDL