MODEL 2
REMARK VINA RESULT: -6.378512560      2.025      5.226
REMARK  18 active torsions:
REMARK  status: ('A' for Active; 'I' for Inactive)
REMARK    1  A    between atoms: O1_2  and  C2_3
REMARK    2  A    between atoms: C2_3  and  C3_4
REMARK    3  A    between atoms: C3_4  and  O2_5
REMARK    4  A    between atoms: O2_5  and  C4_6
REMARK    5  A    between atoms: C4_6  and  C5_7
REMARK    6  A    between atoms: C5_7  and  O3_8
REMARK    7  A    between atoms: O3_8  and  C6_9
REMARK    8  A    between atoms: C6_9  and  C7_10
REMARK    9  A    between atoms: C7_10  and  O4_11
REMARK   10  A    between atoms: O4_11  and  C8_12
REMARK   11  A    between atoms: C8_12  and  C9_13
REMARK   12  A    between atoms: C9_13  and  O5_14
REMARK   13  A    between atoms: O5_14  and  C10_15
REMARK   14  A    between atoms: C10_15  and  C11_16
REMARK   15  A    between atoms: C16_21  and  O6_22
REMARK   16  A    between atoms: O6_22  and  C17_23
REMARK   17  A    between atoms: C17_23  and  C18_24
REMARK   18  A    between atoms: C18_24  and  C19_25
ROOT
HETATM    1  C19 UNL     1      42.100  20.511   1.207  1.00  0.00    -0.035 A
HETATM    2  C20 UNL     1      41.223  20.053   0.215  1.00  0.00     0.009 A
HETATM    3  C21 UNL     1      40.445  18.931   0.399  1.00  0.00     0.001 A
HETATM    4  C22 UNL     1      40.500  18.213   1.572  1.00  0.00     0.002 A
HETATM    5  C23 UNL     1      41.352  18.647   2.556  1.00  0.00     0.023 A
HETATM    6  C24 UNL     1      42.142  19.790   2.366  1.00  0.00     0.051 A
HETATM    7  C25 UNL     1      42.980  20.242   3.441  1.00  0.00     0.100 C
HETATM    8  N1  UNL     1      43.638  20.617   4.337  1.00  0.00    -0.191 NA
ENDROOT
BRANCH   1   9
HETATM    9  C18 UNL     1      42.961  21.685   0.960  1.00  0.00     0.066 C
BRANCH   9  10
HETATM   10  C17 UNL     1      42.262  22.959   0.690  1.00  0.00     0.172 C
BRANCH  10  11
HETATM   11  O6  UNL     1      41.597  23.579   1.702  1.00  0.00    -0.385 OA
BRANCH  11  12
HETATM   12  C16 UNL     1      40.214  23.754   1.365  1.00  0.00     0.127 C
HETATM   13  C11 UNL     1      39.831  25.109   1.803  1.00  0.00     0.038 C
HETATM   14  C12 UNL     1      39.388  25.047   3.266  1.00  0.00     0.009 C
HETATM   15  C13 UNL     1      40.110  24.028   4.079  1.00  0.00     0.001 C
HETATM   16  C14 UNL     1      39.904  22.622   3.549  1.00  0.00     0.002 C
HETATM   17  C15 UNL     1      39.454  22.665   2.102  1.00  0.00     0.032 C
BRANCH  13  18
HETATM   18  C10 UNL     1      38.785  25.849   1.054  1.00  0.00     0.174 C
BRANCH  18  19
HETATM   19  O5  UNL     1      37.684  26.315   1.607  1.00  0.00    -0.389 OA
BRANCH  19  20
HETATM   20  C9  UNL     1      36.423  25.986   1.360  1.00  0.00     0.193 C
BRANCH  20  21
HETATM   21  C8  UNL     1      35.949  26.274  -0.057  1.00  0.00     0.193 C
BRANCH  21  22
HETATM   22  O4  UNL     1      35.005  25.347  -0.415  1.00  0.00    -0.387 OA
BRANCH  22  23
HETATM   23  C7  UNL     1      35.421  24.346  -1.254  1.00  0.00     0.193 C
BRANCH  23  24
HETATM   24  C6  UNL     1      36.499  24.808  -2.237  1.00  0.00     0.193 C
BRANCH  24  25
HETATM   25  O3  UNL     1      37.481  23.855  -2.298  1.00  0.00    -0.387 OA
BRANCH  25  26
HETATM   26  C5  UNL     1      37.501  22.996  -1.231  1.00  0.00     0.193 C
BRANCH  26  27
HETATM   27  C4  UNL     1      38.341  21.784  -1.438  1.00  0.00     0.193 C
BRANCH  27  28
HETATM   28  O2  UNL     1      37.838  20.962  -2.458  1.00  0.00    -0.387 OA
BRANCH  28  29
HETATM   29  C3  UNL     1      36.641  20.339  -2.102  1.00  0.00     0.193 C
BRANCH  29  30
HETATM   30  C2  UNL     1      36.682  18.860  -2.243  1.00  0.00     0.193 C
BRANCH  30  31
HETATM   31  O1  UNL     1      36.306  18.256  -1.060  1.00  0.00    -0.394 OA
HETATM   32  C1  UNL     1      37.173  17.277  -0.633  1.00  0.00     0.201 C
ENDBRANCH  30  31
ENDBRANCH  29  30
ENDBRANCH  28  29
ENDBRANCH  27  28
ENDBRANCH  26  27
ENDBRANCH  25  26
ENDBRANCH  24  25
ENDBRANCH  23  24
ENDBRANCH  22  23
ENDBRANCH  21  22
ENDBRANCH  20  21
ENDBRANCH  19  20
ENDBRANCH  18  19
ENDBRANCH  13  18
ENDBRANCH  11  12
ENDBRANCH  10  11
ENDBRANCH   9  10
ENDBRANCH   1   9
TORSDOF 18
ENDMDL