MODEL 5
REMARK VINA RESULT: -6.141432141      1.743      4.433
REMARK  18 active torsions:
REMARK  status: ('A' for Active; 'I' for Inactive)
REMARK    1  A    between atoms: O1_2  and  C2_3
REMARK    2  A    between atoms: C2_3  and  C3_4
REMARK    3  A    between atoms: C3_4  and  O2_5
REMARK    4  A    between atoms: O2_5  and  C4_6
REMARK    5  A    between atoms: C4_6  and  C5_7
REMARK    6  A    between atoms: C5_7  and  O3_8
REMARK    7  A    between atoms: O3_8  and  C6_9
REMARK    8  A    between atoms: C6_9  and  C7_10
REMARK    9  A    between atoms: C7_10  and  O4_11
REMARK   10  A    between atoms: O4_11  and  C8_12
REMARK   11  A    between atoms: C8_12  and  C9_13
REMARK   12  A    between atoms: C9_13  and  O5_14
REMARK   13  A    between atoms: O5_14  and  C10_15
REMARK   14  A    between atoms: C10_15  and  C11_16
REMARK   15  A    between atoms: C11_16  and  O6_17
REMARK   16  A    between atoms: O6_17  and  C12_18
REMARK   17  A    between atoms: C12_18  and  C13_19
REMARK   18  A    between atoms: N1_24  and  C18_25
ROOT
HETATM    1  C11 UNL     1      41.226  22.032  -1.398  1.00  0.00     0.193 C
ENDROOT
BRANCH   1   2
HETATM    2  C10 UNL     1      39.845  21.508  -1.490  1.00  0.00     0.193 C
BRANCH   2   3
HETATM    3  O5  UNL     1      39.466  20.640  -0.512  1.00  0.00    -0.387 OA
BRANCH   3   4
HETATM    4  C9  UNL     1      39.456  19.317  -0.852  1.00  0.00     0.193 C
BRANCH   4   5
HETATM    5  C8  UNL     1      40.124  18.421   0.167  1.00  0.00     0.193 C
BRANCH   5   6
HETATM    6  O4  UNL     1      40.765  19.212   1.117  1.00  0.00    -0.387 OA
BRANCH   6   7
HETATM    7  C7  UNL     1      41.923  18.680   1.622  1.00  0.00     0.193 C
BRANCH   7   8
HETATM    8  C6  UNL     1      43.025  18.577   0.547  1.00  0.00     0.193 C
BRANCH   8   9
HETATM    9  O3  UNL     1      43.480  19.850   0.340  1.00  0.00    -0.387 OA
BRANCH   9  10
HETATM   10  C5  UNL     1      44.313  20.015  -0.746  1.00  0.00     0.193 C
BRANCH  10  11
HETATM   11  C4  UNL     1      45.099  21.298  -0.655  1.00  0.00     0.193 C
BRANCH  11  12
HETATM   12  O2  UNL     1      45.835  21.327   0.545  1.00  0.00    -0.387 OA
BRANCH  12  13
HETATM   13  C3  UNL     1      45.552  22.491   1.260  1.00  0.00     0.193 C
BRANCH  13  14
HETATM   14  C2  UNL     1      45.444  22.172   2.718  1.00  0.00     0.193 C
BRANCH  14  15
HETATM   15  O1  UNL     1      44.599  21.123   2.993  1.00  0.00    -0.394 OA
HETATM   16  C1  UNL     1      43.571  21.464   3.866  1.00  0.00     0.201 C
ENDBRANCH  14  15
ENDBRANCH  13  14
ENDBRANCH  12  13
ENDBRANCH  11  12
ENDBRANCH  10  11
ENDBRANCH   9  10
ENDBRANCH   8   9
ENDBRANCH   7   8
ENDBRANCH   6   7
ENDBRANCH   5   6
ENDBRANCH   4   5
ENDBRANCH   3   4
ENDBRANCH   2   3
ENDBRANCH   1   2
BRANCH   1  17
HETATM   17  O6  UNL     1      41.442  23.050  -0.526  1.00  0.00    -0.388 OA
BRANCH  17  18
HETATM   18  C12 UNL     1      41.920  22.729   0.706  1.00  0.00     0.177 C
BRANCH  18  19
HETATM   19  C13 UNL     1      41.187  23.385   1.854  1.00  0.00     0.048 C
HETATM   20  C14 UNL     1      40.093  22.533   2.410  1.00  0.00     0.012 C
HETATM   21  C15 UNL     1      39.931  22.890   3.873  1.00  0.00     0.006 C
HETATM   22  C16 UNL     1      38.934  24.009   4.068  1.00  0.00     0.044 C
HETATM   23  C17 UNL     1      39.284  25.237   3.278  1.00  0.00     0.063 C
HETATM   24  N1  UNL     1      39.360  24.924   1.906  1.00  0.00    -0.369 N
HETATM   25  C24 UNL     1      40.628  24.704   1.336  1.00  0.00     0.070 C
BRANCH  24  26
HETATM   26  C18 UNL     1      38.279  25.289   1.085  1.00  0.00     0.088 C
HETATM   27  C19 UNL     1      37.960  24.318  -0.029  1.00  0.00     0.026 C
HETATM   28  C20 UNL     1      36.876  24.943  -0.869  1.00  0.00     0.002 C
HETATM   29  C21 UNL     1      36.427  26.293  -0.358  1.00  0.00     0.000 C
HETATM   30  C22 UNL     1      36.050  26.299   1.087  1.00  0.00     0.002 C
HETATM   31  C23 UNL     1      37.023  25.488   1.901  1.00  0.00     0.026 C
ENDBRANCH  24  26
ENDBRANCH  18  19
ENDBRANCH  17  18
ENDBRANCH   1  17
TORSDOF 18
ENDMDL