MODEL 5
REMARK VINA RESULT: -6.139156594      1.599      5.551
REMARK  18 active torsions:
REMARK  status: ('A' for Active; 'I' for Inactive)
REMARK    1  A    between atoms: C6_7  and  O1_8
REMARK    2  A    between atoms: O1_8  and  C7_9
REMARK    3  A    between atoms: C7_9  and  C8_10
REMARK    4  A    between atoms: C8_10  and  O2_11
REMARK    5  A    between atoms: O2_11  and  C9_12
REMARK    6  A    between atoms: C9_12  and  C10_13
REMARK    7  A    between atoms: C10_13  and  O3_14
REMARK    8  A    between atoms: O3_14  and  C11_15
REMARK    9  A    between atoms: C11_15  and  C12_16
REMARK   10  A    between atoms: C12_16  and  O4_17
REMARK   11  A    between atoms: O4_17  and  C13_18
REMARK   12  A    between atoms: C13_18  and  C14_19
REMARK   13  A    between atoms: C14_19  and  O5_20
REMARK   14  A    between atoms: O5_20  and  C15_21
REMARK   15  A    between atoms: C15_21  and  C16_22
REMARK   16  A    between atoms: C16_22  and  O6_23
REMARK   17  A    between atoms: O6_23  and  C17_24
REMARK   18  A    between atoms: C17_24  and  C18_25
ROOT
HETATM    1  O3  UNL     1      38.040  24.869   1.040  1.00  0.00    -0.387 OA
ENDROOT
BRANCH   1   2
HETATM    2  C10 UNL     1      38.801  24.061   1.835  1.00  0.00     0.193 C
BRANCH   2   3
HETATM    3  C9  UNL     1      39.958  24.828   2.470  1.00  0.00     0.193 C
BRANCH   3   4
HETATM    4  O2  UNL     1      39.871  24.931   3.833  1.00  0.00    -0.387 OA
BRANCH   4   5
HETATM    5  C8  UNL     1      39.297  23.867   4.479  1.00  0.00     0.194 C
BRANCH   5   6
HETATM    6  C7  UNL     1      40.291  22.878   5.034  1.00  0.00     0.201 C
BRANCH   6   7
HETATM    7  O1  UNL     1      40.317  21.667   4.338  1.00  0.00    -0.349 OA
BRANCH   7   8
HETATM    8  C6  UNL     1      41.270  21.495   3.351  1.00  0.00     0.069 A
HETATM    9  C5  UNL     1      42.615  21.777   3.580  1.00  0.00     0.046 A
HETATM   10  C4  UNL     1      43.545  21.603   2.595  1.00  0.00    -0.027 A
HETATM   11  C3  UNL     1      45.006  21.835   2.605  1.00  0.00     0.060 C
HETATM   12  C26 UNL     1      43.222  21.146   1.346  1.00  0.00     0.036 A
HETATM   13  C2  UNL     1      45.411  21.826   1.153  1.00  0.00     0.127 C
HETATM   14  N1  UNL     1      44.365  21.053   0.508  1.00  0.00    -0.384 N
HETATM   15  C1  UNL     1      44.475  20.322  -0.760  1.00  0.00     0.149 C
HETATM   16  C25 UNL     1      41.888  20.863   1.111  1.00  0.00     0.033 A
HETATM   17  C24 UNL     1      40.938  21.035   2.096  1.00  0.00     0.039 A
ENDBRANCH   7   8
ENDBRANCH   6   7
ENDBRANCH   5   6
ENDBRANCH   4   5
ENDBRANCH   3   4
ENDBRANCH   2   3
ENDBRANCH   1   2
BRANCH   1  18
HETATM   18  C11 UNL     1      36.989  25.444   1.657  1.00  0.00     0.193 C
BRANCH  18  19
HETATM   19  C12 UNL     1      36.081  26.279   0.722  1.00  0.00     0.193 C
BRANCH  19  20
HETATM   20  O4  UNL     1      35.309  25.465  -0.029  1.00  0.00    -0.387 OA
BRANCH  20  21
HETATM   21  C13 UNL     1      35.343  25.596  -1.364  1.00  0.00     0.193 C
BRANCH  21  22
HETATM   22  C14 UNL     1      35.889  24.425  -2.105  1.00  0.00     0.193 C
BRANCH  22  23
HETATM   23  O5  UNL     1      36.122  23.368  -1.312  1.00  0.00    -0.387 OA
BRANCH  23  24
HETATM   24  C15 UNL     1      37.075  22.466  -1.740  1.00  0.00     0.193 C
BRANCH  24  25
HETATM   25  C16 UNL     1      36.590  21.436  -2.671  1.00  0.00     0.194 C
BRANCH  25  26
HETATM   26  O6  UNL     1      37.444  20.374  -2.786  1.00  0.00    -0.385 OA
BRANCH  26  27
HETATM   27  C17 UNL     1      38.421  20.284  -1.832  1.00  0.00     0.206 C
BRANCH  27  28
HETATM   28  C18 UNL     1      38.358  18.969  -1.142  1.00  0.00    -0.035 A
HETATM   29  C19 UNL     1      37.228  18.185  -1.162  1.00  0.00     0.009 A
HETATM   30  C20 UNL     1      37.225  16.973  -0.497  1.00  0.00     0.001 A
HETATM   31  C21 UNL     1      38.327  16.528   0.187  1.00  0.00     0.000 A
HETATM   32  C22 UNL     1      39.447  17.333   0.193  1.00  0.00     0.001 A
HETATM   33  C23 UNL     1      39.483  18.545  -0.460  1.00  0.00     0.009 A
ENDBRANCH  27  28
ENDBRANCH  26  27
ENDBRANCH  25  26
ENDBRANCH  24  25
ENDBRANCH  23  24
ENDBRANCH  22  23
ENDBRANCH  21  22
ENDBRANCH  20  21
ENDBRANCH  19  20
ENDBRANCH  18  19
ENDBRANCH   1  18
TORSDOF 18
ENDMDL