MODEL 1
REMARK VINA RESULT: -6.610982419      0.000      0.000
REMARK  17 active torsions:
REMARK  status: ('A' for Active; 'I' for Inactive)
REMARK    1  A    between atoms: C4_5  and  C5_6
REMARK    2  A    between atoms: C5_6  and  O2_7
REMARK    3  A    between atoms: O2_7  and  C6_8
REMARK    4  A    between atoms: C6_8  and  C7_9
REMARK    5  A    between atoms: C7_9  and  O3_10
REMARK    6  A    between atoms: O3_10  and  C8_11
REMARK    7  A    between atoms: C8_11  and  C9_12
REMARK    8  A    between atoms: C9_12  and  O4_13
REMARK    9  A    between atoms: O4_13  and  C10_14
REMARK   10  A    between atoms: C10_14  and  C11_15
REMARK   11  A    between atoms: C11_15  and  O5_16
REMARK   12  A    between atoms: O5_16  and  C12_17
REMARK   13  A    between atoms: C12_17  and  C13_18
REMARK   14  A    between atoms: C13_18  and  O6_19
REMARK   15  A    between atoms: O6_19  and  C14_20
REMARK   16  A    between atoms: C14_20  and  C15_21
REMARK   17  A    between atoms: C17_23  and  C18_24
ROOT
HETATM    1  C10 UNL     1      36.444  23.268  -3.635  1.00  0.00     0.193 C
ENDROOT
BRANCH   1   2
HETATM    2  O4  UNL     1      37.713  23.409  -3.164  1.00  0.00    -0.387 OA
BRANCH   2   3
HETATM    3  C9  UNL     1      37.897  23.091  -1.868  1.00  0.00     0.193 C
BRANCH   3   4
HETATM    4  C8  UNL     1      39.384  23.103  -1.523  1.00  0.00     0.193 C
BRANCH   4   5
HETATM    5  O3  UNL     1      39.721  22.107  -0.699  1.00  0.00    -0.387 OA
BRANCH   5   6
HETATM    6  C7  UNL     1      39.419  20.816  -0.945  1.00  0.00     0.193 C
BRANCH   6   7
HETATM    7  C6  UNL     1      40.172  19.831  -0.116  1.00  0.00     0.194 C
BRANCH   7   8
HETATM    8  O2  UNL     1      41.067  20.165   0.738  1.00  0.00    -0.385 OA
BRANCH   8   9
HETATM    9  C5  UNL     1      42.341  20.262   0.887  1.00  0.00     0.231 C
BRANCH   9  10
HETATM   10  C4  UNL     1      43.268  21.144   0.127  1.00  0.00     0.382 C
HETATM   11  O1  UNL     1      42.819  22.493   0.183  1.00  0.00    -0.353 OA
HETATM   12  C3  UNL     1      43.316  22.949   1.407  1.00  0.00     0.206 C
HETATM   13  C2  UNL     1      44.638  22.275   1.605  1.00  0.00     0.245 C
HETATM   14  C1  UNL     1      44.775  21.739   3.008  1.00  0.00     0.045 C
HETATM   15  N1  UNL     1      44.585  21.168   0.662  1.00  0.00     0.121 N
HETATM   16  C25 UNL     1      45.600  21.327  -0.373  1.00  0.00     0.314 C
ENDBRANCH   9  10
ENDBRANCH   8   9
ENDBRANCH   7   8
ENDBRANCH   6   7
ENDBRANCH   5   6
ENDBRANCH   4   5
ENDBRANCH   3   4
ENDBRANCH   2   3
ENDBRANCH   1   2
BRANCH   1  17
HETATM   17  C11 UNL     1      35.610  24.464  -3.338  1.00  0.00     0.193 C
BRANCH  17  18
HETATM   18  O5  UNL     1      34.556  24.173  -2.517  1.00  0.00    -0.387 OA
BRANCH  18  19
HETATM   19  C12 UNL     1      34.574  24.758  -1.281  1.00  0.00     0.193 C
BRANCH  19  20
HETATM   20  C13 UNL     1      35.119  26.181  -1.490  1.00  0.00     0.193 C
BRANCH  20  21
HETATM   21  O6  UNL     1      35.669  26.595  -0.272  1.00  0.00    -0.389 OA
BRANCH  21  22
HETATM   22  C14 UNL     1      37.030  26.343  -0.249  1.00  0.00     0.172 C
BRANCH  22  23
HETATM   23  C15 UNL     1      37.518  26.413   1.168  1.00  0.00     0.011 C
HETATM   24  C16 UNL     1      36.983  25.224   1.955  1.00  0.00     0.016 C
HETATM   25  C17 UNL     1      38.289  24.494   1.650  1.00  0.00     0.019 C
HETATM   26  C24 UNL     1      38.907  25.860   1.415  1.00  0.00     0.016 C
BRANCH  25  27
HETATM   27  C18 UNL     1      38.917  23.841   2.831  1.00  0.00    -0.054 A
HETATM   28  C19 UNL     1      38.679  24.284   4.113  1.00  0.00     0.007 A
HETATM   29  C20 UNL     1      39.259  23.683   5.211  1.00  0.00     0.001 A
HETATM   30  C21 UNL     1      40.111  22.594   5.005  1.00  0.00     0.000 A
HETATM   31  C22 UNL     1      40.367  22.130   3.733  1.00  0.00     0.001 A
HETATM   32  C23 UNL     1      39.773  22.752   2.656  1.00  0.00     0.007 A
ENDBRANCH  25  27
ENDBRANCH  22  23
ENDBRANCH  21  22
ENDBRANCH  20  21
ENDBRANCH  19  20
ENDBRANCH  18  19
ENDBRANCH  17  18
ENDBRANCH   1  17
TORSDOF 17
ENDMDL