MODEL 4
REMARK VINA RESULT: -6.352466091      2.827      6.833
REMARK  18 active torsions:
REMARK  status: ('A' for Active; 'I' for Inactive)
REMARK    1  A    between atoms: C4_4  and  C5_5
REMARK    2  A    between atoms: C5_5  and  C6_6
REMARK    3  A    between atoms: C6_6  and  O1_7
REMARK    4  A    between atoms: O1_7  and  C7_8
REMARK    5  A    between atoms: C7_8  and  C8_9
REMARK    6  A    between atoms: C8_9  and  O2_10
REMARK    7  A    between atoms: O2_10  and  C9_11
REMARK    8  A    between atoms: C9_11  and  C10_12
REMARK    9  A    between atoms: C10_12  and  O3_13
REMARK   10  A    between atoms: O3_13  and  C11_14
REMARK   11  A    between atoms: C11_14  and  C12_15
REMARK   12  A    between atoms: C12_15  and  O4_16
REMARK   13  A    between atoms: O4_16  and  C13_17
REMARK   14  A    between atoms: C13_17  and  C14_18
REMARK   15  A    between atoms: C14_18  and  O5_19
REMARK   16  A    between atoms: O5_19  and  C15_20
REMARK   17  A    between atoms: C15_20  and  C16_21
REMARK   18  A    between atoms: C16_21  and  C17_22
ROOT
HETATM    1  C8  UNL     1      41.759  18.633   1.027  1.00  0.00     0.193 C
ENDROOT
BRANCH   1   2
HETATM    2  C7  UNL     1      41.398  18.424   2.504  1.00  0.00     0.193 C
BRANCH   2   3
HETATM    3  O1  UNL     1      41.051  19.621   3.081  1.00  0.00    -0.388 OA
BRANCH   3   4
HETATM    4  C6  UNL     1      40.902  20.653   2.197  1.00  0.00     0.182 C
BRANCH   4   5
HETATM    5  C5  UNL     1      41.406  21.966   2.742  1.00  0.00     0.012 C
HETATM    6  C20 UNL     1      41.830  22.791   1.550  1.00  0.00     0.043 C
HETATM    7  C21 UNL     1      43.318  22.958   1.443  1.00  0.00     0.168 C
HETATM    8  O7  UNL     1      43.865  21.669   1.645  1.00  0.00    -0.391 OA
HETATM    9  C22 UNL     1      43.883  21.523   3.029  1.00  0.00     0.168 C
HETATM   10  C23 UNL     1      42.553  21.643   3.666  1.00  0.00     0.043 C
BRANCH   5  11
HETATM   11  C4  UNL     1      40.392  22.761   3.454  1.00  0.00    -0.047 A
HETATM   12  C3  UNL     1      40.221  22.516   4.783  1.00  0.00     0.008 A
HETATM   13  C2  UNL     1      39.286  23.213   5.564  1.00  0.00     0.001 A
HETATM   14  C1  UNL     1      38.499  24.196   4.956  1.00  0.00     0.000 A
HETATM   15  C25 UNL     1      38.686  24.430   3.610  1.00  0.00     0.001 A
HETATM   16  C24 UNL     1      39.617  23.725   2.874  1.00  0.00     0.008 A
ENDBRANCH   5  11
ENDBRANCH   4   5
ENDBRANCH   3   4
ENDBRANCH   2   3
ENDBRANCH   1   2
BRANCH   1  17
HETATM   17  O2  UNL     1      41.412  17.539   0.280  1.00  0.00    -0.387 OA
BRANCH  17  18
HETATM   18  C9  UNL     1      40.070  17.312   0.117  1.00  0.00     0.193 C
BRANCH  18  19
HETATM   19  C10 UNL     1      39.433  18.393  -0.684  1.00  0.00     0.193 C
BRANCH  19  20
HETATM   20  O3  UNL     1      38.166  18.092  -1.144  1.00  0.00    -0.387 OA
BRANCH  20  21
HETATM   21  C11 UNL     1      37.753  18.753  -2.258  1.00  0.00     0.193 C
BRANCH  21  22
HETATM   22  C12 UNL     1      36.532  19.579  -1.974  1.00  0.00     0.193 C
BRANCH  22  23
HETATM   23  O4  UNL     1      36.598  20.894  -2.276  1.00  0.00    -0.387 OA
BRANCH  23  24
HETATM   24  C13 UNL     1      37.682  21.617  -1.881  1.00  0.00     0.193 C
BRANCH  24  25
HETATM   25  C14 UNL     1      37.359  23.017  -1.440  1.00  0.00     0.193 C
BRANCH  25  26
HETATM   26  O5  UNL     1      36.028  23.313  -1.325  1.00  0.00    -0.389 OA
BRANCH  26  27
HETATM   27  C15 UNL     1      35.644  24.560  -1.783  1.00  0.00     0.170 C
BRANCH  27  28
HETATM   28  C16 UNL     1      36.873  25.449  -1.669  1.00  0.00     0.058 C
BRANCH  28  29
HETATM   29  C17 UNL     1      36.685  26.505  -0.585  1.00  0.00     0.125 C
HETATM   30  C18 UNL     1      37.587  26.215   0.581  1.00  0.00     0.058 C
HETATM   31  C19 UNL     1      36.296  26.150   1.301  1.00  0.00     0.170 C
HETATM   32  O6  UNL     1      35.558  26.267   0.151  1.00  0.00    -0.386 OA
ENDBRANCH  28  29
ENDBRANCH  27  28
ENDBRANCH  26  27
ENDBRANCH  25  26
ENDBRANCH  24  25
ENDBRANCH  23  24
ENDBRANCH  22  23
ENDBRANCH  21  22
ENDBRANCH  20  21
ENDBRANCH  19  20
ENDBRANCH  18  19
ENDBRANCH  17  18
ENDBRANCH   1  17
TORSDOF 18
ENDMDL