MODEL 3
REMARK VINA RESULT: -7.822115202      3.246      8.549
REMARK  10 active torsions:
REMARK  status: ('A' for Active; 'I' for Inactive)
REMARK    1  A    between atoms: O1_2  and  C2_3
REMARK    2  A    between atoms: C2_3  and  C3_4
REMARK    3  A    between atoms: C3_4  and  N1_5
REMARK    4  A    between atoms: C5_11  and  N4_12
REMARK    5  A    between atoms: C6_17  and  C7_18
REMARK    6  A    between atoms: C7_18  and  C8_19
REMARK    7  A    between atoms: C8_19  and  N6_20
REMARK    8  A    between atoms: N6_20  and  C9_22
REMARK    9  A    between atoms: C10_25  and  N8_26
REMARK   10  A    between atoms: C13_31  and  O2_32
ROOT
HETATM    1  N1  UNL     1      35.834  37.097  41.989  1.00  0.00    -0.258 N
HETATM    2  N2  UNL     1      35.301  36.947  43.176  1.00  0.00    -0.238 N
ATOM      3  H2  UNL     1      35.286  36.066  43.691  1.00  0.00     0.208 HD
HETATM    4  N3  UNL     1      34.786  38.074  43.623  1.00  0.00    -0.279 N
ATOM      5  H3  UNL     1      34.317  38.206  44.519  1.00  0.00     0.189 HD
HETATM    6  C4  UNL     1      34.985  39.014  42.695  1.00  0.00     0.139 A
HETATM    7  C5  UNL     1      34.710  40.355  42.528  1.00  0.00     0.132 A
HETATM    8  N5  UNL     1      35.087  40.980  41.408  1.00  0.00    -0.330 N
ATOM      9  H5  UNL     1      34.871  41.972  41.309  1.00  0.00     0.168 HD
HETATM   10  C6  UNL     1      35.735  40.363  40.404  1.00  0.00     0.085 A
HETATM   11  N11 UNL     1      36.018  39.055  40.537  1.00  0.00    -0.329 N
ATOM     12  H11 UNL     1      36.509  38.564  39.790  1.00  0.00     0.168 HD
HETATM   13  C14 UNL     1      35.652  38.389  41.658  1.00  0.00     0.157 A
ENDROOT
BRANCH  10  14
HETATM   14  C7  UNL     1      36.115  41.150  39.187  1.00  0.00     0.097 C
BRANCH  14  15
HETATM   15  C8  UNL     1      36.668  42.491  39.570  1.00  0.00     0.145 C
BRANCH  15  16
HETATM   16  N6  UNL     1      35.941  43.502  38.841  1.00  0.00    -0.225 N
ATOM     17  H6  UNL     1      36.403  43.944  38.046  1.00  0.00     0.177 HD
BRANCH  16  18
HETATM   18  C9  UNL     1      34.751  43.880  39.131  1.00  0.00     0.695 A
HETATM   19  N7  UNL     1      33.729  43.533  38.329  1.00  0.00    -0.022 N
HETATM   20  C10 UNL     1      32.460  43.900  38.582  1.00  0.00     0.697 A
ATOM     21  H7  UNL     1      33.923  42.971  37.500  1.00  0.00     0.203 HD
HETATM   22  N9  UNL     1      32.248  44.635  39.681  1.00  0.00    -0.154 N
HETATM   23  C13 UNL     1      33.232  45.008  40.513  1.00  0.00     0.250 A
ATOM     24  H9  UNL     1      31.293  44.925  39.896  1.00  0.00     0.188 HD
HETATM   25  N10 UNL     1      34.505  44.615  40.219  1.00  0.00    -0.154 N
ATOM     26  H10 UNL     1      35.273  44.883  40.834  1.00  0.00     0.188 HD
BRANCH  20  27
HETATM   27  N8  UNL     1      31.391  43.529  37.730  1.00  0.00    -0.226 N
HETATM   28  C11 UNL     1      31.656  42.865  36.470  1.00  0.00     0.168 C
HETATM   29  C12 UNL     1      30.029  43.821  38.134  1.00  0.00     0.168 C
ENDBRANCH  20  27
BRANCH  23  30
HETATM   30  O2  UNL     1      32.988  45.775  41.652  1.00  0.00    -0.332 OA
ATOM     31  H2  UNL     1      33.688  46.200  42.134  1.00  0.00     0.221 HD
ENDBRANCH  23  30
ENDBRANCH  16  18
ENDBRANCH  15  16
ENDBRANCH  14  15
ENDBRANCH  10  14
BRANCH   7  32
HETATM   32  N4  UNL     1      34.084  40.965  43.489  1.00  0.00    -0.383 N
ATOM     33  H42 UNL     1      34.073  40.612  44.446  1.00  0.00     0.157 HD
ATOM     34  H41 UNL     1      33.590  41.827  43.259  1.00  0.00     0.157 HD
ENDBRANCH   7  32
BRANCH   1  35
HETATM   35  C3  UNL     1      36.499  36.071  41.176  1.00  0.00     0.178 C
BRANCH  35  36
HETATM   36  C2  UNL     1      37.825  35.721  41.847  1.00  0.00     0.189 C
BRANCH  36  37
HETATM   37  O1  UNL     1      38.327  36.746  42.608  1.00  0.00    -0.394 OA
HETATM   38  C1  UNL     1      39.235  36.376  43.571  1.00  0.00     0.201 C
ENDBRANCH  36  37
ENDBRANCH  35  36
ENDBRANCH   1  35
TORSDOF 10
ENDMDL