MODEL 4
REMARK VINA RESULT: -7.820926934      2.479      3.671
REMARK  10 active torsions:
REMARK  status: ('A' for Active; 'I' for Inactive)
REMARK    1  A    between atoms: N1_2  and  O1_3
REMARK    2  A    between atoms: N1_2  and  N2_5
REMARK    3  A    between atoms: C2_7  and  N3_8
REMARK    4  A    between atoms: C2_7  and  C10_33
REMARK       I    between atoms: N3_8  and  C3_10
REMARK       I    between atoms: C3_10  and  N4_12
REMARK    5  A    between atoms: N4_12  and  N5_14
REMARK    6  A    between atoms: C4_16  and  C5_17
REMARK    7  A    between atoms: C6_21  and  C7_22
REMARK       I    between atoms: C7_22  and  N7_24
REMARK    8  A    between atoms: N7_24  and  N8_26
REMARK    9  A    between atoms: N8_26  and  C8_28
REMARK   10  A    between atoms: C9_30  and  O6_31
ROOT
HETATM    1  N5  UNL     1      37.022  43.904  39.546  1.00  0.00    -0.306 N
ATOM      2  H5  UNL     1      37.992  44.209  39.622  1.00  0.00     0.186 HD
HETATM    3  C4  UNL     1      36.154  44.690  40.028  1.00  0.00     0.141 C
ENDROOT
BRANCH   1   4
HETATM    4  N4  UNL     1      36.819  42.684  38.928  1.00  0.00    -0.252 N
HETATM    5  C3  UNL     1      36.980  41.468  39.696  1.00  0.00     0.340 C
HETATM    6  N3  UNL     1      36.775  40.242  39.039  1.00  0.00    -0.290 N
HETATM    7  O2  UNL     1      37.292  41.590  40.899  1.00  0.00    -0.245 OA
ATOM      8  H3  UNL     1      36.520  40.251  38.050  1.00  0.00     0.172 HD
ATOM      9  H4  UNL     1      36.559  42.642  37.943  1.00  0.00     0.191 HD
BRANCH   6  10
HETATM   10  C2  UNL     1      36.908  39.017  39.685  1.00  0.00     0.160 C
HETATM   11  N2  UNL     1      37.687  38.094  39.221  1.00  0.00    -0.262 N
ATOM     12  H2  UNL     1      37.765  37.206  39.716  1.00  0.00     0.191 HD
BRANCH  11  13
HETATM   13  N1  UNL     1      38.422  38.299  38.052  1.00  0.00    -0.205 N
HETATM   14  C1  UNL     1      38.291  37.364  36.926  1.00  0.00     0.207 C
BRANCH  13  15
HETATM   15  O1  UNL     1      39.241  39.363  37.993  1.00  0.00    -0.273 OA
ATOM     16  H1  UNL     1      40.088  39.316  37.567  1.00  0.00     0.246 HD
ENDBRANCH  13  15
ENDBRANCH  11  13
BRANCH  10  17
HETATM   17  C10 UNL     1      36.186  38.706  40.908  1.00  0.00     0.120 A
HETATM   18  C11 UNL     1      36.387  37.595  41.742  1.00  0.00     0.043 A
HETATM   19  C12 UNL     1      35.511  37.648  42.801  1.00  0.00     0.027 A
HETATM   20  C13 UNL     1      34.794  38.803  42.581  1.00  0.00     0.142 A
HETATM   21  O7  UNL     1      35.216  39.375  41.484  1.00  0.00    -0.319 OA
ENDBRANCH  10  17
ENDBRANCH   6  10
ENDBRANCH   1   4
BRANCH   3  22
HETATM   22  C5  UNL     1      34.720  44.495  40.047  1.00  0.00     0.107 A
HETATM   23  N6  UNL     1      33.834  44.403  41.039  1.00  0.00    -0.256 N
HETATM   24  O3  UNL     1      32.650  44.224  40.599  1.00  0.00    -0.229 OA
ATOM     25  H6  UNL     1      34.074  44.467  42.028  1.00  0.00     0.195 HD
HETATM   26  C6  UNL     1      32.639  44.182  39.268  1.00  0.00     0.203 A
HETATM   27  C9  UNL     1      33.954  44.352  38.891  1.00  0.00     0.137 A
BRANCH  26  28
HETATM   28  C7  UNL     1      31.463  43.993  38.436  1.00  0.00     0.298 C
HETATM   29  O4  UNL     1      30.338  44.279  38.921  1.00  0.00    -0.263 OA
HETATM   30  N7  UNL     1      31.533  43.509  37.130  1.00  0.00    -0.262 N
ATOM     31  H7  UNL     1      32.439  43.272  36.725  1.00  0.00     0.190 HD
BRANCH  30  32
HETATM   32  N8  UNL     1      30.350  43.343  36.359  1.00  0.00    -0.275 N
ATOM     33  H8  UNL     1      29.945  44.124  35.843  1.00  0.00     0.189 HD
BRANCH  32  34
HETATM   34  C8  UNL     1      29.757  42.068  36.332  1.00  0.00     0.368 C
HETATM   35  O5  UNL     1      28.561  41.934  36.010  1.00  0.00    -0.282 OA
ENDBRANCH  32  34
ENDBRANCH  30  32
ENDBRANCH  26  28
BRANCH  27  36
HETATM   36  O6  UNL     1      34.433  44.379  37.585  1.00  0.00    -0.356 OA
ATOM     37  H6  UNL     1      35.187  43.902  37.257  1.00  0.00     0.218 HD
ENDBRANCH  27  36
ENDBRANCH   3  22
TORSDOF 10
ENDMDL