MODEL 3
REMARK VINA RESULT: -7.534991161      2.140      6.945
REMARK  11 active torsions:
REMARK  status: ('A' for Active; 'I' for Inactive)
REMARK    1  A    between atoms: C2_2  and  C3_3
REMARK    2  A    between atoms: C3_3  and  N3_8
REMARK    3  A    between atoms: N3_8  and  N4_10
REMARK    4  A    between atoms: C6_12  and  C7_13
REMARK    5  A    between atoms: C6_12  and  C14_30
REMARK    6  A    between atoms: C7_13  and  O1_14
REMARK    7  A    between atoms: C7_13  and  C8_16
REMARK    8  A    between atoms: C8_16  and  N5_18
REMARK    9  A    between atoms: N5_18  and  N6_20
REMARK   10  A    between atoms: N6_20  and  C10_22
REMARK   11  A    between atoms: C15_36  and  N11_37
ROOT
HETATM    1  C3  UNL     1      36.659  37.781  38.977  1.00  0.00     0.222 C
HETATM    2  C4  UNL     1      37.919  38.134  38.279  1.00  0.00     0.108 C
HETATM    3  N1  UNL     1      38.901  38.418  37.737  1.00  0.00    -0.193 NA
HETATM    4  C5  UNL     1      37.068  37.270  40.282  1.00  0.00     0.108 C
HETATM    5  N2  UNL     1      37.389  36.860  41.325  1.00  0.00    -0.193 NA
ENDROOT
BRANCH   1   6
HETATM    6  C2  UNL     1      35.998  36.680  38.156  1.00  0.00     0.059 C
HETATM    7  C1  UNL     1      34.741  36.181  38.788  1.00  0.00     0.010 C
ENDBRANCH   1   6
BRANCH   1   8
HETATM    8  N3  UNL     1      35.794  38.933  39.144  1.00  0.00    -0.299 N
ATOM      9  H3  UNL     1      35.545  39.485  38.324  1.00  0.00     0.183 HD
BRANCH   8  10
HETATM   10  N4  UNL     1      35.312  39.294  40.341  1.00  0.00    -0.298 N
HETATM   11  C6  UNL     1      35.472  40.362  41.075  1.00  0.00     0.115 C
ATOM     12  H4  UNL     1      34.698  38.597  40.762  1.00  0.00     0.187 HD
BRANCH  11  13
HETATM   13  C7  UNL     1      36.303  41.409  40.607  1.00  0.00     0.120 C
BRANCH  13  14
HETATM   14  O1  UNL     1      37.487  40.960  40.134  1.00  0.00    -0.357 OA
ATOM     15  H1  UNL     1      38.229  41.410  40.520  1.00  0.00     0.218 HD
ENDBRANCH  13  14
BRANCH  13  16
HETATM   16  C8  UNL     1      36.224  42.830  40.500  1.00  0.00     0.058 C
HETATM   17  C9  UNL     1      36.162  43.891  41.502  1.00  0.00     0.072 C
BRANCH  16  18
HETATM   18  N5  UNL     1      36.206  43.298  39.240  1.00  0.00    -0.288 N
ATOM     19  H5  UNL     1      36.930  42.983  38.595  1.00  0.00     0.187 HD
BRANCH  18  20
HETATM   20  N6  UNL     1      35.272  44.168  38.788  1.00  0.00    -0.132 N
ATOM     21  H6  UNL     1      35.537  45.147  38.677  1.00  0.00     0.205 HD
BRANCH  20  22
HETATM   22  C10 UNL     1      33.943  43.789  38.459  1.00  0.00     0.688 C
HETATM   23  N7  UNL     1      32.986  44.558  38.851  1.00  0.00    -0.225 N
HETATM   24  C11 UNL     1      31.628  44.150  38.502  1.00  0.00     0.139 C
ATOM     25  H7  UNL     1      33.169  45.411  39.381  1.00  0.00     0.177 HD
HETATM   26  C12 UNL     1      31.663  43.687  37.060  1.00  0.00     0.040 C
HETATM   27  C13 UNL     1      32.482  42.424  36.969  1.00  0.00     0.139 C
HETATM   28  N8  UNL     1      33.710  42.597  37.721  1.00  0.00    -0.225 N
ATOM     29  H8  UNL     1      34.412  41.857  37.722  1.00  0.00     0.177 HD
ENDBRANCH  20  22
ENDBRANCH  18  20
ENDBRANCH  16  18
ENDBRANCH  13  16
ENDBRANCH  11  13
BRANCH  11  30
HETATM   30  C14 UNL     1      34.737  40.302  42.329  1.00  0.00     0.132 A
HETATM   31  N9  UNL     1      33.758  41.050  42.845  1.00  0.00    -0.236 N
HETATM   32  O2  UNL     1      33.375  40.639  43.997  1.00  0.00    -0.155 OA
ATOM     33  H9  UNL     1      33.359  41.862  42.373  1.00  0.00     0.197 HD
HETATM   34  N10 UNL     1      34.035  39.606  44.359  1.00  0.00    -0.224 N
HETATM   35  C15 UNL     1      34.923  39.333  43.345  1.00  0.00     0.152 A
ATOM     36  H10 UNL     1      33.925  39.087  45.230  1.00  0.00     0.198 HD
BRANCH  35  37
HETATM   37  N11 UNL     1      35.710  38.373  43.428  1.00  0.00    -0.382 N
ATOM     38 2H11 UNL     1      36.719  38.524  43.442  1.00  0.00     0.157 HD
ATOM     39 1H11 UNL     1      35.542  37.369  43.485  1.00  0.00     0.157 HD
ENDBRANCH  35  37
ENDBRANCH  11  30
ENDBRANCH   8  10
ENDBRANCH   1   8
TORSDOF 11
ENDMDL