MODEL 3
REMARK VINA RESULT: -7.458834734      1.161      1.663
REMARK  12 active torsions:
REMARK  status: ('A' for Active; 'I' for Inactive)
REMARK    1  A    between atoms: C2_2  and  O1_4
REMARK    2  A    between atoms: C2_2  and  C4_6
REMARK    3  A    between atoms: C4_6  and  C5_8
REMARK    4  A    between atoms: C5_8  and  N3_19
REMARK    5  A    between atoms: N1_9  and  O3_11
REMARK    6  A    between atoms: O3_11  and  C6_12
REMARK    7  A    between atoms: C6_12  and  C7_14
REMARK    8  A    between atoms: C7_14  and  N2_15
REMARK    9  A    between atoms: N3_19  and  N4_21
REMARK   10  A    between atoms: N4_21  and  C8_23
REMARK   11  A    between atoms: C11_26  and  N5_27
REMARK   12  A    between atoms: C13_31  and  N6_32
ROOT
HETATM    1  C5  UNL     1      36.530  41.972  39.572  1.00  0.00     0.190 C
HETATM    2  N1  UNL     1      37.725  41.682  39.184  1.00  0.00    -0.237 N
ATOM      3  H1  UNL     1      38.429  41.450  39.885  1.00  0.00     0.197 HD
ENDROOT
BRANCH   1   4
HETATM    4  C4  UNL     1      36.124  41.989  40.960  1.00  0.00     0.229 C
HETATM    5  O2  UNL     1      36.699  42.747  41.776  1.00  0.00    -0.286 OA
BRANCH   4   6
HETATM    6  C2  UNL     1      35.037  41.134  41.460  1.00  0.00     0.118 C
HETATM    7  C1  UNL     1      35.143  40.991  42.974  1.00  0.00     0.054 C
HETATM    8  C3  UNL     1      35.193  39.767  40.827  1.00  0.00     0.054 C
BRANCH   6   9
HETATM    9  O1  UNL     1      33.806  41.687  41.195  1.00  0.00    -0.382 OA
ATOM     10  H1  UNL     1      33.618  42.297  41.898  1.00  0.00     0.211 HD
ENDBRANCH   6   9
ENDBRANCH   4   6
ENDBRANCH   1   4
BRANCH   1  11
HETATM   11  N3  UNL     1      35.568  42.294  38.575  1.00  0.00    -0.281 N
ATOM     12  H3  UNL     1      35.349  41.598  37.863  1.00  0.00     0.188 HD
BRANCH  11  13
HETATM   13  N4  UNL     1      34.907  43.536  38.534  1.00  0.00    -0.297 N
ATOM     14  H4  UNL     1      35.444  44.402  38.594  1.00  0.00     0.187 HD
BRANCH  13  15
HETATM   15  C8  UNL     1      33.495  43.585  38.408  1.00  0.00     0.081 A
HETATM   16  C9  UNL     1      32.918  42.904  37.331  1.00  0.00     0.036 A
HETATM   17  C10 UNL     1      31.567  42.884  37.095  1.00  0.00     0.038 A
HETATM   18  C11 UNL     1      30.750  43.573  37.965  1.00  0.00     0.105 A
HETATM   19  C12 UNL     1      31.302  44.244  39.024  1.00  0.00     0.074 A
HETATM   20  C13 UNL     1      32.685  44.271  39.279  1.00  0.00     0.133 A
BRANCH  18  21
HETATM   21  N5  UNL     1      29.326  43.583  37.757  1.00  0.00    -0.116 N
HETATM   22  O5  UNL     1      28.626  44.320  38.476  1.00  0.00    -0.532 OA
HETATM   23  O6  UNL     1      28.761  42.791  36.785  1.00  0.00    -0.532 OA
ENDBRANCH  18  21
BRANCH  20  24
HETATM   24  N6  UNL     1      33.176  44.993  40.394  1.00  0.00    -0.113 N
HETATM   25  O7  UNL     1      34.138  44.652  41.080  1.00  0.00    -0.532 OA
HETATM   26  O8  UNL     1      32.534  46.160  40.797  1.00  0.00    -0.532 OA
ENDBRANCH  20  24
ENDBRANCH  13  15
ENDBRANCH  11  13
ENDBRANCH   1  11
BRANCH   2  27
HETATM   27  O3  UNL     1      38.077  41.675  37.866  1.00  0.00    -0.196 OA
BRANCH  27  28
HETATM   28  C6  UNL     1      39.208  41.016  37.422  1.00  0.00     0.306 C
HETATM   29  O4  UNL     1      39.294  39.765  37.429  1.00  0.00    -0.261 OA
BRANCH  28  30
HETATM   30  C7  UNL     1      40.364  41.811  36.919  1.00  0.00     0.342 C
BRANCH  30  31
HETATM   31  N2  UNL     1      41.135  42.388  37.975  1.00  0.00    -0.070 N
ATOM     32  H23 UNL     1      41.115  43.406  37.929  1.00  0.00     0.274 HD
ATOM     33  H22 UNL     1      40.678  42.254  38.877  1.00  0.00     0.274 HD
ATOM     34  H21 UNL     1      42.094  42.040  37.995  1.00  0.00     0.274 HD
ENDBRANCH  30  31
ENDBRANCH  28  30
ENDBRANCH  27  28
ENDBRANCH   2  27
TORSDOF 12
ENDMDL