MODEL 3
REMARK VINA RESULT: -6.569356556      1.724      2.088
REMARK  13 active torsions:
REMARK  status: ('A' for Active; 'I' for Inactive)
REMARK    1  A    between atoms: N1_1  and  C1_5
REMARK    2  A    between atoms: C1_5  and  C2_6
REMARK       I    between atoms: C2_6  and  N2_8
REMARK    3  A    between atoms: N2_8  and  N3_10
REMARK    4  A    between atoms: C3_12  and  C4_13
REMARK    5  A    between atoms: C3_12  and  O4_28
REMARK    6  A    between atoms: C4_13  and  C5_14
REMARK    7  A    between atoms: C5_14  and  N4_15
REMARK    8  A    between atoms: N4_15  and  N5_16
REMARK    9  A    between atoms: N5_16  and  C6_18
REMARK   10  A    between atoms: C6_18  and  S2_20
REMARK   11  A    between atoms: S2_20  and  S3_21
REMARK   12  A    between atoms: S3_21  and  C7_22
REMARK   13  A    between atoms: O4_28  and  N6_29
ROOT
HETATM    1  N3  UNL     1      34.328  44.215  38.377  1.00  0.00    -0.279 N
ATOM      2  H3  UNL     1      35.042  43.812  37.770  1.00  0.00     0.189 HD
HETATM    3  C3  UNL     1      34.765  44.544  39.479  1.00  0.00     0.161 C
ENDROOT
BRANCH   3   4
HETATM    4  C4  UNL     1      36.231  44.322  39.764  1.00  0.00     0.106 C
BRANCH   4   5
HETATM    5  C5  UNL     1      36.482  42.807  39.616  1.00  0.00     0.143 C
BRANCH   5   6
HETATM    6  N4  UNL     1      35.282  42.137  40.159  1.00  0.00    -0.140 NA
BRANCH   6   7
HETATM    7  N5  UNL     1      35.792  41.488  41.309  1.00  0.00    -0.288 N
ATOM      8  H5  UNL     1      36.548  41.939  41.825  1.00  0.00     0.184 HD
BRANCH   7   9
HETATM    9  C6  UNL     1      35.318  40.276  41.765  1.00  0.00     0.160 C
HETATM   10  S1  UNL     1      35.433  38.888  40.954  1.00  0.00    -0.051 SA
BRANCH   9  11
HETATM   11  S2  UNL     1      34.445  40.248  43.367  1.00  0.00    -0.024 SA
BRANCH  11  12
HETATM   12  S3  UNL     1      35.131  38.452  44.372  1.00  0.00    -0.058 SA
BRANCH  12  13
HETATM   13  C7  UNL     1      35.413  39.022  46.093  1.00  0.00     0.198 C
HETATM   14  C8  UNL     1      34.770  37.913  46.954  1.00  0.00     0.070 C
HETATM   15  C9  UNL     1      35.696  37.570  48.070  1.00  0.00     0.173 C
HETATM   16  O2  UNL     1      36.951  37.284  47.569  1.00  0.00    -0.367 OA
HETATM   17  C10 UNL     1      37.443  38.180  46.661  1.00  0.00     0.339 C
HETATM   18  O3  UNL     1      36.690  39.283  46.433  1.00  0.00    -0.351 OA
ENDBRANCH  12  13
ENDBRANCH  11  12
ENDBRANCH   9  11
ENDBRANCH   7   9
ENDBRANCH   6   7
ENDBRANCH   5   6
ENDBRANCH   4   5
ENDBRANCH   3   4
BRANCH   3  19
HETATM   19  O4  UNL     1      33.978  45.089  40.435  1.00  0.00    -0.230 OA
BRANCH  19  20
HETATM   20  N6  UNL     1      33.600  44.532  41.591  1.00  0.00    -0.304 N
ATOM     21  H62 UNL     1      33.628  45.151  42.401  1.00  0.00     0.184 HD
ATOM     22  H61 UNL     1      33.292  43.571  41.745  1.00  0.00     0.184 HD
ENDBRANCH  19  20
ENDBRANCH   3  19
BRANCH   1  23
HETATM   23  N2  UNL     1      33.099  44.270  37.788  1.00  0.00    -0.267 N
HETATM   24  C2  UNL     1      32.567  43.167  37.126  1.00  0.00     0.261 C
HETATM   25  O1  UNL     1      33.200  42.083  37.061  1.00  0.00    -0.270 OA
ATOM     26  H2  UNL     1      32.561  45.134  37.834  1.00  0.00     0.190 HD
BRANCH  24  27
HETATM   27  C1  UNL     1      31.235  43.255  36.476  1.00  0.00     0.333 C
BRANCH  27  28
HETATM   28  N1  UNL     1      30.952  41.952  35.930  1.00  0.00    -0.071 N
ATOM     29  H13 UNL     1      31.067  41.908  34.918  1.00  0.00     0.274 HD
ATOM     30  H12 UNL     1      31.655  41.254  36.171  1.00  0.00     0.274 HD
ATOM     31  H11 UNL     1      30.013  41.701  36.239  1.00  0.00     0.274 HD
ENDBRANCH  27  28
ENDBRANCH  24  27
ENDBRANCH   1  23
TORSDOF 13
ENDMDL