MODEL 4
REMARK VINA RESULT: -7.075198025      2.156      3.556
REMARK  7 active torsions:
REMARK  status: ('A' for Active; 'I' for Inactive)
REMARK    1  A    between atoms: N1_2  and  C2_4
REMARK    2  A    between atoms: C4_9  and  C5_10
REMARK    3  A    between atoms: C7_16  and  N6_17
REMARK    4  A    between atoms: N7_20  and  N8_21
REMARK    5  A    between atoms: N8_21  and  C10_23
REMARK    6  A    between atoms: C10_23  and  C12_26
REMARK    7  A    between atoms: C12_26  and  O1_27
ROOT
HETATM    1  C10 UNL     1      37.516  39.811  39.763  1.00  0.00     0.230 C
HETATM    2  C11 UNL     1      37.276  38.338  39.676  1.00  0.00     0.088 C
HETATM    3  N9  UNL     1      37.096  37.199  39.627  1.00  0.00    -0.195 NA
ENDROOT
BRANCH   1   4
HETATM    4  N8  UNL     1      36.238  40.427  39.621  1.00  0.00    -0.293 N
ATOM      5  H8  UNL     1      35.844  40.366  38.681  1.00  0.00     0.183 HD
BRANCH   4   6
HETATM    6  N7  UNL     1      35.440  41.090  40.531  1.00  0.00    -0.069 N
HETATM    7  C7  UNL     1      34.847  42.280  40.439  1.00  0.00     0.704 A
HETATM    8  N5  UNL     1      34.222  42.492  41.650  1.00  0.00    -0.171 N
HETATM    9  C6  UNL     1      34.441  41.445  42.442  1.00  0.00     0.169 A
ATOM     10  H5  UNL     1      33.680  43.319  41.898  1.00  0.00     0.186 HD
HETATM   11  N4  UNL     1      34.211  40.896  43.664  1.00  0.00    -0.324 N
HETATM   12  C14 UNL     1      35.208  40.529  41.775  1.00  0.00     0.191 A
HETATM   13  C5  UNL     1      34.811  39.685  43.759  1.00  0.00     0.128 A
ATOM     14  H4  UNL     1      33.664  41.335  44.405  1.00  0.00     0.169 HD
HETATM   15  N10 UNL     1      35.415  39.478  42.596  1.00  0.00    -0.323 N
ATOM     16  H10 UNL     1      35.957  38.648  42.357  1.00  0.00     0.169 HD
BRANCH   7  17
HETATM   17  N6  UNL     1      34.739  43.225  39.366  1.00  0.00    -0.225 N
HETATM   18  C8  UNL     1      35.712  44.315  39.300  1.00  0.00     0.168 C
HETATM   19  C9  UNL     1      33.753  43.119  38.314  1.00  0.00     0.168 C
ENDBRANCH   7  17
BRANCH  13  20
HETATM   20  C4  UNL     1      34.714  38.884  44.970  1.00  0.00     0.118 A
HETATM   21  C3  UNL     1      34.450  39.371  46.218  1.00  0.00     0.151 A
HETATM   22  N2  UNL     1      34.380  38.547  47.296  1.00  0.00    -0.178 N
HETATM   23  N3  UNL     1      34.239  40.731  46.444  1.00  0.00    -0.081 NA
HETATM   24  C2  UNL     1      34.565  37.227  47.192  1.00  0.00     0.681 A
ATOM     25  H2  UNL     1      34.179  38.948  48.212  1.00  0.00     0.185 HD
HETATM   26  N11 UNL     1      34.826  36.721  45.988  1.00  0.00    -0.155 N
HETATM   27  C15 UNL     1      34.902  37.505  44.901  1.00  0.00     0.277 A
ATOM     28  H11 UNL     1      34.970  35.716  45.890  1.00  0.00     0.187 HD
HETATM   29  O2  UNL     1      35.151  36.947  43.799  1.00  0.00    -0.267 OA
BRANCH  24  30
HETATM   30  N1  UNL     1      34.481  36.517  48.273  1.00  0.00    -0.230 N
HETATM   31  C1  UNL     1      35.525  36.488  49.278  1.00  0.00     0.165 C
ATOM     32  H1  UNL     1      33.644  35.954  48.423  1.00  0.00     0.177 HD
ENDBRANCH  24  30
ENDBRANCH  13  20
ENDBRANCH   4   6
ENDBRANCH   1   4
BRANCH   1  33
HETATM   33  C12 UNL     1      38.375  40.178  38.554  1.00  0.00     0.208 C
BRANCH  33  34
HETATM   34  O1  UNL     1      38.193  41.461  38.118  1.00  0.00    -0.393 OA
HETATM   35  C13 UNL     1      39.256  41.860  37.340  1.00  0.00     0.201 C
ENDBRANCH  33  34
ENDBRANCH   1  33
TORSDOF 7
ENDMDL