MODEL 4
REMARK VINA RESULT: -6.370858151      2.512      6.855
REMARK  12 active torsions:
REMARK  status: ('A' for Active; 'I' for Inactive)
REMARK    1  A    between atoms: N1_2  and  C2_4
REMARK    2  A    between atoms: C2_4  and  C5_7
REMARK    3  A    between atoms: C5_7  and  O1_8
REMARK    4  A    between atoms: C5_7  and  C6_10
REMARK    5  A    between atoms: C6_10  and  C7_11
REMARK    6  A    between atoms: C6_10  and  N2_14
REMARK    7  A    between atoms: C7_11  and  O2_12
REMARK    8  A    between atoms: N2_14  and  C8_16
REMARK    9  A    between atoms: C10_18  and  O3_19
REMARK   10  A    between atoms: C15_25  and  O5_26
REMARK   11  A    between atoms: N3_29  and  O7_30
REMARK   12  A    between atoms: C16_32  and  O8_33
ROOT
HETATM    1  C8  UNL     1      36.236  39.908  40.968  1.00  0.00     0.069 C
HETATM    2  C9  UNL     1      35.104  40.105  41.718  1.00  0.00     0.073 C
HETATM    3  C10 UNL     1      34.324  41.215  41.993  1.00  0.00     0.123 C
HETATM    4  C12 UNL     1      34.432  42.472  41.426  1.00  0.00     0.237 C
HETATM    5  O4  UNL     1      33.559  43.314  41.817  1.00  0.00    -0.283 OA
HETATM    6  C13 UNL     1      35.352  42.890  40.515  1.00  0.00     0.159 A
HETATM    7  C14 UNL     1      36.312  42.147  39.820  1.00  0.00     0.095 A
HETATM    8  C15 UNL     1      36.975  43.064  39.042  1.00  0.00     0.223 A
HETATM    9  O6  UNL     1      36.459  44.254  39.250  1.00  0.00    -0.183 OA
HETATM   10  N3  UNL     1      35.493  44.170  40.123  1.00  0.00    -0.114 N
HETATM   11  C16 UNL     1      36.551  40.781  39.897  1.00  0.00     0.110 C
ENDROOT
BRANCH   1  12
HETATM   12  N2  UNL     1      37.124  38.859  41.156  1.00  0.00    -0.357 N
ATOM     13  H2  UNL     1      38.053  39.171  41.436  1.00  0.00     0.166 HD
BRANCH  12  14
HETATM   14  C6  UNL     1      37.026  37.457  41.047  1.00  0.00     0.042 C
BRANCH  14  15
HETATM   15  C5  UNL     1      37.422  36.857  39.721  1.00  0.00     0.193 C
BRANCH  15  16
HETATM   16  C2  UNL     1      36.225  36.302  38.974  1.00  0.00     0.052 C
HETATM   17  C3  UNL     1      36.694  35.957  37.565  1.00  0.00     0.041 C
HETATM   18  C4  UNL     1      35.109  37.284  38.855  1.00  0.00     0.041 C
BRANCH  16  19
HETATM   19  N1  UNL     1      35.759  35.115  39.597  1.00  0.00    -0.397 N
HETATM   20  C1  UNL     1      34.698  34.545  39.162  1.00  0.00     0.112 C
ATOM     21  H1  UNL     1      36.267  34.718  40.387  1.00  0.00     0.158 HD
ENDBRANCH  16  19
ENDBRANCH  15  16
BRANCH  15  22
HETATM   22  O1  UNL     1      38.239  37.613  38.939  1.00  0.00    -0.387 OA
ATOM     23  H1  UNL     1      38.915  38.066  39.431  1.00  0.00     0.210 HD
ENDBRANCH  15  22
ENDBRANCH  14  15
BRANCH  14  24
HETATM   24  C7  UNL     1      37.566  36.625  42.159  1.00  0.00     0.219 C
BRANCH  24  25
HETATM   25  O2  UNL     1      38.736  37.195  42.718  1.00  0.00    -0.395 OA
ATOM     26  H2  UNL     1      38.741  37.125  43.665  1.00  0.00     0.209 HD
ENDBRANCH  24  25
ENDBRANCH  14  24
ENDBRANCH  12  14
ENDBRANCH   1  12
BRANCH  11  27
HETATM   27  O8  UNL     1      37.158  40.233  38.815  1.00  0.00    -0.357 OA
ATOM     28  H8  UNL     1      37.986  40.614  38.547  1.00  0.00     0.217 HD
ENDBRANCH  11  27
BRANCH   3  29
HETATM   29  O3  UNL     1      33.334  41.039  42.935  1.00  0.00    -0.352 OA
HETATM   30  C11 UNL     1      33.460  40.308  44.117  1.00  0.00     0.210 C
ENDBRANCH   3  29
BRANCH   8  31
HETATM   31  O5  UNL     1      38.019  42.776  38.181  1.00  0.00    -0.339 OA
ATOM     32  H5  UNL     1      38.295  43.319  37.452  1.00  0.00     0.220 HD
ENDBRANCH   8  31
BRANCH  10  33
HETATM   33  O7  UNL     1      34.702  45.189  40.611  1.00  0.00    -0.262 OA
ATOM     34  H7  UNL     1      35.061  46.006  40.935  1.00  0.00     0.247 HD
ENDBRANCH  10  33
TORSDOF 12
ENDMDL