MODEL 4
REMARK VINA RESULT: -6.648863343      1.918      4.566
REMARK  9 active torsions:
REMARK  status: ('A' for Active; 'I' for Inactive)
REMARK    1  A    between atoms: N1_2  and  N2_4
REMARK    2  A    between atoms: C2_5  and  C3_6
REMARK    3  A    between atoms: N3_7  and  N4_9
REMARK       I    between atoms: N4_9  and  C4_11
REMARK    4  A    between atoms: C4_11  and  C5_13
REMARK    5  A    between atoms: C5_13  and  O2_14
REMARK    6  A    between atoms: O2_14  and  C6_15
REMARK    7  A    between atoms: N6_17  and  O3_19
REMARK    8  A    between atoms: C7_21  and  C8_22
REMARK    9  A    between atoms: N9_29  and  C11_30
ROOT
HETATM    1  C8  UNL     1      35.840  36.964  40.184  1.00  0.00     0.119 C
HETATM    2  N7  UNL     1      35.375  35.934  39.643  1.00  0.00    -0.303 N
ATOM      3  H7  UNL     1      34.762  35.354  40.216  1.00  0.00     0.177 HD
HETATM    4  C9  UNL     1      35.604  35.502  38.356  1.00  0.00     0.181 C
HETATM    5  N8  UNL     1      35.789  35.153  37.270  1.00  0.00    -0.172 NA
ENDROOT
BRANCH   1   6
HETATM    6  C7  UNL     1      35.607  37.426  41.529  1.00  0.00     0.082 A
HETATM    7  C2  UNL     1      35.487  38.732  41.998  1.00  0.00     0.109 A
HETATM    8  N2  UNL     1      35.268  38.667  43.367  1.00  0.00    -0.189 N
HETATM    9  N9  UNL     1      35.248  37.415  43.753  1.00  0.00    -0.197 N
HETATM   10  C10 UNL     1      35.453  36.627  42.648  1.00  0.00     0.282 A
HETATM   11  O4  UNL     1      35.498  35.366  42.633  1.00  0.00    -0.265 OA
BRANCH   7  12
HETATM   12  C3  UNL     1      35.581  39.919  41.178  1.00  0.00     0.141 C
HETATM   13  N3  UNL     1      36.589  40.673  41.060  1.00  0.00    -0.307 N
ATOM     14  H3  UNL     1      37.430  40.437  41.587  1.00  0.00     0.186 HD
BRANCH  13  15
HETATM   15  N4  UNL     1      36.619  41.794  40.261  1.00  0.00    -0.269 N
HETATM   16  C4  UNL     1      36.417  43.106  40.750  1.00  0.00     0.260 C
HETATM   17  O1  UNL     1      36.200  43.267  41.958  1.00  0.00    -0.269 OA
ATOM     18  H4  UNL     1      36.797  41.672  39.264  1.00  0.00     0.190 HD
BRANCH  16  19
HETATM   19  C5  UNL     1      36.458  44.313  39.834  1.00  0.00     0.283 C
BRANCH  19  20
HETATM   20  O2  UNL     1      35.231  44.916  39.932  1.00  0.00    -0.314 OA
BRANCH  20  21
HETATM   21  C6  UNL     1      33.995  44.341  39.770  1.00  0.00     0.252 C
HETATM   22  N5  UNL     1      33.607  43.800  38.484  1.00  0.00    -0.054 NA
HETATM   23  N6  UNL     1      33.183  44.283  40.758  1.00  0.00    -0.235 N
ATOM     24  H6  UNL     1      32.269  43.853  40.619  1.00  0.00     0.197 HD
BRANCH  23  25
HETATM   25  O3  UNL     1      33.495  44.772  41.975  1.00  0.00    -0.287 OA
ATOM     26  H3  UNL     1      33.281  44.310  42.777  1.00  0.00     0.244 HD
ENDBRANCH  23  25
ENDBRANCH  20  21
ENDBRANCH  19  20
ENDBRANCH  16  19
ENDBRANCH  13  15
ENDBRANCH   7  12
BRANCH   8  27
HETATM   27  N1  UNL     1      35.092  39.786  44.188  1.00  0.00    -0.319 N
HETATM   28  C1  UNL     1      33.949  40.100  44.979  1.00  0.00     0.169 C
ATOM     29  H1  UNL     1      35.865  40.450  44.224  1.00  0.00     0.181 HD
ENDBRANCH   8  27
BRANCH   9  30
HETATM   30  C11 UNL     1      35.059  36.825  45.036  1.00  0.00     0.078 A
HETATM   31  C12 UNL     1      33.829  36.390  45.563  1.00  0.00     0.050 A
HETATM   32  C13 UNL     1      34.009  35.924  46.838  1.00  0.00     0.090 A
HETATM   33  N10 UNL     1      35.315  36.058  47.119  1.00  0.00    -0.373 N
HETATM   34  C14 UNL     1      35.951  36.591  46.061  1.00  0.00     0.119 A
ATOM     35  H10 UNL     1      35.757  35.795  48.000  1.00  0.00     0.164 HD
ENDBRANCH   9  30
ENDBRANCH   1   6
TORSDOF 9
ENDMDL