MODEL 5
REMARK VINA RESULT: -7.541442712      1.342      2.668
REMARK  12 active torsions:
REMARK  status: ('A' for Active; 'I' for Inactive)
REMARK    1  A    between atoms: C2_2  and  O1_3
REMARK    2  A    between atoms: O1_3  and  C3_4
REMARK    3  A    between atoms: C3_4  and  C4_6
REMARK    4  A    between atoms: C4_6  and  N1_7
REMARK    5  A    between atoms: N1_7  and  C6_9
REMARK    6  A    between atoms: C6_9  and  O3_10
REMARK    7  A    between atoms: C6_9  and  C7_12
REMARK    8  A    between atoms: C7_12  and  N3_16
REMARK    9  A    between atoms: N3_16  and  C8_18
REMARK   10  A    between atoms: C8_18  and  C10_23
REMARK   11  A    between atoms: C11_26  and  N7_27
REMARK   12  A    between atoms: C13_34  and  O7_35
ROOT
HETATM    1  C8  UNL     1      35.468  41.700  40.838  1.00  0.00     0.146 C
HETATM    2  N4  UNL     1      36.578  42.327  41.071  1.00  0.00    -0.277 N
ATOM      3  H4  UNL     1      37.302  41.886  41.638  1.00  0.00     0.179 HD
HETATM    4  C9  UNL     1      36.784  43.594  40.553  1.00  0.00     0.183 C
HETATM    5  N5  UNL     1      36.980  44.647  40.119  1.00  0.00    -0.172 NA
ENDROOT
BRANCH   1   6
HETATM    6  N3  UNL     1      34.484  42.319  40.059  1.00  0.00    -0.326 N
ATOM      7  H3  UNL     1      34.383  42.065  39.076  1.00  0.00     0.169 HD
BRANCH   6   8
HETATM    8  C7  UNL     1      33.608  43.318  40.638  1.00  0.00     0.126 C
HETATM    9  N2  UNL     1      33.282  43.204  41.857  1.00  0.00    -0.385 N
ATOM     10  H22 UNL     1      32.666  43.907  42.264  1.00  0.00     0.157 HD
ATOM     11  H21 UNL     1      33.643  42.442  42.430  1.00  0.00     0.157 HD
BRANCH   8  12
HETATM   12  C6  UNL     1      33.087  44.419  39.810  1.00  0.00     0.288 C
BRANCH  12  13
HETATM   13  N1  UNL     1      32.244  44.108  38.759  1.00  0.00    -0.357 N
HETATM   14  C5  UNL     1      30.903  44.601  38.885  1.00  0.00     0.152 C
BRANCH  13  15
HETATM   15  C4  UNL     1      32.634  44.001  37.427  1.00  0.00     0.170 C
BRANCH  15  16
HETATM   16  C3  UNL     1      32.552  42.696  36.760  1.00  0.00     0.298 C
HETATM   17  O2  UNL     1      33.356  41.795  37.189  1.00  0.00    -0.259 OA
BRANCH  16  18
HETATM   18  O1  UNL     1      31.731  42.318  35.735  1.00  0.00    -0.317 OA
BRANCH  18  19
HETATM   19  C2  UNL     1      30.402  42.762  35.562  1.00  0.00     0.174 C
HETATM   20  C1  UNL     1      29.474  42.226  36.624  1.00  0.00     0.034 C
ENDBRANCH  18  19
ENDBRANCH  16  18
ENDBRANCH  15  16
ENDBRANCH  13  15
ENDBRANCH  12  13
BRANCH  12  21
HETATM   21  O3  UNL     1      34.203  45.128  39.240  1.00  0.00    -0.369 OA
ATOM     22  H3  UNL     1      34.796  45.317  39.958  1.00  0.00     0.212 HD
ENDBRANCH  12  21
ENDBRANCH   8  12
ENDBRANCH   6   8
ENDBRANCH   1   6
BRANCH   1  23
HETATM   23  C10 UNL     1      35.367  40.365  41.421  1.00  0.00     0.119 A
HETATM   24  N6  UNL     1      35.589  39.267  40.662  1.00  0.00    -0.317 N
HETATM   25  C11 UNL     1      35.513  38.005  41.117  1.00  0.00     0.253 A
ATOM     26  H6  UNL     1      35.831  39.407  39.681  1.00  0.00     0.169 HD
HETATM   27  N8  UNL     1      35.193  37.810  42.422  1.00  0.00    -0.288 N
HETATM   28  C12 UNL     1      34.965  38.878  43.203  1.00  0.00     0.283 A
ATOM     29  H8  UNL     1      35.126  36.866  42.803  1.00  0.00     0.172 HD
HETATM   30  O6  UNL     1      34.663  38.736  44.430  1.00  0.00    -0.265 OA
HETATM   31  C13 UNL     1      35.044  40.184  42.734  1.00  0.00     0.165 A
BRANCH  25  32
HETATM   32  N7  UNL     1      35.763  36.926  40.242  1.00  0.00    -0.079 N
HETATM   33  O4  UNL     1      36.910  36.695  39.861  1.00  0.00    -0.529 OA
HETATM   34  O5  UNL     1      34.732  36.143  39.825  1.00  0.00    -0.529 OA
ENDBRANCH  25  32
BRANCH  31  35
HETATM   35  O7  UNL     1      34.807  41.268  43.551  1.00  0.00    -0.354 OA
ATOM     36  H7  UNL     1      34.654  42.129  43.177  1.00  0.00     0.218 HD
ENDBRANCH  31  35
ENDBRANCH   1  23
TORSDOF 12
ENDMDL