MODEL 1
REMARK VINA RESULT: -7.671935630      0.000      0.000
REMARK  10 active torsions:
REMARK  status: ('A' for Active; 'I' for Inactive)
REMARK    1  A    between atoms: O1_2  and  S1_3
REMARK    2  A    between atoms: S1_3  and  O4_6
REMARK    3  A    between atoms: O4_6  and  C2_7
REMARK    4  A    between atoms: C3_8  and  O5_9
REMARK    5  A    between atoms: C7_14  and  C8_15
REMARK    6  A    between atoms: C8_15  and  O6_16
REMARK    7  A    between atoms: O6_16  and  N1_17
REMARK    8  A    between atoms: C9_19  and  C10_20
REMARK    9  A    between atoms: C12_25  and  N4_26
REMARK   10  A    between atoms: C13_31  and  N6_32
ROOT
HETATM    1  N1  UNL     1      33.530  43.825  41.054  1.00  0.00    -0.275 N
ATOM      2  H1  UNL     1      33.148  42.882  41.118  1.00  0.00     0.193 HD
HETATM    3  C9  UNL     1      33.214  44.556  40.011  1.00  0.00     0.148 C
ENDROOT
BRANCH   1   4
HETATM    4  O6  UNL     1      34.335  44.262  42.048  1.00  0.00    -0.276 OA
BRANCH   4   5
HETATM    5  C8  UNL     1      35.444  43.510  42.433  1.00  0.00     0.242 C
BRANCH   5   6
HETATM    6  C7  UNL     1      35.570  42.246  41.653  1.00  0.00     0.005 A
HETATM    7  C2  UNL     1      34.841  41.117  41.957  1.00  0.00     0.133 A
HETATM    8  C3  UNL     1      34.962  39.953  41.234  1.00  0.00     0.101 A
HETATM    9  C4  UNL     1      35.840  39.917  40.171  1.00  0.00     0.039 A
HETATM   10  C5  UNL     1      36.587  41.027  39.837  1.00  0.00     0.003 A
HETATM   11  C6  UNL     1      36.445  42.198  40.588  1.00  0.00     0.012 A
BRANCH   7  12
HETATM   12  O4  UNL     1      33.952  41.130  43.020  1.00  0.00    -0.208 OA
BRANCH  12  13
HETATM   13  S1  UNL     1      34.144  40.218  44.416  1.00  0.00     0.406 S
HETATM   14  O2  UNL     1      34.823  41.102  45.453  1.00  0.00    -0.168 OA
HETATM   15  O3  UNL     1      32.794  39.762  44.949  1.00  0.00    -0.168 OA
BRANCH  13  16
HETATM   16  O1  UNL     1      35.086  38.869  44.218  1.00  0.00    -0.259 OA
HETATM   17  C1  UNL     1      35.085  38.033  45.332  1.00  0.00     0.228 C
ENDBRANCH  13  16
ENDBRANCH  12  13
ENDBRANCH   7  12
BRANCH   8  18
HETATM   18  O5  UNL     1      34.234  38.802  41.527  1.00  0.00    -0.358 OA
ATOM     19  H5  UNL     1      33.465  38.806  42.085  1.00  0.00     0.217 HD
ENDBRANCH   8  18
ENDBRANCH   5   6
ENDBRANCH   4   5
ENDBRANCH   1   4
BRANCH   3  20
HETATM   20  C10 UNL     1      32.346  44.027  38.980  1.00  0.00     0.110 A
HETATM   21  N2  UNL     1      31.000  44.271  39.016  1.00  0.00    -0.280 N
HETATM   22  N3  UNL     1      30.182  43.806  38.095  1.00  0.00    -0.128 N
ATOM     23  H2  UNL     1      30.620  44.830  39.780  1.00  0.00     0.188 HD
HETATM   24  C11 UNL     1      28.748  44.068  38.138  1.00  0.00     0.197 C
HETATM   25  C12 UNL     1      30.681  43.078  37.102  1.00  0.00     0.694 A
HETATM   26  N5  UNL     1      31.979  42.805  37.012  1.00  0.00    -0.174 N
HETATM   27  C13 UNL     1      32.862  43.274  37.952  1.00  0.00     0.144 A
ATOM     28  H5  UNL     1      32.323  42.242  36.234  1.00  0.00     0.186 HD
BRANCH  25  29
HETATM   29  N4  UNL     1      29.851  42.627  36.202  1.00  0.00    -0.233 N
ATOM     30  H42 UNL     1      28.861  42.521  36.424  1.00  0.00     0.174 HD
ATOM     31  H41 UNL     1      30.228  42.390  35.284  1.00  0.00     0.174 HD
ENDBRANCH  25  29
BRANCH  27  32
HETATM   32  N6  UNL     1      34.114  42.989  37.829  1.00  0.00    -0.383 N
ATOM     33  H62 UNL     1      34.465  42.692  36.919  1.00  0.00     0.157 HD
ATOM     34  H61 UNL     1      34.787  43.044  38.593  1.00  0.00     0.157 HD
ENDBRANCH  27  32
ENDBRANCH   3  20
TORSDOF 10
ENDMDL