MODEL 1
REMARK VINA RESULT: -5.182848049      0.000      0.000
REMARK  5 active torsions:
REMARK  status: ('A' for Active; 'I' for Inactive)
REMARK       I    between atoms: C2_2  and  N1_4
REMARK    1  A    between atoms: N1_4  and  C3_6
REMARK    2  A    between atoms: C7_13  and  N5_14
REMARK    3  A    between atoms: N5_14  and  O2_16
REMARK    4  A    between atoms: C8_18  and  N6_19
REMARK    5  A    between atoms: N6_19  and  O3_21
ROOT
HETATM    1  C3  UNL     1       0.432 -12.573  73.718  1.00  0.00     0.092 A
HETATM    2  C4  UNL     1      -0.880 -12.433  74.103  1.00  0.00     0.101 A
HETATM    3  N2  UNL     1      -1.709 -13.576  74.115  1.00  0.00    -0.098 NA
HETATM    4  C5  UNL     1      -1.420 -11.225  74.477  1.00  0.00     0.099 A
HETATM    5  N3  UNL     1      -2.776 -11.060  74.878  1.00  0.00    -0.098 NA
HETATM    6  C6  UNL     1      -0.638 -10.062  74.480  1.00  0.00     0.103 A
HETATM    7  N4  UNL     1      -1.155  -8.800  74.858  1.00  0.00    -0.098 NA
HETATM    8  C7  UNL     1       0.684 -10.207  74.091  1.00  0.00     0.111 A
HETATM    9  C8  UNL     1       1.230 -11.420  73.715  1.00  0.00     0.113 A
ENDROOT
BRANCH   1  10
HETATM   10  N1  UNL     1       1.002 -13.815  73.329  1.00  0.00    -0.324 N
HETATM   11  C2  UNL     1       1.230 -14.142  71.954  1.00  0.00     0.218 C
HETATM   12  C1  UNL     1       1.821 -15.425  71.539  1.00  0.00     0.117 C
HETATM   13  O1  UNL     1       0.927 -13.325  71.029  1.00  0.00    -0.274 OA
ATOM     14  H1  UNL     1       1.256 -14.492  74.048  1.00  0.00     0.169 HD
ENDBRANCH   1  10
BRANCH   9  15
HETATM   15  N6  UNL     1       2.598 -11.453  73.334  1.00  0.00    -0.265 N
ATOM     16  H6  UNL     1       3.323 -11.668  74.019  1.00  0.00     0.194 HD
BRANCH  15  17
HETATM   17  O3  UNL     1       2.897 -11.214  72.139  1.00  0.00    -0.289 OA
ATOM     18  H3  UNL     1       3.700 -11.579  71.787  1.00  0.00     0.244 HD
ENDBRANCH  15  17
ENDBRANCH   9  15
BRANCH   8  19
HETATM   19  N5  UNL     1       1.493  -9.061  74.084  1.00  0.00    -0.265 N
ATOM     20  H5  UNL     1       1.262  -8.248  73.513  1.00  0.00     0.194 HD
BRANCH  19  21
HETATM   21  O2  UNL     1       2.521  -9.081  74.819  1.00  0.00    -0.289 OA
ATOM     22  H2  UNL     1       2.505  -8.539  75.599  1.00  0.00     0.244 HD
ENDBRANCH  19  21
ENDBRANCH   8  19
TORSDOF 5
ENDMDL