MODEL 1
REMARK VINA RESULT: -5.211643956      0.000      0.000
REMARK  3 active torsions:
REMARK  status: ('A' for Active; 'I' for Inactive)
REMARK    1  A    between atoms: N2_4  and  N3_6
REMARK    2  A    between atoms: C1_8  and  C2_9
REMARK    3  A    between atoms: C3_13  and  C4_14
ROOT
HETATM    1  C2  UNL     1       1.773 -10.613  74.400  1.00  0.00     0.078 A
HETATM    2  N4  UNL     1       1.870 -11.949  74.431  1.00  0.00    -0.323 N
ATOM      3  H4  UNL     1       2.671 -12.555  74.613  1.00  0.00     0.174 HD
HETATM    4  S1  UNL     1       0.285 -12.317  74.083  1.00  0.00    -0.008 SA
HETATM    5  C3  UNL     1       0.412 -10.629  74.099  1.00  0.00     0.103 A
ENDROOT
BRANCH   1   6
HETATM    6  C1  UNL     1       2.770  -9.574  74.613  1.00  0.00     0.140 C
HETATM    7  N3  UNL     1       3.787  -9.379  73.850  1.00  0.00    -0.296 N
ATOM      8  H3  UNL     1       3.903  -9.991  73.043  1.00  0.00     0.187 HD
BRANCH   7   9
HETATM    9  N2  UNL     1       4.733  -8.390  74.058  1.00  0.00    -0.250 N
HETATM   10  N1  UNL     1       5.548  -8.031  73.135  1.00  0.00    -0.331 N
ATOM     11  H12 UNL     1       5.485  -8.496  72.229  1.00  0.00     0.178 HD
ATOM     12  H11 UNL     1       6.246  -7.302  73.288  1.00  0.00     0.178 HD
ATOM     13  H2  UNL     1       4.783  -7.935  74.970  1.00  0.00     0.207 HD
ENDBRANCH   7   9
ENDBRANCH   1   6
BRANCH   5  14
HETATM   14  C4  UNL     1      -0.573  -9.564  73.873  1.00  0.00     0.186 A
HETATM   15  N5  UNL     1      -0.847  -8.953  72.712  1.00  0.00    -0.276 N
HETATM   16  N6  UNL     1      -1.792  -8.048  72.910  1.00  0.00    -0.268 N
ATOM     17  H5  UNL     1      -0.398  -9.153  71.818  1.00  0.00     0.189 HD
HETATM   18  C5  UNL     1      -2.112  -8.097  74.211  1.00  0.00     0.235 A
ATOM     19  H6  UNL     1      -2.199  -7.432  72.206  1.00  0.00     0.190 HD
HETATM   20  S2  UNL     1      -3.227  -7.176  74.946  1.00  0.00    -0.031 SA
HETATM   21  O1  UNL     1      -1.359  -9.020  74.757  1.00  0.00    -0.263 OA
ENDBRANCH   5  14
TORSDOF 3
ENDMDL