MODEL 3
REMARK VINA RESULT: -5.354896802      1.742      2.913
REMARK  3 active torsions:
REMARK  status: ('A' for Active; 'I' for Inactive)
REMARK       I    between atoms: C1_4  and  N3_6
REMARK    1  A    between atoms: N3_6  and  N4_8
REMARK    2  A    between atoms: N5_10  and  C2_12
REMARK    3  A    between atoms: C4_15  and  S2_16
ROOT
HETATM    1  N4  UNL     1       3.246  -9.333  73.970  1.00  0.00    -0.239 N
ATOM      2  H4  UNL     1       3.040  -9.561  72.997  1.00  0.00     0.208 HD
HETATM    3  N5  UNL     1       2.468  -9.698  74.904  1.00  0.00    -0.270 N
ATOM      4  H5  UNL     1       2.680  -9.467  75.874  1.00  0.00     0.190 HD
ENDROOT
BRANCH   3   5
HETATM    5  C2  UNL     1       1.272 -10.451  74.569  1.00  0.00     0.129 A
HETATM    6  C3  UNL     1       0.076  -9.788  74.442  1.00  0.00     0.102 A
HETATM    7  S1  UNL     1      -0.988 -11.081  74.053  1.00  0.00    -0.072 SA
HETATM    8  C4  UNL     1       0.150 -12.356  74.080  1.00  0.00     0.125 A
HETATM    9  N6  UNL     1       1.264 -11.733  74.381  1.00  0.00    -0.329 N
ATOM     10  H6  UNL     1       2.133 -12.262  74.467  1.00  0.00     0.168 HD
BRANCH   8  11
HETATM   11  S2  UNL     1      -0.131 -14.119  73.769  1.00  0.00    -0.020 SA
HETATM   12  S3  UNL     1      -2.013 -14.712  74.530  1.00  0.00    -0.006 SA
ENDBRANCH   8  11
ENDBRANCH   3   5
BRANCH   1  13
HETATM   13  N3  UNL     1       4.392  -8.609  74.309  1.00  0.00    -0.259 N
HETATM   14  C1  UNL     1       5.535  -8.789  73.482  1.00  0.00     0.201 C
HETATM   15  N1  UNL     1       5.607  -8.172  72.355  1.00  0.00    -0.372 N
HETATM   16  N2  UNL     1       6.572  -9.640  73.910  1.00  0.00    -0.062 NA
ATOM     17  H12 UNL     1       6.426  -8.302  71.762  1.00  0.00     0.158 HD
ATOM     18  H11 UNL     1       4.855  -7.556  72.045  1.00  0.00     0.158 HD
ATOM     19  H3  UNL     1       4.409  -7.981  75.113  1.00  0.00     0.191 HD
ENDBRANCH   1  13
TORSDOF 3
ENDMDL