MODEL 5
REMARK VINA RESULT: -3.774000799      4.362      6.489
REMARK  3 active torsions:
REMARK  status: ('A' for Active; 'I' for Inactive)
REMARK    1  A    between atoms: C2_2  and  C3_6
REMARK    2  A    between atoms: C3_6  and  N2_8
REMARK    3  A    between atoms: N2_8  and  N3_10
ROOT
HETATM    1  N2  UNL     1      -0.528  -9.199  72.833  1.00  0.00    -0.304 N
ATOM      2  H2  UNL     1       0.184  -9.339  72.116  1.00  0.00     0.183 HD
ENDROOT
BRANCH   1   3
HETATM    3  C3  UNL     1      -0.299  -9.724  74.139  1.00  0.00     0.142 C
HETATM    4  C4  UNL     1      -1.111 -10.982  74.334  1.00  0.00     0.040 C
BRANCH   3   5
HETATM    5  C2  UNL     1       1.155 -10.001  74.367  1.00  0.00    -0.000 C
HETATM    6  C1  UNL     1       1.668 -11.391  74.376  1.00  0.00     0.065 C
HETATM    7  N1  UNL     1       1.928  -9.001  74.534  1.00  0.00    -0.404 N
ATOM      8  H12 UNL     1       2.919  -9.190  74.689  1.00  0.00     0.155 HD
ATOM      9  H11 UNL     1       1.575  -8.044  74.527  1.00  0.00     0.155 HD
ENDBRANCH   3   5
ENDBRANCH   1   3
BRANCH   1  10
HETATM   10  N3  UNL     1      -1.727  -8.478  72.485  1.00  0.00    -0.181 N
HETATM   11  N4  UNL     1      -2.101  -7.422  73.113  1.00  0.00    -0.262 N
HETATM   12  C5  UNL     1      -3.216  -6.799  72.724  1.00  0.00     0.161 A
ATOM     13  H4  UNL     1      -1.553  -7.064  73.896  1.00  0.00     0.190 HD
HETATM   14  S1  UNL     1      -3.889  -5.430  73.376  1.00  0.00    -0.051 SA
HETATM   15  S2  UNL     1      -3.739  -7.762  71.421  1.00  0.00    -0.026 SA
HETATM   16  C6  UNL     1      -2.480  -8.906  71.466  1.00  0.00     0.184 A
HETATM   17  S3  UNL     1      -2.233 -10.222  70.499  1.00  0.00    -0.049 SA
ENDBRANCH   1  10
TORSDOF 3
ENDMDL