MODEL 3
REMARK VINA RESULT: -4.527659920      0.773      1.794
REMARK  5 active torsions:
REMARK  status: ('A' for Active; 'I' for Inactive)
REMARK    1  A    between atoms: N1_1  and  N2_4
REMARK    2  A    between atoms: C1_5  and  C2_6
REMARK    3  A    between atoms: C3_7  and  C4_8
REMARK    4  A    between atoms: C4_8  and  C5_9
REMARK    5  A    between atoms: C5_9  and  S1_10
ROOT
HETATM    1  N2  UNL     1       3.343  -9.852  73.648  1.00  0.00    -0.218 N
HETATM    2  C1  UNL     1       2.933 -11.003  73.110  1.00  0.00     0.143 A
HETATM    3  N3  UNL     1       4.035 -11.468  72.423  1.00  0.00    -0.282 N
ATOM      4  H3  UNL     1       4.066 -12.339  71.891  1.00  0.00     0.188 HD
HETATM    5  N4  UNL     1       5.036 -10.633  72.552  1.00  0.00    -0.273 N
ATOM      6  H4  UNL     1       5.963 -10.745  72.141  1.00  0.00     0.189 HD
HETATM    7  C6  UNL     1       4.637  -9.611  73.313  1.00  0.00     0.213 A
HETATM    8  S3  UNL     1       5.453  -8.290  73.803  1.00  0.00    -0.037 SA
ENDROOT
BRANCH   2   9
HETATM    9  C2  UNL     1       1.652 -11.674  73.183  1.00  0.00     0.052 C
HETATM   10  C3  UNL     1       1.175 -12.387  74.169  1.00  0.00     0.004 C
BRANCH  10  11
HETATM   11  C4  UNL     1      -0.141 -13.007  74.102  1.00  0.00     0.008 C
BRANCH  11  12
HETATM   12  C5  UNL     1      -0.442 -13.838  73.127  1.00  0.00     0.057 C
BRANCH  12  13
HETATM   13  S1  UNL     1       0.452 -15.363  72.980  1.00  0.00    -0.057 SA
HETATM   14  S2  UNL     1       2.059 -15.196  71.626  1.00  0.00    -0.008 SA
ENDBRANCH  12  13
ENDBRANCH  11  12
ENDBRANCH  10  11
ENDBRANCH   2   9
BRANCH   1  15
HETATM   15  N1  UNL     1       2.576  -8.994  74.448  1.00  0.00    -0.335 N
ATOM     16  H12 UNL     1       1.663  -8.631  74.172  1.00  0.00     0.177 HD
ATOM     17  H11 UNL     1       2.832  -8.643  75.370  1.00  0.00     0.177 HD
ENDBRANCH   1  15
TORSDOF 5
ENDMDL