MODEL 5
REMARK VINA RESULT: -4.314972618      2.667      4.600
REMARK  4 active torsions:
REMARK  status: ('A' for Active; 'I' for Inactive)
REMARK    1  A    between atoms: C3_5  and  N2_6
REMARK    2  A    between atoms: N3_8  and  C4_10
REMARK    3  A    between atoms: C6_19  and  C7_20
REMARK    4  A    between atoms: C7_20  and  O1_21
ROOT
HETATM    1  N2  UNL     1       1.996 -10.335  74.787  1.00  0.00    -0.269 N
ATOM      2  H2  UNL     1       2.885 -10.255  75.278  1.00  0.00     0.189 HD
HETATM    3  N3  UNL     1       1.236  -9.351  74.796  1.00  0.00    -0.129 N
ATOM      4  H3  UNL     1       1.531  -8.510  75.292  1.00  0.00     0.205 HD
ENDROOT
BRANCH   1   5
HETATM    5  C3  UNL     1       1.703 -11.578  74.129  1.00  0.00     0.147 A
HETATM    6  N1  UNL     1       0.639 -12.380  74.330  1.00  0.00    -0.330 N
HETATM    7  C2  UNL     1       0.691 -13.460  73.540  1.00  0.00     0.079 A
ATOM      8  H1  UNL     1      -0.109 -12.189  74.997  1.00  0.00     0.168 HD
HETATM    9  C1  UNL     1      -0.266 -14.599  73.429  1.00  0.00     0.089 C
HETATM   10  N7  UNL     1       1.823 -13.346  72.810  1.00  0.00    -0.345 N
HETATM   11  C6  UNL     1       2.457 -12.200  73.155  1.00  0.00     0.080 A
ATOM     12  H7  UNL     1       2.148 -14.014  72.111  1.00  0.00     0.167 HD
BRANCH  11  13
HETATM   13  C7  UNL     1       3.737 -11.681  72.602  1.00  0.00     0.225 C
BRANCH  13  14
HETATM   14  O1  UNL     1       3.742 -10.301  72.584  1.00  0.00    -0.395 OA
ATOM     15  H1  UNL     1       4.311  -9.955  73.262  1.00  0.00     0.209 HD
ENDBRANCH  13  14
ENDBRANCH  11  13
ENDBRANCH   1   5
BRANCH   3  16
HETATM   16  C4  UNL     1      -0.041  -9.350  74.136  1.00  0.00     0.713 A
HETATM   17  N4  UNL     1      -1.250  -9.545  74.678  1.00  0.00    -0.128 N
HETATM   18  N5  UNL     1      -2.194  -9.471  73.758  1.00  0.00    -0.261 N
ATOM     19  H4  UNL     1      -1.418  -9.727  75.668  1.00  0.00     0.205 HD
HETATM   20  C5  UNL     1      -1.550  -9.222  72.605  1.00  0.00     0.205 A
ATOM     21  H5  UNL     1      -3.199  -9.580  73.894  1.00  0.00     0.190 HD
HETATM   22  S1  UNL     1      -2.260  -9.033  71.127  1.00  0.00    -0.039 SA
HETATM   23  N6  UNL     1      -0.230  -9.146  72.828  1.00  0.00    -0.162 N
ATOM     24  H6  UNL     1       0.494  -8.966  72.131  1.00  0.00     0.187 HD
ENDBRANCH   3  16
TORSDOF 4
ENDMDL