MODEL 1
REMARK VINA RESULT: -4.795139373      0.000      0.000
REMARK  3 active torsions:
REMARK  status: ('A' for Active; 'I' for Inactive)
REMARK    1  A    between atoms: C2_2  and  N2_6
REMARK    2  A    between atoms: N2_6  and  C3_8
REMARK    3  A    between atoms: N4_14  and  C7_15
ROOT
HETATM    1  C3  UNL     1       2.423 -16.982  72.032  1.00  0.00     0.687 A
HETATM    2  N3  UNL     1       3.239 -16.068  71.409  1.00  0.00    -0.200 N
ATOM      3  H3  UNL     1       4.198 -16.216  71.092  1.00  0.00     0.183 HD
HETATM    4  C4  UNL     1       2.522 -14.946  71.303  1.00  0.00     0.131 A
HETATM    5  C5  UNL     1       1.297 -15.155  71.844  1.00  0.00     0.043 A
HETATM    6  C6  UNL     1       0.209 -14.149  71.918  1.00  0.00     0.070 C
HETATM    7  N4  UNL     1       1.249 -16.456  72.304  1.00  0.00    -0.163 N
ENDROOT
BRANCH   7   8
HETATM    8  C7  UNL     1       0.096 -16.967  72.917  1.00  0.00     0.226 C
HETATM    9  C8  UNL     1       0.078 -17.246  74.369  1.00  0.00     0.075 C
HETATM   10  C9  UNL     1      -1.420 -17.346  74.753  1.00  0.00     0.100 C
HETATM   11  C10 UNL     1      -1.557 -17.922  76.145  1.00  0.00     0.034 C
HETATM   12  N5  UNL     1      -2.135 -18.171  73.831  1.00  0.00    -0.318 N
HETATM   13  N6  UNL     1      -1.732 -18.532  72.713  1.00  0.00    -0.249 N
ATOM     14  H5  UNL     1      -3.059 -18.494  74.118  1.00  0.00     0.182 HD
HETATM   15  N7  UNL     1      -0.489 -18.143  72.239  1.00  0.00    -0.298 N
ATOM     16  H6  UNL     1      -2.327 -19.124  72.133  1.00  0.00     0.207 HD
ATOM     17  H7  UNL     1      -0.014 -18.631  71.480  1.00  0.00     0.184 HD
ENDBRANCH   7   8
BRANCH   1  18
HETATM   18  N2  UNL     1       2.873 -18.293  72.303  1.00  0.00    -0.181 N
ATOM     19  H2  UNL     1       3.209 -18.537  73.235  1.00  0.00     0.185 HD
BRANCH  18  20
HETATM   20  C2  UNL     1       2.857 -19.292  71.245  1.00  0.00     0.087 C
HETATM   21  C1  UNL     1       2.181 -19.042  69.960  1.00  0.00     0.089 C
HETATM   22  N1  UNL     1       3.445 -20.399  71.462  1.00  0.00    -0.389 N
ATOM     23  H12 UNL     1       3.433 -21.099  70.721  1.00  0.00     0.157 HD
ATOM     24  H11 UNL     1       3.913 -20.572  72.351  1.00  0.00     0.157 HD
ENDBRANCH  18  20
ENDBRANCH   1  18
TORSDOF 3
ENDMDL