MODEL 1
REMARK VINA RESULT: -5.408689867      0.000      0.000
REMARK  5 active torsions:
REMARK  status: ('A' for Active; 'I' for Inactive)
REMARK    1  A    between atoms: C3_10  and  C4_11
REMARK    2  A    between atoms: C4_11  and  C5_12
REMARK    3  A    between atoms: C5_12  and  C6_13
REMARK    4  A    between atoms: C6_13  and  N4_14
REMARK    5  A    between atoms: C8_20  and  N6_21
ROOT
HETATM    1  N1  UNL     1      -1.595 -10.588  74.382  1.00  0.00    -0.385 N
ATOM      2  H11 UNL     1      -2.232 -11.315  74.058  1.00  0.00     0.157 HD
ATOM      3  H12 UNL     1      -2.250  -9.923  74.793  1.00  0.00     0.157 HD
HETATM    4  C1  UNL     1      -0.384 -10.376  74.364  1.00  0.00     0.107 A
HETATM    5  N2  UNL     1       0.532  -9.331  74.830  1.00  0.00    -0.331 N
ATOM      6  H2  UNL     1       0.249  -8.481  75.317  1.00  0.00     0.168 HD
HETATM    7  C2  UNL     1       1.651  -9.618  74.556  1.00  0.00     0.107 A
HETATM    8  N3  UNL     1       3.109  -9.390  74.470  1.00  0.00    -0.360 N
ATOM      9  H3  UNL     1       3.753  -8.959  75.132  1.00  0.00     0.162 HD
HETATM   10  C3  UNL     1       3.380 -10.042  72.985  1.00  0.00     0.170 C
HETATM   11  N5  UNL     1       2.513 -10.995  72.427  1.00  0.00    -0.216 NA
HETATM   12  C7  UNL     1       1.255 -12.273  73.206  1.00  0.00     0.144 A
HETATM   13  C8  UNL     1       1.658 -13.198  72.660  1.00  0.00     0.078 A
HETATM   14  S1  UNL     1       3.126 -12.323  73.282  1.00  0.00    -0.093 SA
HETATM   15  C9  UNL     1       1.736 -10.913  73.935  1.00  0.00     0.138 A
HETATM   16  C10 UNL     1       0.610 -11.384  73.740  1.00  0.00     0.033 A
ENDROOT
BRANCH  10  17
HETATM   17  C4  UNL     1       4.824 -10.084  72.826  1.00  0.00     0.043 C
BRANCH  17  18
HETATM   18  C5  UNL     1       5.407  -8.938  73.686  1.00  0.00     0.030 C
BRANCH  18  19
HETATM   19  C6  UNL     1       5.999  -7.920  72.763  1.00  0.00     0.230 C
BRANCH  19  20
HETATM   20  N4  UNL     1       5.588  -8.147  71.379  1.00  0.00    -0.079 N
ATOM     21  H43 UNL     1       5.373  -9.130  71.210  1.00  0.00     0.274 HD
ATOM     22  H42 UNL     1       4.667  -7.750  71.193  1.00  0.00     0.274 HD
ATOM     23  H41 UNL     1       6.283  -7.799  70.719  1.00  0.00     0.274 HD
ENDBRANCH  19  20
ENDBRANCH  18  19
ENDBRANCH  17  18
ENDBRANCH  10  17
BRANCH  13  24
HETATM   24  N6  UNL     1       1.726 -14.332  71.897  1.00  0.00    -0.395 N
ATOM     25  H62 UNL     1       1.458 -14.361  70.913  1.00  0.00     0.156 HD
ATOM     26  H61 UNL     1       1.834 -15.305  71.613  1.00  0.00     0.156 HD
ENDBRANCH  13  24
TORSDOF 5
ENDMDL