MODEL 3
REMARK VINA RESULT: -4.001412941      2.170      2.801
REMARK  1 active torsions:
REMARK  status: ('A' for Active; 'I' for Inactive)
REMARK    1  A    between atoms: N2_4  and  N3_6
ROOT
HETATM    1  N3  UNL     1      26.840  37.896  45.208  1.00  0.00    -0.274 N
ATOM      2  H3  UNL     1      26.810  37.288  44.390  1.00  0.00     0.190 HD
HETATM    3  C1  UNL     1      27.901  37.920  45.943  1.00  0.00     0.111 A
HETATM    4  C2  UNL     1      28.608  38.481  47.151  1.00  0.00     0.198 A
HETATM    5  N4  UNL     1      29.243  37.504  46.284  1.00  0.00    -0.370 N
ATOM      6  H4  UNL     1      30.059  36.931  46.068  1.00  0.00     0.161 HD
ENDROOT
BRANCH   1   7
HETATM    7  N2  UNL     1      25.740  38.681  45.515  1.00  0.00    -0.248 N
HETATM    8  N1  UNL     1      24.630  38.199  45.849  1.00  0.00    -0.331 N
ATOM      9  H12 UNL     1      24.552  37.183  45.891  1.00  0.00     0.178 HD
ATOM     10  H11 UNL     1      23.821  38.778  46.074  1.00  0.00     0.178 HD
ATOM     11  H2  UNL     1      25.836  39.695  45.467  1.00  0.00     0.207 HD
ENDBRANCH   1   7
TORSDOF 1
ENDMDL