MODEL 1
REMARK VINA RESULT: -3.334057625      0.000      0.000
REMARK  1 active torsions:
REMARK  status: ('A' for Active; 'I' for Inactive)
REMARK    1  A    between atoms: N1_2  and  N2_3
ROOT
HETATM    1  N2  UNL     1      27.957  38.825  45.970  1.00  0.00    -0.208 NA
HETATM    2  C2  UNL     1      28.682  38.497  47.161  1.00  0.00     0.139 C
HETATM    3  C3  UNL     1      29.058  37.031  47.001  1.00  0.00     0.249 C
HETATM    4  N3  UNL     1      28.957  36.856  45.559  1.00  0.00    -0.061 N
ATOM      5  H31 UNL     1      29.016  35.895  45.224  1.00  0.00     0.278 HD
ATOM      6  H32 UNL     1      29.757  37.183  45.016  1.00  0.00     0.278 HD
HETATM    7  C4  UNL     1      27.686  37.546  45.298  1.00  0.00     0.341 C
ENDROOT
BRANCH   1   8
HETATM    8  N1  UNL     1      26.789  39.539  46.190  1.00  0.00    -0.168 NA
HETATM    9  C1  UNL     1      25.688  38.570  46.080  1.00  0.00     0.152 C
ENDBRANCH   1   8
TORSDOF 1
ENDMDL