MODEL 1
REMARK VINA RESULT: -4.153853750      0.000      0.000
REMARK  1 active torsions:
REMARK  status: ('A' for Active; 'I' for Inactive)
REMARK    1  A    between atoms: N2_3  and  C2_5
ROOT
HETATM    1  C2  UNL     1      27.212  37.829  46.156  1.00  0.00     0.133 C
HETATM    2  C3  UNL     1      28.292  37.239  45.251  1.00  0.00     0.259 C
HETATM    3  N3  UNL     1      29.204  37.557  46.366  1.00  0.00    -0.071 N
ATOM      4  H31 UNL     1      30.213  37.641  46.238  1.00  0.00     0.277 HD
ATOM      5  H32 UNL     1      29.403  36.893  47.114  1.00  0.00     0.277 HD
HETATM    6  C4  UNL     1      28.335  38.733  46.567  1.00  0.00     0.259 C
ENDROOT
BRANCH   1   7
HETATM    7  N2  UNL     1      26.101  38.411  45.502  1.00  0.00    -0.380 N
HETATM    8  C1  UNL     1      25.014  38.614  46.182  1.00  0.00     0.185 C
HETATM    9  N1  UNL     1      23.847  39.191  45.614  1.00  0.00    -0.097 NA
ATOM     10  H2  UNL     1      26.153  38.667  44.516  1.00  0.00     0.160 HD
ENDBRANCH   1   7
TORSDOF 1
ENDMDL