MODEL 3
REMARK VINA RESULT: -4.468735065      0.776      1.099
REMARK  2 active torsions:
REMARK  status: ('A' for Active; 'I' for Inactive)
REMARK    1  A    between atoms: N1_1  and  N2_4
REMARK    2  A    between atoms: N3_6  and  N4_8
ROOT
HETATM    1  N4  UNL     1      25.438  39.674  46.239  1.00  0.00    -0.269 N
HETATM    2  C1  UNL     1      26.018  38.415  46.197  1.00  0.00     0.183 A
HETATM    3  C2  UNL     1      27.291  38.033  45.477  1.00  0.00     0.265 C
HETATM    4  N5  UNL     1      27.846  38.906  46.542  1.00  0.00    -0.049 N
ATOM      5  H51 UNL     1      28.826  39.175  46.619  1.00  0.00     0.279 HD
ATOM      6  H52 UNL     1      27.947  38.636  47.521  1.00  0.00     0.279 HD
HETATM    7  C3  UNL     1      26.799  39.759  46.031  1.00  0.00     0.329 A
ENDROOT
BRANCH   1   8
HETATM    8  N3  UNL     1      24.249  40.394  46.393  1.00  0.00    -0.228 N
HETATM    9  N2  UNL     1      23.587  40.641  45.337  1.00  0.00    -0.235 N
ATOM     10  H2  UNL     1      23.918  40.323  44.426  1.00  0.00     0.209 HD
ATOM     11  H3  UNL     1      23.928  40.707  47.309  1.00  0.00     0.209 HD
BRANCH   9  12
HETATM   12  N1  UNL     1      22.411  41.349  45.455  1.00  0.00    -0.330 N
ATOM     13  H12 UNL     1      21.517  40.862  45.399  1.00  0.00     0.178 HD
ATOM     14  H11 UNL     1      22.467  42.357  45.596  1.00  0.00     0.178 HD
ENDBRANCH   9  12
ENDBRANCH   1   8
TORSDOF 2
ENDMDL