MODEL 5
REMARK VINA RESULT: -3.225563831      1.304      1.304
REMARK  1 active torsions:
REMARK  status: ('A' for Active; 'I' for Inactive)
REMARK    1  A    between atoms: C2_5  and  N2_6
ROOT
HETATM    1  C1  UNL     1      27.774  37.852  45.605  1.00  0.00     0.284 A
HETATM    2  N1  UNL     1      27.860  39.037  46.448  1.00  0.00    -0.052 N
ATOM      3  H11 UNL     1      28.147  40.000  46.275  1.00  0.00     0.279 HD
ATOM      4  H12 UNL     1      28.477  39.311  47.212  1.00  0.00     0.279 HD
HETATM    5  C2  UNL     1      26.602  38.363  46.394  1.00  0.00     0.302 A
ENDROOT
BRANCH   5   6
HETATM    6  N2  UNL     1      25.486  38.854  45.639  1.00  0.00    -0.186 NA
HETATM    7  C3  UNL     1      24.184  38.492  46.032  1.00  0.00     0.240 A
HETATM    8  N3  UNL     1      24.625  39.790  46.290  1.00  0.00    -0.146 NA
ENDBRANCH   5   6
TORSDOF 1
ENDMDL