MODEL 5
REMARK VINA RESULT: -3.842309976      1.286      3.980
REMARK  1 active torsions:
REMARK  status: ('A' for Active; 'I' for Inactive)
REMARK    1  A    between atoms: N2_3  and  N3_5
ROOT
HETATM    1  N3  UNL     1      26.486  38.257  45.778  1.00  0.00    -0.287 N
ATOM      2  H3  UNL     1      26.619  37.370  45.292  1.00  0.00     0.188 HD
HETATM    3  C2  UNL     1      25.319  38.770  45.883  1.00  0.00     0.110 A
HETATM    4  C3  UNL     1      24.422  39.841  46.352  1.00  0.00     0.198 A
HETATM    5  N4  UNL     1      23.860  38.699  45.607  1.00  0.00    -0.370 N
ATOM      6  H4  UNL     1      23.059  38.215  45.201  1.00  0.00     0.161 HD
ENDROOT
BRANCH   1   7
HETATM    7  N2  UNL     1      27.575  38.927  46.337  1.00  0.00    -0.297 N
HETATM    8  C1  UNL     1      28.393  38.236  47.058  1.00  0.00     0.206 C
HETATM    9  N1  UNL     1      29.491  38.937  47.616  1.00  0.00    -0.095 NA
ATOM     10  H2  UNL     1      27.718  39.925  46.183  1.00  0.00     0.187 HD
ENDBRANCH   1   7
TORSDOF 1
ENDMDL