MODEL 4
REMARK VINA RESULT: -4.665881927      1.254      1.409
REMARK  3 active torsions:
REMARK  status: ('A' for Active; 'I' for Inactive)
REMARK    1  A    between atoms: N1_1  and  N2_4
REMARK    2  A    between atoms: N2_4  and  N3_6
REMARK    3  A    between atoms: N4_8  and  N5_10
ROOT
HETATM    1  N3  UNL     1      24.324  39.264  45.771  1.00  0.00    -0.214 N
ATOM      2  H3  UNL     1      23.846  38.384  45.966  1.00  0.00     0.211 HD
HETATM    3  N4  UNL     1      25.574  39.223  45.571  1.00  0.00    -0.225 N
ATOM      4  H4  UNL     1      26.056  40.100  45.376  1.00  0.00     0.210 HD
ENDROOT
BRANCH   1   5
HETATM    5  N2  UNL     1      23.568  40.409  45.745  1.00  0.00    -0.234 N
ATOM      6  H2  UNL     1      23.713  41.150  46.432  1.00  0.00     0.209 HD
BRANCH   5   7
HETATM    7  N1  UNL     1      22.671  40.521  44.831  1.00  0.00    -0.330 N
ATOM      8  H12 UNL     1      21.767  40.063  44.944  1.00  0.00     0.178 HD
ATOM      9  H11 UNL     1      22.896  41.075  44.004  1.00  0.00     0.178 HD
ENDBRANCH   5   7
ENDBRANCH   1   5
BRANCH   3  10
HETATM   10  N5  UNL     1      26.323  38.066  45.600  1.00  0.00    -0.266 N
HETATM   11  C1  UNL     1      27.477  37.999  46.152  1.00  0.00     0.159 A
HETATM   12  C2  UNL     1      28.682  37.370  46.563  1.00  0.00     0.262 A
HETATM   13  O1  UNL     1      28.495  38.783  46.887  1.00  0.00    -0.328 OA
ATOM     14  H5  UNL     1      25.942  37.227  45.163  1.00  0.00     0.190 HD
ENDBRANCH   3  10
TORSDOF 3
ENDMDL