MODEL 3
REMARK VINA RESULT: -3.821752440      1.746      3.055
REMARK  2 active torsions:
REMARK  status: ('A' for Active; 'I' for Inactive)
REMARK    1  A    between atoms: C4_6  and  N3_7
REMARK    2  A    between atoms: N3_7  and  N4_8
ROOT
HETATM    1  C1  UNL     1      28.743  39.204  47.082  1.00  0.00     0.300 C
HETATM    2  N1  UNL     1      27.673  39.202  46.153  1.00  0.00     0.038 N
HETATM    3  N2  UNL     1      26.869  40.310  46.101  1.00  0.00    -0.042 NA
HETATM    4  C2  UNL     1      25.596  39.634  46.074  1.00  0.00     0.182 C
HETATM    5  C3  UNL     1      26.453  38.431  46.442  1.00  0.00     0.279 A
HETATM    6  C4  UNL     1      27.388  38.018  45.383  1.00  0.00     0.357 A
ENDROOT
BRANCH   6   7
HETATM    7  N3  UNL     1      28.129  36.827  45.672  1.00  0.00    -0.110 NA
BRANCH   7   8
HETATM    8  N4  UNL     1      28.943  36.510  44.576  1.00  0.00    -0.346 N
ATOM      9  H42 UNL     1      28.671  35.889  43.814  1.00  0.00     0.172 HD
ATOM     10  H41 UNL     1      29.836  36.995  44.668  1.00  0.00     0.172 HD
ENDBRANCH   7   8
ENDBRANCH   6   7
TORSDOF 2
ENDMDL