MODEL 5
REMARK VINA RESULT: -4.323735927      1.751      4.393
REMARK  2 active torsions:
REMARK  status: ('A' for Active; 'I' for Inactive)
REMARK    1  A    between atoms: N2_4  and  N3_6
REMARK    2  A    between atoms: N4_8  and  C1_10
ROOT
HETATM    1  N3  UNL     1      27.776  37.221  44.821  1.00  0.00    -0.233 N
ATOM      2  H3  UNL     1      27.382  37.312  43.884  1.00  0.00     0.209 HD
HETATM    3  N4  UNL     1      27.250  37.870  45.790  1.00  0.00    -0.313 N
ATOM      4  H4  UNL     1      27.627  37.794  46.734  1.00  0.00     0.182 HD
ENDROOT
BRANCH   3   5
HETATM    5  C1  UNL     1      26.129  38.696  45.520  1.00  0.00     0.152 C
HETATM    6  C2  UNL     1      26.078  40.006  46.320  1.00  0.00     0.260 C
HETATM    7  N5  UNL     1      24.618  39.858  46.214  1.00  0.00    -0.071 N
HETATM    8  C3  UNL     1      24.875  38.412  46.343  1.00  0.00     0.260 C
ATOM      9  H52 UNL     1      23.977  40.352  46.836  1.00  0.00     0.277 HD
ATOM     10  H51 UNL     1      24.089  40.247  45.433  1.00  0.00     0.277 HD
ENDBRANCH   3   5
BRANCH   1  11
HETATM   11  N2  UNL     1      28.884  36.389  45.022  1.00  0.00    -0.235 N
HETATM   12  N1  UNL     1      29.379  36.340  46.186  1.00  0.00    -0.330 N
ATOM     13  H12 UNL     1      28.972  36.893  46.941  1.00  0.00     0.178 HD
ATOM     14  H11 UNL     1      30.186  35.733  46.333  1.00  0.00     0.178 HD
ATOM     15  H2  UNL     1      29.278  35.841  44.257  1.00  0.00     0.209 HD
ENDBRANCH   1  11
TORSDOF 2
ENDMDL