MODEL 1
REMARK VINA RESULT: -4.679274242      0.000      0.000
REMARK  2 active torsions:
REMARK  status: ('A' for Active; 'I' for Inactive)
REMARK    1  A    between atoms: N2_3  and  C2_5
REMARK    2  A    between atoms: N3_7  and  N4_8
ROOT
HETATM    1  C2  UNL     1      26.304  38.256  45.941  1.00  0.00     0.191 A
HETATM    2  C3  UNL     1      27.608  38.710  46.370  1.00  0.00     0.158 A
HETATM    3  N3  UNL     1      27.408  38.180  44.995  1.00  0.00    -0.210 NA
ENDROOT
BRANCH   1   4
HETATM    4  N2  UNL     1      25.232  39.112  45.537  1.00  0.00    -0.368 N
HETATM    5  C1  UNL     1      24.479  39.793  46.296  1.00  0.00     0.186 C
HETATM    6  N1  UNL     1      23.457  40.597  45.749  1.00  0.00    -0.097 NA
ATOM      7  H2  UNL     1      25.056  39.183  44.535  1.00  0.00     0.161 HD
ENDBRANCH   1   4
BRANCH   3   8
HETATM    8  N4  UNL     1      27.938  36.889  44.783  1.00  0.00    -0.361 NA
ATOM      9  H42 UNL     1      28.562  36.815  43.980  1.00  0.00     0.171 HD
ATOM     10  H41 UNL     1      28.947  36.804  44.906  1.00  0.00     0.171 HD
ENDBRANCH   3   8
TORSDOF 2
ENDMDL