MODEL 4
REMARK VINA RESULT: -3.393017016      1.805      2.119
REMARK  3 active torsions:
REMARK  status: ('A' for Active; 'I' for Inactive)
REMARK       I    between atoms: N1_2  and  C3_4
REMARK    1  A    between atoms: C3_4  and  C4_6
REMARK    2  A    between atoms: C4_6  and  N2_7
REMARK    3  A    between atoms: C4_6  and  N3_11
ROOT
HETATM    1  C4  UNL     1      27.516  37.633  46.038  1.00  0.00     0.468 C
ENDROOT
BRANCH   1   2
HETATM    2  C3  UNL     1      26.651  38.802  45.987  1.00  0.00     0.277 C
HETATM    3  N1  UNL     1      25.255  38.847  46.043  1.00  0.00    -0.358 N
HETATM    4  C1  UNL     1      24.541  40.142  45.975  1.00  0.00     0.152 C
HETATM    5  C2  UNL     1      24.394  37.698  46.166  1.00  0.00     0.152 C
HETATM    6  O1  UNL     1      27.243  39.945  45.873  1.00  0.00    -0.269 OA
ENDBRANCH   1   2
BRANCH   1   7
HETATM    7  N2  UNL     1      27.689  36.984  44.781  1.00  0.00    -0.042 N
ATOM      8  H23 UNL     1      28.462  37.404  44.265  1.00  0.00     0.277 HD
ATOM      9  H22 UNL     1      28.061  36.044  44.913  1.00  0.00     0.277 HD
ATOM     10  H21 UNL     1      26.846  36.959  44.208  1.00  0.00     0.277 HD
ENDBRANCH   1   7
BRANCH   1  11
HETATM   11  N3  UNL     1      28.847  38.021  46.553  1.00  0.00    -0.042 N
ATOM     12  H33 UNL     1      28.882  38.016  47.572  1.00  0.00     0.277 HD
ATOM     13  H32 UNL     1      29.550  37.303  46.379  1.00  0.00     0.277 HD
ATOM     14  H31 UNL     1      29.116  38.925  46.163  1.00  0.00     0.277 HD
ENDBRANCH   1  11
TORSDOF 3
ENDMDL