MODEL 3
REMARK VINA RESULT: -4.595262274      2.575      4.189
REMARK  1 active torsions:
REMARK  status: ('A' for Active; 'I' for Inactive)
REMARK       I    between atoms: N2_3  and  C2_5
REMARK    1  A    between atoms: C2_5  and  C3_7
ROOT
HETATM    1  N1  UNL     1      23.725  40.216  45.837  1.00  0.00    -0.172 NA
HETATM    2  C1  UNL     1      24.492  39.357  45.696  1.00  0.00     0.184 C
HETATM    3  N2  UNL     1      25.396  38.307  45.526  1.00  0.00    -0.254 N
ATOM      4  H2  UNL     1      25.036  37.372  45.332  1.00  0.00     0.181 HD
HETATM    5  C2  UNL     1      26.804  38.497  45.614  1.00  0.00     0.331 C
HETATM    6  O1  UNL     1      27.215  39.658  45.854  1.00  0.00    -0.260 OA
ENDROOT
BRANCH   5   7
HETATM    7  C3  UNL     1      27.758  37.426  45.442  1.00  0.00     0.271 C
HETATM    8  O2  UNL     1      28.246  36.841  46.441  1.00  0.00    -0.640 OA
HETATM    9  O3  UNL     1      28.142  37.037  44.186  1.00  0.00    -0.640 OA
ENDBRANCH   5   7
TORSDOF 1
ENDMDL