MODEL 5
REMARK VINA RESULT: -3.626811490     13.183     14.046
REMARK  2 active torsions:
REMARK  status: ('A' for Active; 'I' for Inactive)
REMARK    1  A    between atoms: N4_6  and  N5_7
REMARK    2  A    between atoms: N5_7  and  N6_9
ROOT
HETATM    1  C1  UNL     1      18.242  35.913  35.160  1.00  0.00     0.205 C
HETATM    2  N1  UNL     1      17.096  36.746  35.554  1.00  0.00    -0.189 N
HETATM    3  N2  UNL     1      16.580  37.204  36.667  1.00  0.00    -0.204 N
ATOM      4  H2  UNL     1      16.809  37.133  37.658  1.00  0.00     0.207 HD
HETATM    5  N3  UNL     1      15.636  37.799  35.958  1.00  0.00     0.038 NA
HETATM    6  N4  UNL     1      16.163  37.332  34.827  1.00  0.00    -0.082 N
ENDROOT
BRANCH   6   7
HETATM    7  N5  UNL     1      15.835  37.439  33.455  1.00  0.00    -0.213 N
ATOM      8  H5  UNL     1      16.274  36.788  32.804  1.00  0.00     0.211 HD
BRANCH   7   9
HETATM    9  N6  UNL     1      14.972  38.358  32.955  1.00  0.00    -0.328 N
ATOM     10  H62 UNL     1      15.018  38.537  31.951  1.00  0.00     0.178 HD
ATOM     11  H61 UNL     1      14.294  38.868  33.521  1.00  0.00     0.178 HD
ENDBRANCH   7   9
ENDBRANCH   6   7
TORSDOF 2
ENDMDL