MODEL 1
REMARK VINA RESULT: -4.283715733      0.000      0.000
REMARK  3 active torsions:
REMARK  status: ('A' for Active; 'I' for Inactive)
REMARK    1  A    between atoms: C3_3  and  C4_7
REMARK    2  A    between atoms: C4_7  and  N2_9
REMARK    3  A    between atoms: C4_7  and  O1_13
ROOT
HETATM    1  C1  UNL     1      29.660  36.190  47.513  1.00  0.00     0.019 C
HETATM    2  C2  UNL     1      28.952  36.580  46.618  1.00  0.00    -0.059 C
HETATM    3  C3  UNL     1      28.121  37.038  45.528  1.00  0.00     0.119 C
HETATM    4  N1  UNL     1      28.112  36.317  44.460  1.00  0.00    -0.392 N
ATOM      5  H11 UNL     1      27.525  36.640  43.691  1.00  0.00     0.156 HD
ATOM      6  H12 UNL     1      28.665  35.463  44.388  1.00  0.00     0.156 HD
ENDROOT
BRANCH   3   7
HETATM    7  C4  UNL     1      27.314  38.282  45.633  1.00  0.00     0.269 C
HETATM    8  C5  UNL     1      28.109  39.283  46.446  1.00  0.00     0.086 C
BRANCH   7   9
HETATM    9  N2  UNL     1      26.076  38.048  46.390  1.00  0.00    -0.041 N
ATOM     10  H23 UNL     1      26.111  37.168  46.904  1.00  0.00     0.278 HD
ATOM     11  H22 UNL     1      25.992  38.687  47.180  1.00  0.00     0.278 HD
ATOM     12  H21 UNL     1      25.258  38.095  45.782  1.00  0.00     0.278 HD
ENDBRANCH   7   9
BRANCH   7  13
HETATM   13  O1  UNL     1      26.950  38.789  44.405  1.00  0.00    -0.360 OA
ATOM     14  H1  UNL     1      27.588  39.399  44.053  1.00  0.00     0.213 HD
ENDBRANCH   7  13
ENDBRANCH   3   7
TORSDOF 3
ENDMDL