MODEL 1
REMARK VINA RESULT: -4.882047576      0.000      0.000
REMARK  2 active torsions:
REMARK  status: ('A' for Active; 'I' for Inactive)
REMARK    1  A    between atoms: C2_2  and  O1_3
REMARK       I    between atoms: N1_5  and  C3_7
REMARK       I    between atoms: C3_7  and  N3_11
REMARK    2  A    between atoms: N4_13  and  N5_15
ROOT
HETATM    1  C1  UNL     1      28.192  37.932  47.164  1.00  0.00     0.098 C
HETATM    2  C2  UNL     1      27.156  38.385  46.207  1.00  0.00     0.127 C
HETATM    3  N1  UNL     1      25.975  38.577  46.671  1.00  0.00    -0.174 N
ATOM      4  H1  UNL     1      25.819  38.408  47.665  1.00  0.00     0.186 HD
HETATM    5  C3  UNL     1      24.871  39.009  45.891  1.00  0.00     0.693 C
HETATM    6  N2  UNL     1      24.272  38.164  45.132  1.00  0.00    -0.233 N
ATOM      7  H21 UNL     1      23.479  38.475  44.571  1.00  0.00     0.174 HD
ATOM      8  H22 UNL     1      24.553  37.186  45.062  1.00  0.00     0.174 HD
HETATM    9  N3  UNL     1      24.482  40.360  45.988  1.00  0.00    -0.118 N
ATOM     10  H3  UNL     1      25.083  40.982  46.529  1.00  0.00     0.207 HD
HETATM   11  N4  UNL     1      23.454  40.861  45.462  1.00  0.00    -0.235 N
ATOM     12  H4  UNL     1      23.257  41.854  45.591  1.00  0.00     0.208 HD
ENDROOT
BRANCH   2  13
HETATM   13  O1  UNL     1      27.394  38.609  44.865  1.00  0.00    -0.349 OA
ATOM     14  H1  UNL     1      26.815  38.320  44.170  1.00  0.00     0.219 HD
ENDBRANCH   2  13
BRANCH  11  15
HETATM   15  N5  UNL     1      22.587  40.085  44.712  1.00  0.00    -0.330 N
ATOM     16  H52 UNL     1      22.174  39.260  45.146  1.00  0.00     0.178 HD
ATOM     17  H51 UNL     1      22.364  40.330  43.747  1.00  0.00     0.178 HD
ENDBRANCH  11  15
TORSDOF 2
ENDMDL