MODEL 4
REMARK VINA RESULT: -4.475595220      1.799      2.017
REMARK  3 active torsions:
REMARK  status: ('A' for Active; 'I' for Inactive)
REMARK    1  A    between atoms: C1_2  and  C2_3
REMARK    2  A    between atoms: C3_4  and  C4_5
REMARK    3  A    between atoms: N2_9  and  O2_11
ROOT
HETATM    1  C4  UNL     1      25.211  39.029  45.662  1.00  0.00     0.016 C
HETATM    2  C5  UNL     1      24.148  39.482  45.298  1.00  0.00     0.066 C
HETATM    3  O1  UNL     1      22.946  39.998  44.873  1.00  0.00    -0.313 OA
ATOM      4  H1  UNL     1      22.112  40.353  44.587  1.00  0.00     0.230 HD
ENDROOT
BRANCH   1   5
HETATM    5  C3  UNL     1      26.471  38.509  46.077  1.00  0.00    -0.005 C
HETATM    6  C2  UNL     1      27.549  38.087  46.429  1.00  0.00    -0.018 C
BRANCH   6   7
HETATM    7  C1  UNL     1      28.842  37.594  46.826  1.00  0.00     0.191 C
HETATM    8  N1  UNL     1      29.102  36.212  46.815  1.00  0.00    -0.071 NA
HETATM    9  N2  UNL     1      29.787  38.391  47.199  1.00  0.00    -0.248 N
ATOM     10  H2  UNL     1      30.691  38.006  47.474  1.00  0.00     0.196 HD
BRANCH   9  11
HETATM   11  O2  UNL     1      29.591  39.754  47.230  1.00  0.00    -0.288 OA
ATOM     12  H2  UNL     1      29.877  40.271  47.973  1.00  0.00     0.244 HD
ENDBRANCH   9  11
ENDBRANCH   6   7
ENDBRANCH   1   5
TORSDOF 3
ENDMDL