MODEL 4
REMARK VINA RESULT: -3.626562888      1.567      2.178
REMARK  2 active torsions:
REMARK  status: ('A' for Active; 'I' for Inactive)
REMARK    1  A    between atoms: N1_1  and  N2_4
REMARK    2  A    between atoms: N3_6  and  O1_7
ROOT
HETATM    1  N2  UNL     1      27.988  38.992  46.260  1.00  0.00    -0.251 N
HETATM    2  C1  UNL     1      27.743  38.040  45.399  1.00  0.00     0.240 A
HETATM    3  N3  UNL     1      28.324  36.747  45.513  1.00  0.00    -0.214 N
HETATM    4  C2  UNL     1      29.125  36.477  46.490  1.00  0.00     0.215 A
HETATM    5  N4  UNL     1      29.408  37.507  47.448  1.00  0.00    -0.345 N
ATOM      6  H4  UNL     1      30.037  37.312  48.227  1.00  0.00     0.167 HD
HETATM    7  C3  UNL     1      28.871  38.688  47.334  1.00  0.00     0.208 A
ENDROOT
BRANCH   1   8
HETATM    8  N1  UNL     1      27.414  40.254  46.140  1.00  0.00    -0.337 N
ATOM      9  H12 UNL     1      27.108  40.771  46.964  1.00  0.00     0.177 HD
ATOM     10  H11 UNL     1      27.281  40.699  45.232  1.00  0.00     0.177 HD
ENDBRANCH   1   8
BRANCH   3  11
HETATM   11  O1  UNL     1      28.065  35.746  44.604  1.00  0.00    -0.281 OA
ATOM     12  H1  UNL     1      28.683  35.044  44.436  1.00  0.00     0.245 HD
ENDBRANCH   3  11
TORSDOF 2
ENDMDL