MODEL 2
REMARK VINA RESULT: -4.272981851      2.529      4.236
REMARK  1 active torsions:
REMARK  status: ('A' for Active; 'I' for Inactive)
REMARK       I    between atoms: C2_5  and  N4_7
REMARK    1  A    between atoms: C3_9  and  O1_10
ROOT
HETATM    1  N1  UNL     1      27.760  37.557  44.865  1.00  0.00    -0.172 NA
HETATM    2  C1  UNL     1      26.969  38.392  45.050  1.00  0.00     0.184 C
HETATM    3  N2  UNL     1      26.006  39.388  45.251  1.00  0.00    -0.267 N
ATOM      4  H2  UNL     1      26.080  40.266  44.737  1.00  0.00     0.180 HD
HETATM    5  C2  UNL     1      25.014  39.216  46.087  1.00  0.00     0.202 C
HETATM    6  N3  UNL     1      24.943  37.989  46.780  1.00  0.00    -0.062 NA
HETATM    7  N4  UNL     1      24.048  40.216  46.288  1.00  0.00    -0.321 N
ATOM      8  H4  UNL     1      24.084  40.742  47.161  1.00  0.00     0.169 HD
HETATM    9  C3  UNL     1      23.122  40.514  45.446  1.00  0.00     0.225 C
ENDROOT
BRANCH   9  10
HETATM   10  O1  UNL     1      22.976  39.866  44.226  1.00  0.00    -0.356 OA
ATOM     11  H1  UNL     1      22.154  39.485  43.941  1.00  0.00     0.218 HD
ENDBRANCH   9  10
TORSDOF 1
ENDMDL