MODEL 2
REMARK VINA RESULT: -4.519991776      3.016      4.626
REMARK  2 active torsions:
REMARK  status: ('A' for Active; 'I' for Inactive)
REMARK    1  A    between atoms: C2_4  and  N2_5
REMARK       I    between atoms: N2_5  and  C3_7
REMARK    2  A    between atoms: N4_9  and  O1_11
ROOT
HETATM    1  N2  UNL     1      27.777  38.793  45.996  1.00  0.00    -0.326 N
ATOM      2  H2  UNL     1      28.428  39.498  46.339  1.00  0.00     0.169 HD
HETATM    3  C3  UNL     1      28.231  37.446  45.817  1.00  0.00     0.213 C
HETATM    4  N3  UNL     1      28.925  36.786  46.858  1.00  0.00    -0.061 NA
HETATM    5  N4  UNL     1      28.011  36.840  44.724  1.00  0.00    -0.241 N
ATOM      6  H4  UNL     1      27.509  37.326  43.981  1.00  0.00     0.197 HD
ENDROOT
BRANCH   1   7
HETATM    7  C2  UNL     1      26.449  39.162  45.706  1.00  0.00     0.178 C
HETATM    8  N1  UNL     1      25.489  38.364  45.953  1.00  0.00    -0.390 N
HETATM    9  C1  UNL     1      24.102  38.618  45.708  1.00  0.00     0.147 C
ATOM     10  H1  UNL     1      25.730  37.461  46.363  1.00  0.00     0.159 HD
ENDBRANCH   1   7
BRANCH   5  11
HETATM   11  O1  UNL     1      28.424  35.564  44.517  1.00  0.00    -0.287 OA
ATOM     12  H1  UNL     1      28.202  35.087  43.727  1.00  0.00     0.244 HD
ENDBRANCH   5  11
TORSDOF 2
ENDMDL