MODEL 3
REMARK VINA RESULT: -3.797962730      8.105      8.739
REMARK  2 active torsions:
REMARK  status: ('A' for Active; 'I' for Inactive)
REMARK    1  A    between atoms: O1_1  and  N1_3
REMARK    2  A    between atoms: N3_7  and  O2_8
ROOT
HETATM    1  N1  UNL     1      21.927  39.074  40.739  1.00  0.00    -0.211 N
HETATM    2  C1  UNL     1      21.125  40.145  40.928  1.00  0.00     0.233 A
HETATM    3  N2  UNL     1      21.604  41.126  40.154  1.00  0.00    -0.267 N
ATOM      4  H2  UNL     1      21.198  42.060  40.091  1.00  0.00     0.190 HD
HETATM    5  N3  UNL     1      22.671  40.732  39.482  1.00  0.00    -0.156 N
HETATM    6  C2  UNL     1      22.869  39.452  39.849  1.00  0.00     0.267 A
ENDROOT
BRANCH   1   7
HETATM    7  O1  UNL     1      21.842  37.823  41.315  1.00  0.00    -0.281 OA
ATOM      8  H1  UNL     1      21.941  37.584  42.229  1.00  0.00     0.245 HD
ENDBRANCH   1   7
BRANCH   5   9
HETATM    9  O2  UNL     1      23.457  41.404  38.595  1.00  0.00    -0.267 OA
ATOM     10  H2  UNL     1      24.029  41.081  37.908  1.00  0.00     0.247 HD
ENDBRANCH   5   9
TORSDOF 2
ENDMDL