MODEL 2
REMARK VINA RESULT: -6.552926553      1.164      1.231
REMARK  2 active torsions:
REMARK  status: ('A' for Active; 'I' for Inactive)
REMARK    1  A    between atoms: C2_2  and  C3_3
REMARK    2  A    between atoms: C6_6  and  C7_7
ROOT
HETATM    1  C1  UNL     1       4.411  38.235 -17.842  1.00  0.00     0.044 C
HETATM    2  C2  UNL     1       5.896  38.485 -17.526  1.00  0.00     0.063 C
HETATM    3  C8  UNL     1       5.930  39.170 -16.217  1.00  0.00     0.047 C
HETATM    4  C9  UNL     1       6.498  40.556 -16.179  1.00  0.00     0.085 C
HETATM    5  S2  UNL     1       8.129  40.593 -17.036  1.00  0.00    -0.095 SA
HETATM    6  C10 UNL     1       7.741  39.789 -18.597  1.00  0.00     0.134 C
HETATM    7  N1  UNL     1       8.548  39.762 -19.596  1.00  0.00    -0.380 N
ATOM      8  H11 UNL     1       8.329  39.306 -20.481  1.00  0.00     0.158 HD
ATOM      9  H12 UNL     1       9.465  40.208 -19.559  1.00  0.00     0.158 HD
HETATM   10  N2  UNL     1       6.474  39.174 -18.648  1.00  0.00    -0.357 N
ATOM     11  H2  UNL     1       5.945  39.218 -19.519  1.00  0.00     0.162 HD
ENDROOT
BRANCH   2  12
HETATM   12  C3  UNL     1       6.629  37.157 -17.466  1.00  0.00     0.011 A
HETATM   13  C4  UNL     1       6.669  36.175 -18.411  1.00  0.00     0.018 A
HETATM   14  C5  UNL     1       7.383  35.071 -18.135  1.00  0.00     0.021 A
HETATM   15  C6  UNL     1       8.012  35.026 -16.923  1.00  0.00     0.047 A
HETATM   16  S1  UNL     1       7.591  36.517 -16.213  1.00  0.00    -0.091 SA
BRANCH  15  17
HETATM   17  C7  UNL     1       8.857  33.934 -16.361  1.00  0.00     0.393 C
HETATM   18  F1  UNL     1      10.111  33.937 -16.927  1.00  0.00    -0.208 F
HETATM   19  F2  UNL     1       8.999  34.037 -15.000  1.00  0.00    -0.208 F
ENDBRANCH  15  17
ENDBRANCH   2  12
TORSDOF 2
ENDMDL