MODEL 5
REMARK VINA RESULT: -6.377238374      3.654      4.618
REMARK  3 active torsions:
REMARK  status: ('A' for Active; 'I' for Inactive)
REMARK    1  A    between atoms: C3_3  and  C4_4
REMARK    2  A    between atoms: N1_5  and  O1_7
REMARK    3  A    between atoms: C12_17  and  O2_18
ROOT
HETATM    1  C1  UNL     1       7.912  36.771 -14.374  1.00  0.00     0.014 C
HETATM    2  C2  UNL     1       7.475  38.136 -13.959  1.00  0.00     0.023 C
HETATM    3  C3  UNL     1       5.976  38.227 -14.101  1.00  0.00     0.054 C
HETATM    4  C5  UNL     1       5.540  39.607 -14.446  1.00  0.00    -0.019 C
HETATM    5  C6  UNL     1       5.211  39.979 -15.675  1.00  0.00    -0.010 C
HETATM    6  C7  UNL     1       5.226  39.106 -16.874  1.00  0.00     0.104 C
HETATM    7 CL1  UNL     1       3.502  38.769 -17.272  1.00  0.00    -0.121 Cl
HETATM    8  C8  UNL     1       5.869  39.885 -18.021  1.00  0.00     0.024 C
HETATM    9  C9  UNL     1       7.319  39.502 -18.195  1.00  0.00     0.002 C
HETATM   10  C10 UNL     1       8.188  39.988 -17.076  1.00  0.00     0.002 C
HETATM   11  C11 UNL     1       8.566  38.871 -16.107  1.00  0.00     0.032 C
HETATM   12  C12 UNL     1       8.207  39.223 -14.699  1.00  0.00     0.122 C
ENDROOT
BRANCH   3  13
HETATM   13  C4  UNL     1       5.359  37.881 -12.804  1.00  0.00     0.095 C
HETATM   14  N1  UNL     1       4.668  38.731 -12.146  1.00  0.00    -0.284 N
ATOM     15  H1  UNL     1       4.548  39.665 -12.537  1.00  0.00     0.192 HD
BRANCH  14  16
HETATM   16  O1  UNL     1       4.079  38.452 -10.940  1.00  0.00    -0.291 OA
ATOM     17  H1  UNL     1       3.336  37.868 -10.844  1.00  0.00     0.244 HD
ENDBRANCH  14  16
ENDBRANCH   3  13
BRANCH  12  18
HETATM   18  O2  UNL     1       9.425  39.431 -14.010  1.00  0.00    -0.395 OA
ATOM     19  H2  UNL     1       9.581  38.651 -13.492  1.00  0.00     0.210 HD
ENDBRANCH  12  18
TORSDOF 3
ENDMDL