MODEL 5
REMARK VINA RESULT: -5.688770727      4.538      5.970
REMARK  4 active torsions:
REMARK  status: ('A' for Active; 'I' for Inactive)
REMARK    1  A    between atoms: O1_2  and  C2_3
REMARK    2  A    between atoms: C3_6  and  N2_7
REMARK    3  A    between atoms: C4_11  and  C5_12
REMARK    4  A    between atoms: C6_13  and  C7_14
ROOT
HETATM    1  C2  UNL     1      11.336  38.740 -19.974  1.00  0.00     0.170 A
HETATM    2  N1  UNL     1      12.377  38.797 -20.756  1.00  0.00    -0.316 N
ATOM      3  H1  UNL     1      12.655  37.989 -21.314  1.00  0.00     0.170 HD
HETATM    4  C3  UNL     1      13.071  39.932 -20.811  1.00  0.00     0.145 A
HETATM    5  S1  UNL     1      12.233  40.949 -19.730  1.00  0.00    -0.041 SA
HETATM    6  C4  UNL     1      11.012  39.851 -19.251  1.00  0.00     0.113 A
ENDROOT
BRANCH   6   7
HETATM    7  C5  UNL     1       9.908  40.035 -18.318  1.00  0.00    -0.050 C
HETATM    8  C6  UNL     1       8.987  40.167 -17.551  1.00  0.00    -0.063 C
BRANCH   8   9
HETATM    9  C7  UNL     1       7.889  40.300 -16.632  1.00  0.00     0.025 C
HETATM   10  C8  UNL     1       8.134  40.710 -15.236  1.00  0.00     0.061 C
HETATM   11  C9  UNL     1       6.643  40.058 -17.019  1.00  0.00     0.117 C
HETATM   12 CL1  UNL     1       6.353  39.574 -18.670  1.00  0.00    -0.070 Cl
HETATM   13 CL2  UNL     1       5.309  40.214 -15.923  1.00  0.00    -0.070 Cl
ENDBRANCH   8   9
ENDBRANCH   6   7
BRANCH   1  14
HETATM   14  O1  UNL     1      10.540  37.573 -19.853  1.00  0.00    -0.339 OA
HETATM   15  C1  UNL     1      11.018  36.318 -20.278  1.00  0.00     0.211 C
ENDBRANCH   1  14
BRANCH   4  16
HETATM   16  N2  UNL     1      14.134  40.233 -21.507  1.00  0.00    -0.380 N
ATOM     17  H22 UNL     1      14.161  40.671 -22.427  1.00  0.00     0.158 HD
ATOM     18  H21 UNL     1      15.121  40.098 -21.286  1.00  0.00     0.158 HD
ENDBRANCH   4  16
TORSDOF 4
ENDMDL