MODEL 4
REMARK VINA RESULT: -5.837763531      4.149      7.226
REMARK  3 active torsions:
REMARK  status: ('A' for Active; 'I' for Inactive)
REMARK    1  A    between atoms: C4_4  and  C5_5
REMARK    2  A    between atoms: C6_8  and  N2_9
REMARK    3  A    between atoms: C7_13  and  C8_14
ROOT
HETATM    1  C5  UNL     1       8.118  38.823 -17.863  1.00  0.00     0.055 A
HETATM    2  N1  UNL     1       8.971  39.459 -18.636  1.00  0.00    -0.336 N
ATOM      3  H1  UNL     1       9.005  40.478 -18.632  1.00  0.00     0.168 HD
HETATM    4  C6  UNL     1       9.788  38.767 -19.421  1.00  0.00     0.143 A
HETATM    5  S1  UNL     1       9.362  37.152 -19.080  1.00  0.00    -0.051 SA
HETATM    6  C7  UNL     1       8.151  37.447 -17.934  1.00  0.00     0.077 A
ENDROOT
BRANCH   1   7
HETATM    7  C4  UNL     1       7.020  39.462 -17.029  1.00  0.00    -0.050 C
HETATM    8  C3  UNL     1       5.858  39.957 -17.810  1.00  0.00     0.051 C
HETATM    9  C2  UNL     1       4.552  39.952 -17.095  1.00  0.00     0.047 C
HETATM   10  C1  UNL     1       3.795  38.647 -17.274  1.00  0.00     0.021 C
HETATM   11  S2  UNL     1       4.748  40.410 -15.393  1.00  0.00    -0.164 SA
HETATM   12  C10 UNL     1       6.298  39.756 -14.736  1.00  0.00     0.078 C
HETATM   13  C9  UNL     1       7.425  40.076 -15.764  1.00  0.00     0.046 C
ENDBRANCH   1   7
BRANCH   6  14
HETATM   14  C8  UNL     1       7.424  36.403 -17.183  1.00  0.00     0.395 C
HETATM   15  F1  UNL     1       7.282  36.758 -15.881  1.00  0.00    -0.208 F
HETATM   16  F2  UNL     1       6.107  36.381 -17.718  1.00  0.00    -0.208 F
ENDBRANCH   6  14
BRANCH   4  17
HETATM   17  N2  UNL     1      10.698  39.236 -20.259  1.00  0.00    -0.380 N
ATOM     18  H22 UNL     1      10.580  39.605 -21.203  1.00  0.00     0.158 HD
ATOM     19  H21 UNL     1      11.703  39.319 -20.108  1.00  0.00     0.158 HD
ENDBRANCH   4  17
TORSDOF 3
ENDMDL