MODEL 3
REMARK VINA RESULT: -7.240799666      3.870      6.188
REMARK  3 active torsions:
REMARK  status: ('A' for Active; 'I' for Inactive)
REMARK    1  A    between atoms: C2_2  and  C3_5
REMARK    2  A    between atoms: C3_5  and  N1_6
REMARK    3  A    between atoms: C8_13  and  N2_14
ROOT
HETATM    1  N1  UNL     1       5.432  40.737 -15.764  1.00  0.00    -0.390 N
ATOM      2  H1  UNL     1       5.701  41.710 -15.899  1.00  0.00     0.159 HD
HETATM    3  C4  UNL     1       6.352  39.907 -15.479  1.00  0.00    -0.003 C
HETATM    4  C5  UNL     1       6.540  38.457 -15.192  1.00  0.00     0.037 C
HETATM    5  C6  UNL     1       6.993  37.687 -16.391  1.00  0.00     0.058 C
HETATM    6  C7  UNL     1       8.016  38.523 -17.124  1.00  0.00     0.010 A
HETATM    7  S1  UNL     1       8.903  38.413 -18.580  1.00  0.00    -0.057 SA
HETATM    8  C8  UNL     1       9.770  39.876 -18.457  1.00  0.00     0.142 A
HETATM    9  N3  UNL     1       9.339  40.384 -17.299  1.00  0.00    -0.339 N
ATOM     10  H3  UNL     1       9.693  41.277 -16.957  1.00  0.00     0.168 HD
HETATM   11  C9  UNL     1       8.456  39.714 -16.618  1.00  0.00     0.034 A
HETATM   12  C10 UNL     1       7.816  40.074 -15.292  1.00  0.00     0.083 C
HETATM   13  C11 UNL     1       7.806  38.851 -14.417  1.00  0.00     0.027 C
ENDROOT
BRANCH   1  14
HETATM   14  C3  UNL     1       4.062  40.413 -15.909  1.00  0.00     0.197 C
BRANCH  14  15
HETATM   15  C2  UNL     1       3.805  39.841 -17.307  1.00  0.00     0.255 C
HETATM   16  C1  UNL     1       2.619  40.548 -17.933  1.00  0.00     0.091 C
HETATM   17  F1  UNL     1       3.618  38.490 -17.257  1.00  0.00    -0.205 F
HETATM   18  F2  UNL     1       4.916  40.092 -18.098  1.00  0.00    -0.205 F
ENDBRANCH  14  15
ENDBRANCH   1  14
BRANCH   8  19
HETATM   19  N2  UNL     1      10.653  40.400 -19.284  1.00  0.00    -0.380 N
ATOM     20  H22 UNL     1      10.801  40.164 -20.265  1.00  0.00     0.158 HD
ATOM     21  H21 UNL     1      11.347  41.127 -19.115  1.00  0.00     0.158 HD
ENDBRANCH   8  19
TORSDOF 3
ENDMDL