MODEL 2
REMARK VINA RESULT: -7.686292727      1.089      1.124
REMARK  2 active torsions:
REMARK  status: ('A' for Active; 'I' for Inactive)
REMARK    1  A    between atoms: N1_4  and  O1_6
REMARK    2  A    between atoms: C7_15  and  C8_16
ROOT
HETATM    1  C1  UNL     1       7.961  41.215 -18.616  1.00  0.00     0.018 C
HETATM    2  C2  UNL     1       8.507  40.419 -17.465  1.00  0.00     0.067 C
HETATM    3  C3  UNL     1       7.378  40.004 -16.600  1.00  0.00     0.049 C
HETATM    4  N1  UNL     1       7.108  40.854 -15.689  1.00  0.00    -0.274 N
ATOM      5  H1  UNL     1       7.653  41.713 -15.617  1.00  0.00     0.193 HD
HETATM    6  C4  UNL     1       6.497  38.817 -16.569  1.00  0.00     0.219 C
HETATM    7  F1  UNL     1       5.164  39.253 -16.537  1.00  0.00    -0.243 F
HETATM    8  C5  UNL     1       6.602  37.959 -17.803  1.00  0.00     0.071 C
HETATM    9  C6  UNL     1       7.982  37.399 -17.932  1.00  0.00     0.236 C
HETATM   10  N2  UNL     1       8.715  38.339 -18.771  1.00  0.00    -0.066 N
ATOM     11  H21 UNL     1       8.126  38.793 -19.469  1.00  0.00     0.278 HD
ATOM     12  H22 UNL     1       9.357  37.880 -19.418  1.00  0.00     0.278 HD
HETATM   13  C7  UNL     1       9.366  39.266 -17.900  1.00  0.00     0.228 C
ENDROOT
BRANCH  13  14
HETATM   14  C8  UNL     1      10.621  39.701 -18.565  1.00  0.00    -0.027 A
HETATM   15  C9  UNL     1      10.854  39.451 -19.923  1.00  0.00     0.012 A
HETATM   16  C10 UNL     1      12.020  39.857 -20.538  1.00  0.00     0.043 A
HETATM   17  C11 UNL     1      12.974  40.521 -19.798  1.00  0.00     0.116 A
HETATM   18  F2  UNL     1      14.134  40.923 -20.420  1.00  0.00    -0.206 F
HETATM   19  C12 UNL     1      12.774  40.780 -18.467  1.00  0.00     0.043 A
HETATM   20  C13 UNL     1      11.609  40.369 -17.878  1.00  0.00     0.012 A
ENDBRANCH  13  14
BRANCH   4  21
HETATM   21  O1  UNL     1       6.092  40.620 -14.810  1.00  0.00    -0.290 OA
ATOM     22  H1  UNL     1       5.369  40.054 -15.054  1.00  0.00     0.244 HD
ENDBRANCH   4  21
TORSDOF 2
ENDMDL