MODEL 3
REMARK VINA RESULT: -7.610662932      2.164      3.562
REMARK  2 active torsions:
REMARK  status: ('A' for Active; 'I' for Inactive)
REMARK    1  A    between atoms: C2_2  and  C3_3
REMARK    2  A    between atoms: N1_10  and  O1_11
ROOT
HETATM    1  C3  UNL     1       5.393  39.174 -16.992  1.00  0.00     0.097 C
HETATM    2  C4  UNL     1       6.123  37.990 -17.502  1.00  0.00    -0.019 A
HETATM    3  C5  UNL     1       5.503  37.013 -18.214  1.00  0.00     0.010 A
HETATM    4  C6  UNL     1       6.259  35.945 -18.671  1.00  0.00     0.001 A
HETATM    5  C7  UNL     1       7.615  35.852 -18.423  1.00  0.00     0.002 A
HETATM    6  C8  UNL     1       8.244  36.844 -17.699  1.00  0.00     0.032 A
HETATM    7  C9  UNL     1       7.471  37.910 -17.246  1.00  0.00     0.066 A
HETATM    8  N1  UNL     1       8.082  38.938 -16.499  1.00  0.00    -0.231 N
HETATM    9  C10 UNL     1       7.347  39.552 -15.413  1.00  0.00     0.209 C
HETATM   10  C11 UNL     1       8.031  40.879 -15.137  1.00  0.00     0.064 C
HETATM   11  C12 UNL     1       7.510  38.700 -14.206  1.00  0.00     0.099 C
HETATM   12  N2  UNL     1       7.639  38.026 -13.286  1.00  0.00    -0.194 NA
HETATM   13  C13 UNL     1       5.907  39.682 -15.701  1.00  0.00     0.291 C
HETATM   14  F1  UNL     1       5.189  39.057 -14.669  1.00  0.00    -0.202 F
HETATM   15  F2  UNL     1       5.541  41.038 -15.577  1.00  0.00    -0.202 F
ENDROOT
BRANCH   8  16
HETATM   16  O1  UNL     1       9.351  39.313 -16.819  1.00  0.00    -0.285 OA
ATOM     17  H1  UNL     1       9.575  40.236 -16.787  1.00  0.00     0.245 HD
ENDBRANCH   8  16
BRANCH   1  18
HETATM   18  C2  UNL     1       3.917  38.957 -16.940  1.00  0.00     0.011 C
HETATM   19  C1  UNL     1       3.127  39.978 -17.714  1.00  0.00     0.006 C
ENDBRANCH   1  18
TORSDOF 2
ENDMDL