MODEL 3
REMARK VINA RESULT: -6.694496905      1.275      1.857
REMARK  3 active torsions:
REMARK  status: ('A' for Active; 'I' for Inactive)
REMARK    1  A    between atoms: C2_2  and  N1_4
REMARK    2  A    between atoms: C2_2  and  C8_15
REMARK       I    between atoms: N1_4  and  C4_6
REMARK    3  A    between atoms: C4_6  and  C5_8
ROOT
HETATM    1  N1  UNL     1      10.735  39.766 -20.114  1.00  0.00    -0.339 N
ATOM      2  H1  UNL     1      10.054  39.705 -20.870  1.00  0.00     0.163 HD
HETATM    3  C4  UNL     1      10.205  39.742 -18.825  1.00  0.00     0.260 C
HETATM    4  O1  UNL     1      10.934  39.814 -17.826  1.00  0.00    -0.267 OA
ENDROOT
BRANCH   1   5
HETATM    5  C2  UNL     1      12.100  39.865 -20.523  1.00  0.00     0.123 C
HETATM    6  C1  UNL     1      12.134  39.778 -22.054  1.00  0.00     0.047 C
HETATM    7  C3  UNL     1      12.630  41.204 -20.077  1.00  0.00     0.047 C
BRANCH   5   8
HETATM    8  C8  UNL     1      13.024  38.794 -20.035  1.00  0.00     0.411 C
HETATM    9  F1  UNL     1      12.491  37.539 -20.031  1.00  0.00    -0.168 F
HETATM   10  F2  UNL     1      13.676  39.068 -18.873  1.00  0.00    -0.168 F
HETATM   11  F3  UNL     1      14.040  38.739 -21.018  1.00  0.00    -0.168 F
ENDBRANCH   5   8
ENDBRANCH   1   5
BRANCH   3  12
HETATM   12  C5  UNL     1       8.772  39.631 -18.598  1.00  0.00     0.090 A
HETATM   13  C6  UNL     1       7.783  40.519 -18.940  1.00  0.00     0.114 A
HETATM   14  N2  UNL     1       6.556  40.214 -18.637  1.00  0.00    -0.350 N
HETATM   15  C7  UNL     1       6.304  39.068 -18.014  1.00  0.00     0.143 A
ATOM     16  H2  UNL     1       5.793  40.848 -18.876  1.00  0.00     0.166 HD
HETATM   17  S1  UNL     1       4.834  38.470 -17.530  1.00  0.00    -0.052 SA
HETATM   18  S2  UNL     1       7.860  38.385 -17.845  1.00  0.00    -0.054 SA
ENDBRANCH   3  12
TORSDOF 3
ENDMDL