MODEL 1
REMARK VINA RESULT: -7.907947098      0.000      0.000
REMARK  3 active torsions:
REMARK  status: ('A' for Active; 'I' for Inactive)
REMARK    1  A    between atoms: N3_9  and  N4_11
REMARK    2  A    between atoms: N4_11  and  C6_12
REMARK    3  A    between atoms: C11_17  and  C12_18
ROOT
HETATM    1  N1  UNL     1       9.387  37.654 -18.912  1.00  0.00    -0.098 NA
HETATM    2  C1  UNL     1       8.326  38.374 -18.309  1.00  0.00     0.092 A
HETATM    3  C2  UNL     1       7.249  37.662 -17.785  1.00  0.00     0.032 A
HETATM    4  C3  UNL     1       6.223  38.372 -17.201  1.00  0.00     0.019 A
HETATM    5  C4  UNL     1       6.263  39.747 -17.137  1.00  0.00     0.090 A
HETATM    6  N2  UNL     1       7.314  40.389 -17.652  1.00  0.00    -0.349 N
ATOM      7  H2  UNL     1       7.337  41.406 -17.601  1.00  0.00     0.167 HD
HETATM    8  C5  UNL     1       8.363  39.740 -18.244  1.00  0.00     0.155 A
HETATM    9  N3  UNL     1       9.333  40.397 -18.715  1.00  0.00    -0.217 N
ATOM     10  H3  UNL     1       9.170  41.393 -18.567  1.00  0.00     0.203 HD
ENDROOT
BRANCH   9  11
HETATM   11  N4  UNL     1      10.433  40.237 -19.306  1.00  0.00    -0.333 NA
BRANCH  11  12
HETATM   12  C6  UNL     1      11.492  40.138 -19.877  1.00  0.00     0.096 C
HETATM   13  C7  UNL     1      11.632  39.113 -20.988  1.00  0.00     0.071 C
HETATM   14  C8  UNL     1      12.291  39.882 -22.131  1.00  0.00     0.007 C
HETATM   15  C9  UNL     1      13.712  40.096 -21.654  1.00  0.00     0.001 C
HETATM   16  C10 UNL     1      13.794  40.979 -20.464  1.00  0.00     0.017 C
HETATM   17  C11 UNL     1      12.655  40.999 -19.531  1.00  0.00     0.113 C
BRANCH  17  18
HETATM   18  C12 UNL     1      13.074  40.698 -18.108  1.00  0.00     0.363 C
HETATM   19  F1  UNL     1      13.414  39.372 -18.003  1.00  0.00    -0.214 F
HETATM   20  F2  UNL     1      14.133  41.472 -17.690  1.00  0.00    -0.214 F
ENDBRANCH  17  18
ENDBRANCH  11  12
ENDBRANCH   9  11
TORSDOF 3
ENDMDL