MODEL 2
REMARK VINA RESULT: -6.571124781      0.969      1.253
REMARK  4 active torsions:
REMARK  status: ('A' for Active; 'I' for Inactive)
REMARK    1  A    between atoms: C2_2  and  C5_5
REMARK    2  A    between atoms: C5_5  and  C6_7
REMARK    3  A    between atoms: C7_9  and  N1_10
REMARK    4  A    between atoms: C8_15  and  C9_16
ROOT
HETATM    1  C6  UNL     1       6.901  39.274 -17.564  1.00  0.00     0.083 A
HETATM    2  S1  UNL     1       7.983  40.418 -18.294  1.00  0.00    -0.049 SA
HETATM    3  C7  UNL     1       9.064  39.326 -19.001  1.00  0.00     0.143 A
HETATM    4  N2  UNL     1       8.564  38.140 -18.659  1.00  0.00    -0.334 N
ATOM      5  H2  UNL     1       9.021  37.277 -18.955  1.00  0.00     0.168 HD
HETATM    6  C8  UNL     1       7.460  38.107 -17.925  1.00  0.00     0.104 A
ENDROOT
BRANCH   1   7
HETATM    7  C5  UNL     1       5.712  39.629 -16.757  1.00  0.00     0.176 C
HETATM    8  O1  UNL     1       4.572  39.757 -17.214  1.00  0.00    -0.291 OA
BRANCH   7   9
HETATM    9  C2  UNL     1       5.863  39.850 -15.314  1.00  0.00     0.015 C
HETATM   10  C1  UNL     1       7.230  40.293 -14.890  1.00  0.00     0.023 C
HETATM   11  C3  UNL     1       5.530  38.546 -14.601  1.00  0.00     0.023 C
HETATM   12  C4  UNL     1       4.888  40.912 -14.866  1.00  0.00     0.023 C
ENDBRANCH   7   9
ENDBRANCH   1   7
BRANCH   6  13
HETATM   13  C9  UNL     1       6.850  36.756 -17.565  1.00  0.00     0.283 C
HETATM   14  C10 UNL     1       7.474  35.617 -18.280  1.00  0.00     0.097 C
HETATM   15  F1  UNL     1       5.462  36.829 -17.791  1.00  0.00    -0.200 F
HETATM   16  F2  UNL     1       6.926  36.495 -16.217  1.00  0.00    -0.200 F
ENDBRANCH   6  13
BRANCH   3  17
HETATM   17  N1  UNL     1      10.142  39.574 -19.718  1.00  0.00    -0.380 N
ATOM     18  H12 UNL     1      10.306  39.351 -20.699  1.00  0.00     0.158 HD
ATOM     19  H11 UNL     1      11.010  40.030 -19.435  1.00  0.00     0.158 HD
ENDBRANCH   3  17
TORSDOF 4
ENDMDL