MODEL 4
REMARK VINA RESULT: -4.835289186      1.607      5.194
REMARK  5 active torsions:
REMARK  status: ('A' for Active; 'I' for Inactive)
REMARK    1  A    between atoms: N1_1  and  C1_4
REMARK    2  A    between atoms: C2_7  and  N3_8
REMARK    3  A    between atoms: N3_8  and  C3_10
REMARK    4  A    between atoms: C3_10  and  C4_11
REMARK    5  A    between atoms: C4_11  and  N4_12
ROOT
HETATM    1  C1  UNL     1      28.918  71.523  10.361  1.00  0.00     0.692 A
HETATM    2  N2  UNL     1      28.749  72.473  11.294  1.00  0.00    -0.175 N
ATOM      3  H2  UNL     1      28.124  73.259  11.109  1.00  0.00     0.186 HD
HETATM    4  C2  UNL     1      29.407  72.395  12.489  1.00  0.00     0.134 A
HETATM    5  C5  UNL     1      30.249  71.343  12.746  1.00  0.00     0.156 A
HETATM    6  N5  UNL     1      30.398  70.398  11.781  1.00  0.00    -0.294 N
ATOM      7  H5  UNL     1      31.016  69.604  11.943  1.00  0.00     0.186 HD
HETATM    8  N6  UNL     1      29.747  70.500  10.632  1.00  0.00    -0.133 N
ATOM      9  H6  UNL     1      29.879  69.776   9.926  1.00  0.00     0.205 HD
ENDROOT
BRANCH   4  10
HETATM   10  N3  UNL     1      29.210  73.430  13.426  1.00  0.00    -0.373 N
ATOM     11  H3  UNL     1      28.273  73.828  13.477  1.00  0.00     0.161 HD
BRANCH  10  12
HETATM   12  C3  UNL     1      30.183  73.974  14.308  1.00  0.00     0.148 C
BRANCH  12  13
HETATM   13  C4  UNL     1      29.859  75.300  14.911  1.00  0.00     0.249 C
BRANCH  13  14
HETATM   14  N4  UNL     1      28.402  75.474  14.842  1.00  0.00    -0.078 N
ATOM     15  H43 UNL     1      27.913  75.039  15.624  1.00  0.00     0.274 HD
ATOM     16  H42 UNL     1      28.107  76.435  15.017  1.00  0.00     0.274 HD
ATOM     17  H41 UNL     1      28.093  75.123  13.935  1.00  0.00     0.274 HD
ENDBRANCH  13  14
ENDBRANCH  12  13
ENDBRANCH  10  12
ENDBRANCH   4  10
BRANCH   1  18
HETATM   18  N1  UNL     1      28.310  71.557   9.204  1.00  0.00    -0.233 N
ATOM     19  H12 UNL     1      27.343  71.238   9.146  1.00  0.00     0.174 HD
ATOM     20  H11 UNL     1      28.765  71.890   8.355  1.00  0.00     0.174 HD
ENDBRANCH   1  18
TORSDOF 5
ENDMDL