MODEL 2
REMARK VINA RESULT: -4.542729226      1.511      2.203
REMARK  5 active torsions:
REMARK  status: ('A' for Active; 'I' for Inactive)
REMARK    1  A    between atoms: N1_1  and  C1_5
REMARK    2  A    between atoms: C1_5  and  N2_6
REMARK    3  A    between atoms: C1_5  and  C2_10
REMARK    4  A    between atoms: C2_10  and  N3_11
REMARK    5  A    between atoms: C2_10  and  C3_15
ROOT
HETATM    1  C2  UNL     1      29.163  73.365  12.946  1.00  0.00     0.272 C
ENDROOT
BRANCH   1   2
HETATM    2  C1  UNL     1      29.588  74.055  14.206  1.00  0.00     0.410 C
BRANCH   2   3
HETATM    3  N1  UNL     1      28.703  73.714  15.301  1.00  0.00    -0.048 N
ATOM      4  H13 UNL     1      27.739  74.010  15.146  1.00  0.00     0.276 HD
ATOM      5  H12 UNL     1      28.519  72.714  15.373  1.00  0.00     0.276 HD
ATOM      6  H11 UNL     1      29.114  74.109  16.147  1.00  0.00     0.276 HD
ENDBRANCH   2   3
BRANCH   2   7
HETATM    7  N2  UNL     1      29.495  75.492  14.024  1.00  0.00    -0.048 N
ATOM      8  H23 UNL     1      28.884  75.761  13.253  1.00  0.00     0.276 HD
ATOM      9  H22 UNL     1      28.976  75.959  14.768  1.00  0.00     0.276 HD
ATOM     10  H21 UNL     1      30.448  75.838  13.921  1.00  0.00     0.276 HD
ENDBRANCH   2   7
ENDBRANCH   1   2
BRANCH   1  11
HETATM   11  N3  UNL     1      29.154  74.282  11.807  1.00  0.00    -0.069 N
ATOM     12  H33 UNL     1      28.233  74.324  11.370  1.00  0.00     0.274 HD
ATOM     13  H32 UNL     1      29.229  75.253  12.109  1.00  0.00     0.274 HD
ATOM     14  H31 UNL     1      29.878  74.045  11.128  1.00  0.00     0.274 HD
ENDBRANCH   1  11
BRANCH   1  15
HETATM   15  C3  UNL     1      30.018  72.206  12.542  1.00  0.00     0.230 C
HETATM   16  C4  UNL     1      30.445  71.312  13.684  1.00  0.00     0.110 C
HETATM   17  S1  UNL     1      30.773  69.759  12.743  1.00  0.00    -0.140 SA
HETATM   18  C5  UNL     1      30.130  70.355  11.126  1.00  0.00     0.306 C
HETATM   19  N4  UNL     1      29.209  71.380  11.649  1.00  0.00    -0.060 N
ATOM     20  H42 UNL     1      28.373  70.996  12.090  1.00  0.00     0.278 HD
ATOM     21  H41 UNL     1      28.727  71.911  10.923  1.00  0.00     0.278 HD
ENDBRANCH   1  15
TORSDOF 5
ENDMDL