MODEL 4
REMARK VINA RESULT: -4.470962395      2.429      4.084
REMARK  5 active torsions:
REMARK  status: ('A' for Active; 'I' for Inactive)
REMARK    1  A    between atoms: N1_1  and  C1_4
REMARK    2  A    between atoms: C2_10  and  S1_11
REMARK    3  A    between atoms: S1_11  and  C3_12
REMARK    4  A    between atoms: C3_12  and  C4_13
REMARK    5  A    between atoms: C4_13  and  N4_14
ROOT
HETATM    1  C1  UNL     1      29.600  73.615  15.402  1.00  0.00     0.157 A
HETATM    2  N2  UNL     1      29.911  74.835  15.864  1.00  0.00    -0.223 N
ATOM      3  H2  UNL     1      29.427  75.348  16.601  1.00  0.00     0.198 HD
HETATM    4  O1  UNL     1      30.953  75.241  15.191  1.00  0.00    -0.154 OA
HETATM    5  N3  UNL     1      31.320  74.362  14.336  1.00  0.00    -0.231 N
ATOM      6  H3  UNL     1      32.110  74.465  13.700  1.00  0.00     0.197 HD
HETATM    7  C2  UNL     1      30.524  73.295  14.395  1.00  0.00     0.138 A
ENDROOT
BRANCH   7   8
HETATM    8  S1  UNL     1      30.462  71.786  13.507  1.00  0.00    -0.105 SA
BRANCH   8   9
HETATM    9  C3  UNL     1      29.598  71.817  11.959  1.00  0.00     0.108 C
BRANCH   9  10
HETATM   10  C4  UNL     1      28.595  72.933  11.934  1.00  0.00     0.240 C
BRANCH  10  11
HETATM   11  N4  UNL     1      29.109  74.213  11.534  1.00  0.00    -0.079 N
ATOM     12  H43 UNL     1      28.843  74.925  12.214  1.00  0.00     0.274 HD
ATOM     13  H42 UNL     1      30.123  74.233  11.642  1.00  0.00     0.274 HD
ATOM     14  H41 UNL     1      28.852  74.512  10.593  1.00  0.00     0.274 HD
ENDBRANCH  10  11
ENDBRANCH   9  10
ENDBRANCH   8   9
ENDBRANCH   7   8
BRANCH   1  15
HETATM   15  N1  UNL     1      28.623  72.895  15.832  1.00  0.00    -0.382 N
ATOM     16  H12 UNL     1      27.633  73.137  15.852  1.00  0.00     0.157 HD
ATOM     17  H11 UNL     1      28.718  71.957  16.219  1.00  0.00     0.157 HD
ENDBRANCH   1  15
TORSDOF 5
ENDMDL