MODEL 1
REMARK VINA RESULT: -4.998089241      0.000      0.000
REMARK  5 active torsions:
REMARK  status: ('A' for Active; 'I' for Inactive)
REMARK    1  A    between atoms: C2_2  and  N1_3
REMARK    2  A    between atoms: C2_2  and  C3_7
REMARK    3  A    between atoms: N3_10  and  C4_11
REMARK    4  A    between atoms: C4_11  and  N4_12
REMARK    5  A    between atoms: C5_18  and  N6_19
ROOT
HETATM    1  C3  UNL     1      29.924  72.839  12.997  1.00  0.00     0.102 A
HETATM    2  N2  UNL     1      29.941  71.519  12.696  1.00  0.00    -0.281 N
ATOM      3  H2  UNL     1      30.359  70.795  13.279  1.00  0.00     0.188 HD
HETATM    4  N3  UNL     1      29.345  71.302  11.546  1.00  0.00    -0.206 N
HETATM    5  N5  UNL     1      28.927  72.447  11.087  1.00  0.00    -0.266 N
ATOM      6  H5  UNL     1      28.423  72.566  10.208  1.00  0.00     0.190 HD
HETATM    7  C5  UNL     1      29.241  73.439  11.912  1.00  0.00     0.141 A
ENDROOT
BRANCH   1   8
HETATM    8  C2  UNL     1      30.676  73.470  14.091  1.00  0.00     0.234 C
HETATM    9  C1  UNL     1      30.955  72.592  15.304  1.00  0.00     0.046 C
BRANCH   8  10
HETATM   10  N1  UNL     1      32.053  73.761  13.481  1.00  0.00    -0.070 N
ATOM     11  H13 UNL     1      32.809  73.208  13.886  1.00  0.00     0.275 HD
ATOM     12  H12 UNL     1      32.160  73.422  12.525  1.00  0.00     0.275 HD
ATOM     13  H11 UNL     1      32.181  74.768  13.578  1.00  0.00     0.275 HD
ENDBRANCH   8  10
ENDBRANCH   1   8
BRANCH   7  14
HETATM   14  N6  UNL     1      29.005  74.706  11.891  1.00  0.00    -0.383 N
ATOM     15  H62 UNL     1      29.157  75.452  12.569  1.00  0.00     0.157 HD
ATOM     16  H61 UNL     1      28.619  75.157  11.061  1.00  0.00     0.157 HD
ENDBRANCH   7  14
BRANCH   4  17
HETATM   17  C4  UNL     1      29.222  70.036  10.835  1.00  0.00     0.398 C
BRANCH  17  18
HETATM   18  N4  UNL     1      27.884  70.010  10.255  1.00  0.00    -0.060 N
ATOM     19  H43 UNL     1      27.149  69.852  10.945  1.00  0.00     0.276 HD
ATOM     20  H42 UNL     1      27.566  70.925   9.936  1.00  0.00     0.276 HD
ATOM     21  H41 UNL     1      27.899  69.308   9.515  1.00  0.00     0.276 HD
ENDBRANCH  17  18
ENDBRANCH   4  17
TORSDOF 5
ENDMDL