MODEL 3
REMARK VINA RESULT: -5.078067645      0.707      1.081
REMARK  4 active torsions:
REMARK  status: ('A' for Active; 'I' for Inactive)
REMARK    1  A    between atoms: C2_2  and  N1_3
REMARK    2  A    between atoms: N1_3  and  C4_5
REMARK    3  A    between atoms: C4_5  and  C5_6
REMARK    4  A    between atoms: N4_10  and  N5_11
ROOT
HETATM    1  C5  UNL     1      29.431  72.086  12.402  1.00  0.00     0.290 C
HETATM    2  O1  UNL     1      29.500  71.827  11.062  1.00  0.00    -0.243 OA
HETATM    3  N2  UNL     1      28.176  71.870  10.702  1.00  0.00     0.033 NA
HETATM    4  N3  UNL     1      27.491  72.592  11.673  1.00  0.00    -0.005 NA
HETATM    5  N4  UNL     1      28.537  73.212  12.428  1.00  0.00    -0.098 NA
ENDROOT
BRANCH   1   6
HETATM    6  C4  UNL     1      30.596  72.082  13.241  1.00  0.00     0.324 C
BRANCH   6   7
HETATM    7  N1  UNL     1      30.677  72.713  14.492  1.00  0.00     0.087 N
HETATM    8  C3  UNL     1      31.290  71.749  15.430  1.00  0.00     0.310 C
BRANCH   7   9
HETATM    9  C2  UNL     1      31.580  73.861  14.486  1.00  0.00     0.267 C
HETATM   10  C1  UNL     1      32.867  73.572  13.785  1.00  0.00     0.037 C
ENDBRANCH   7   9
ENDBRANCH   6   7
ENDBRANCH   1   6
BRANCH   5  11
HETATM   11  N5  UNL     1      28.920  74.279  11.653  1.00  0.00    -0.345 NA
ATOM     12  H52 UNL     1      29.534  74.820  12.262  1.00  0.00     0.172 HD
ATOM     13  H51 UNL     1      28.215  75.007  11.539  1.00  0.00     0.172 HD
ENDBRANCH   5  11
TORSDOF 4
ENDMDL