MODEL 4
REMARK VINA RESULT: -4.981130625      1.402      1.556
REMARK  4 active torsions:
REMARK  status: ('A' for Active; 'I' for Inactive)
REMARK    1  A    between atoms: C3_3  and  N1_4
REMARK    2  A    between atoms: C3_3  and  N2_8
REMARK    3  A    between atoms: N2_8  and  N3_10
REMARK    4  A    between atoms: C4_12  and  C5_13
ROOT
HETATM    1  C1  UNL     1      30.264  76.096  15.516  1.00  0.00     0.016 C
HETATM    2  C2  UNL     1      29.965  74.977  15.143  1.00  0.00    -0.062 C
HETATM    3  C3  UNL     1      29.627  73.616  14.694  1.00  0.00     0.376 C
ENDROOT
BRANCH   3   4
HETATM    4  N1  UNL     1      28.676  73.016  15.593  1.00  0.00    -0.046 N
ATOM      5  H13 UNL     1      28.846  73.284  16.562  1.00  0.00     0.278 HD
ATOM      6  H12 UNL     1      27.745  73.418  15.486  1.00  0.00     0.278 HD
ATOM      7  H11 UNL     1      28.668  72.002  15.475  1.00  0.00     0.278 HD
ENDBRANCH   3   4
BRANCH   3   8
HETATM    8  N2  UNL     1      29.144  73.674  13.332  1.00  0.00    -0.296 N
ATOM      9  H2  UNL     1      28.765  74.547  12.965  1.00  0.00     0.183 HD
BRANCH   8  10
HETATM   10  N3  UNL     1      29.193  72.557  12.526  1.00  0.00    -0.310 N
HETATM   11  C4  UNL     1      28.430  72.340  11.523  1.00  0.00     0.159 C
ATOM     12  H3  UNL     1      29.892  71.848  12.748  1.00  0.00     0.185 HD
BRANCH  11  13
HETATM   13  C5  UNL     1      28.577  71.117  10.744  1.00  0.00     0.166 A
HETATM   14  N4  UNL     1      29.609  70.375  10.298  1.00  0.00    -0.222 N
HETATM   15  O1  UNL     1      28.812  69.522   9.729  1.00  0.00    -0.153 OA
ATOM     16  H4  UNL     1      30.623  70.452  10.377  1.00  0.00     0.198 HD
HETATM   17  N5  UNL     1      27.795  70.213  10.142  1.00  0.00    -0.222 N
ATOM     18  H5  UNL     1      26.785  70.108  10.046  1.00  0.00     0.198 HD
ENDBRANCH  11  13
ENDBRANCH   8  10
ENDBRANCH   3   8
TORSDOF 4
ENDMDL