MODEL 1
REMARK VINA RESULT: -5.322615221      0.000      0.000
REMARK  5 active torsions:
REMARK  status: ('A' for Active; 'I' for Inactive)
REMARK    1  A    between atoms: N1_1  and  C1_4
REMARK    2  A    between atoms: C2_7  and  N3_8
REMARK    3  A    between atoms: N3_8  and  C3_10
REMARK    4  A    between atoms: C3_10  and  C4_11
REMARK    5  A    between atoms: C4_11  and  N4_12
ROOT
HETATM    1  C1  UNL     1      29.991  75.234  15.310  1.00  0.00     0.691 A
HETATM    2  N2  UNL     1      29.803  75.069  13.988  1.00  0.00    -0.023 N
ATOM      3  H2  UNL     1      29.945  75.873  13.377  1.00  0.00     0.203 HD
HETATM    4  C2  UNL     1      29.436  73.897  13.427  1.00  0.00     0.693 A
HETATM    5  N5  UNL     1      29.260  72.859  14.291  1.00  0.00    -0.187 N
ATOM      6  H5  UNL     1      28.981  71.953  13.914  1.00  0.00     0.185 HD
HETATM    7  C5  UNL     1      29.435  72.973  15.615  1.00  0.00     0.215 A
HETATM    8  N6  UNL     1      29.800  74.164  16.117  1.00  0.00    -0.187 N
ATOM      9  H6  UNL     1      29.937  74.264  17.123  1.00  0.00     0.185 HD
ENDROOT
BRANCH   4  10
HETATM   10  N3  UNL     1      29.241  73.737  12.038  1.00  0.00    -0.224 N
ATOM     11  H3  UNL     1      29.788  74.292  11.379  1.00  0.00     0.177 HD
BRANCH  10  12
HETATM   12  C3  UNL     1      28.274  72.795  11.552  1.00  0.00     0.165 C
BRANCH  12  13
HETATM   13  C4  UNL     1      28.888  71.565  10.944  1.00  0.00     0.249 C
BRANCH  13  14
HETATM   14  N4  UNL     1      28.572  71.582   9.517  1.00  0.00    -0.078 N
ATOM     15  H43 UNL     1      27.583  71.421   9.325  1.00  0.00     0.274 HD
ATOM     16  H42 UNL     1      28.636  72.513   9.105  1.00  0.00     0.274 HD
ATOM     17  H41 UNL     1      29.183  70.901   9.064  1.00  0.00     0.274 HD
ENDBRANCH  13  14
ENDBRANCH  12  13
ENDBRANCH  10  12
ENDBRANCH   4  10
BRANCH   1  18
HETATM   18  N1  UNL     1      30.342  76.351  15.854  1.00  0.00    -0.234 N
ATOM     19  H12 UNL     1      29.647  76.856  16.405  1.00  0.00     0.174 HD
ATOM     20  H11 UNL     1      31.271  76.761  15.766  1.00  0.00     0.174 HD
ENDBRANCH   1  18
TORSDOF 5
ENDMDL