MODEL 5
REMARK VINA RESULT: -4.856730908      1.205      1.346
REMARK  3 active torsions:
REMARK  status: ('A' for Active; 'I' for Inactive)
REMARK    1  A    between atoms: N1_2  and  C2_5
REMARK    2  A    between atoms: C2_5  and  C3_6
REMARK    3  A    between atoms: C3_6  and  C4_7
ROOT
HETATM    1  C4  UNL     1      29.560  72.644  12.118  1.00  0.00     0.150 A
HETATM    2  N2  UNL     1      28.389  72.461  11.319  1.00  0.00    -0.353 N
ATOM      3  H2  UNL     1      27.684  73.181  11.162  1.00  0.00     0.163 HD
HETATM    4  C5  UNL     1      28.335  71.271  10.823  1.00  0.00     0.190 A
HETATM    5  N3  UNL     1      27.284  70.788   9.983  1.00  0.00    -0.063 NA
HETATM    6  N4  UNL     1      29.483  70.595  11.273  1.00  0.00    -0.321 N
ATOM      7  H4  UNL     1      29.699  69.628  11.031  1.00  0.00     0.169 HD
HETATM    8  C6  UNL     1      30.231  71.326  12.021  1.00  0.00     0.118 A
HETATM    9  N5  UNL     1      31.468  70.981  12.656  1.00  0.00    -0.085 NA
ENDROOT
BRANCH   1  10
HETATM   10  C3  UNL     1      29.273  72.903  13.573  1.00  0.00     0.060 C
BRANCH  10  11
HETATM   11  C2  UNL     1      29.331  74.355  13.932  1.00  0.00     0.234 C
BRANCH  11  12
HETATM   12  N1  UNL     1      29.068  74.587  15.337  1.00  0.00    -0.079 N
HETATM   13  C1  UNL     1      30.354  74.512  16.019  1.00  0.00     0.266 C
ATOM     14  H12 UNL     1      28.369  73.955  15.726  1.00  0.00     0.276 HD
ATOM     15  H11 UNL     1      28.567  75.457  15.515  1.00  0.00     0.276 HD
ENDBRANCH  11  12
ENDBRANCH  10  11
ENDBRANCH   1  10
TORSDOF 3
ENDMDL