MODEL 3
REMARK VINA RESULT: -4.924446976      3.358      5.716
REMARK  5 active torsions:
REMARK  status: ('A' for Active; 'I' for Inactive)
REMARK    1  A    between atoms: C1_2  and  N2_4
REMARK    2  A    between atoms: N2_4  and  N3_6
REMARK    3  A    between atoms: N3_6  and  O1_8
REMARK    4  A    between atoms: O1_8  and  C2_9
REMARK    5  A    between atoms: C2_9  and  C3_10
ROOT
HETATM    1  O1  UNL     1      13.109  10.452  19.298  1.00  0.00    -0.263 OA
ENDROOT
BRANCH   1   2
HETATM    2  N3  UNL     1      12.423   9.317  19.303  1.00  0.00    -0.206 N
ATOM      3  H3  UNL     1      12.709   8.513  19.861  1.00  0.00     0.216 HD
BRANCH   2   4
HETATM    4  N2  UNL     1      11.301   9.294  18.507  1.00  0.00    -0.259 N
ATOM      5  H2  UNL     1      11.315   8.836  17.596  1.00  0.00     0.191 HD
BRANCH   4   6
HETATM    6  C1  UNL     1      10.119   9.927  18.990  1.00  0.00     0.201 C
HETATM    7  N1  UNL     1       9.781   9.940  20.351  1.00  0.00    -0.068 NA
HETATM    8  S1  UNL     1       9.130  10.664  17.890  1.00  0.00    -0.043 SA
ENDBRANCH   4   6
ENDBRANCH   2   4
ENDBRANCH   1   2
BRANCH   1   9
HETATM    9  C2  UNL     1      13.266  10.869  20.619  1.00  0.00     0.235 C
BRANCH   9  10
HETATM   10  C3  UNL     1      14.711  10.985  21.013  1.00  0.00     0.212 C
HETATM   11  C4  UNL     1      15.586  11.235  19.830  1.00  0.00     0.037 C
HETATM   12  C5  UNL     1      16.616  10.109  19.918  1.00  0.00     0.029 C
HETATM   13  C6  UNL     1      16.627   9.845  21.411  1.00  0.00     0.233 C
HETATM   14  N4  UNL     1      15.195   9.822  21.699  1.00  0.00    -0.069 N
ATOM     15  H42 UNL     1      14.960   9.783  22.690  1.00  0.00     0.277 HD
ATOM     16  H41 UNL     1      14.725   8.952  21.448  1.00  0.00     0.277 HD
ENDBRANCH   9  10
ENDBRANCH   1   9
TORSDOF 5
ENDMDL