MODEL 2
REMARK VINA RESULT: -5.162473624      2.249      2.924
REMARK  4 active torsions:
REMARK  status: ('A' for Active; 'I' for Inactive)
REMARK    1  A    between atoms: C1_2  and  N1_3
REMARK    2  A    between atoms: N1_3  and  C2_5
REMARK    3  A    between atoms: C2_5  and  C3_6
REMARK       I    between atoms: C3_6  and  N2_8
REMARK    4  A    between atoms: N2_8  and  C4_10
ROOT
HETATM    1  C3  UNL     1      15.669  12.061  28.012  1.00  0.00     0.240 C
HETATM    2  O2  UNL     1      16.501  11.113  27.873  1.00  0.00    -0.271 OA
HETATM    3  N2  UNL     1      14.316  11.897  27.675  1.00  0.00    -0.320 N
ATOM      4  H2  UNL     1      13.673  12.678  27.811  1.00  0.00     0.169 HD
ENDROOT
BRANCH   3   5
HETATM    5  C4  UNL     1      13.811  10.664  27.145  1.00  0.00     0.130 A
HETATM    6  C5  UNL     1      13.418   9.510  27.765  1.00  0.00     0.203 A
HETATM    7  O3  UNL     1      13.037   8.683  26.807  1.00  0.00    -0.245 OA
HETATM    8  N3  UNL     1      13.152   9.207  25.646  1.00  0.00    -0.224 N
HETATM    9  C6  UNL     1      13.630  10.447  25.768  1.00  0.00     0.294 A
ATOM     10  H3  UNL     1      12.916   8.749  24.765  1.00  0.00     0.198 HD
HETATM   11  O4  UNL     1      13.877  11.278  24.826  1.00  0.00    -0.264 OA
ENDBRANCH   3   5
BRANCH   1  12
HETATM   12  C2  UNL     1      16.167  13.349  28.548  1.00  0.00     0.225 C
BRANCH  12  13
HETATM   13  N1  UNL     1      15.211  14.389  28.545  1.00  0.00    -0.359 N
ATOM     14  H1  UNL     1      14.640  14.484  29.386  1.00  0.00     0.162 HD
BRANCH  13  15
HETATM   15  C1  UNL     1      14.960  15.305  27.513  1.00  0.00     0.348 C
HETATM   16  O1  UNL     1      14.573  14.919  26.386  1.00  0.00    -0.284 OA
ENDBRANCH  13  15
ENDBRANCH  12  13
ENDBRANCH   1  12
TORSDOF 4
ENDMDL