MODEL 2
REMARK VINA RESULT: -6.131312747      1.117      1.667
REMARK  3 active torsions:
REMARK  status: ('A' for Active; 'I' for Inactive)
REMARK       I    between atoms: C1_2  and  N2_4
REMARK    1  A    between atoms: N2_4  and  N3_6
REMARK    2  A    between atoms: C2_8  and  N4_9
REMARK    3  A    between atoms: N4_9  and  C3_11
ROOT
HETATM    1  N4  UNL     1      14.346  10.112  20.866  1.00  0.00    -0.351 N
ATOM      2  H4  UNL     1      15.073   9.444  20.610  1.00  0.00     0.166 HD
ENDROOT
BRANCH   1   3
HETATM    3  C2  UNL     1      13.342  10.456  19.939  1.00  0.00     0.197 C
HETATM    4  N3  UNL     1      12.578   9.555  19.462  1.00  0.00    -0.293 N
ATOM      5  H3  UNL     1      12.727   8.596  19.778  1.00  0.00     0.187 HD
BRANCH   4   6
HETATM    6  N2  UNL     1      11.557   9.775  18.545  1.00  0.00    -0.253 N
HETATM    7  C1  UNL     1      10.219   9.978  19.005  1.00  0.00     0.347 C
HETATM    8  N1  UNL     1       9.184  10.203  18.063  1.00  0.00    -0.038 NA
HETATM    9  O1  UNL     1       9.970   9.958  20.231  1.00  0.00    -0.249 OA
ATOM     10  H2  UNL     1      11.762   9.791  17.546  1.00  0.00     0.191 HD
ENDBRANCH   4   6
ENDBRANCH   1   3
BRANCH   1  11
HETATM   11  C3  UNL     1      14.340  10.704  22.160  1.00  0.00     0.039 A
HETATM   12  C4  UNL     1      14.251   9.933  23.301  1.00  0.00     0.046 A
HETATM   13  C5  UNL     1      14.246  10.518  24.560  1.00  0.00     0.093 A
HETATM   14  N5  UNL     1      14.328  11.853  24.714  1.00  0.00    -0.334 N
HETATM   15  C6  UNL     1      14.415  12.619  23.614  1.00  0.00     0.247 A
ATOM     16  H5  UNL     1      14.323  12.272  25.644  1.00  0.00     0.168 HD
HETATM   17  O2  UNL     1      14.493  13.869  23.701  1.00  0.00    -0.268 OA
HETATM   18  C7  UNL     1      14.422  12.069  22.345  1.00  0.00     0.104 A
ENDBRANCH   1  11
TORSDOF 3
ENDMDL