MODEL 3
REMARK VINA RESULT: -5.251242441      2.660      5.570
REMARK  4 active torsions:
REMARK  status: ('A' for Active; 'I' for Inactive)
REMARK    1  A    between atoms: C1_4  and  C2_6
REMARK    2  A    between atoms: C4_8  and  C5_9
REMARK    3  A    between atoms: C5_9  and  O1_10
REMARK    4  A    between atoms: O1_10  and  C6_11
ROOT
HETATM    1  C2  UNL     1      15.674  10.583  22.133  1.00  0.00     0.250 C
HETATM    2  C3  UNL     1      14.196  10.932  22.368  1.00  0.00     0.049 C
HETATM    3  C4  UNL     1      13.839  11.344  20.928  1.00  0.00     0.038 C
HETATM    4  C7  UNL     1      14.733  10.432  20.090  1.00  0.00     0.240 C
HETATM    5  N4  UNL     1      15.524   9.657  21.023  1.00  0.00    -0.064 N
ATOM      6  H41 UNL     1      15.134   8.747  21.269  1.00  0.00     0.278 HD
ATOM      7  H42 UNL     1      16.397   9.288  20.647  1.00  0.00     0.278 HD
ENDROOT
BRANCH   1   8
HETATM    8  C1  UNL     1      16.276   9.962  23.318  1.00  0.00     0.117 C
HETATM    9  N1  UNL     1      16.134  10.524  24.467  1.00  0.00    -0.389 N
ATOM     10  H12 UNL     1      16.553  10.092  25.291  1.00  0.00     0.157 HD
ATOM     11  H11 UNL     1      15.608  11.394  24.546  1.00  0.00     0.157 HD
HETATM   12  N2  UNL     1      17.002   8.765  23.209  1.00  0.00    -0.086 NA
ENDBRANCH   1   8
BRANCH   3  13
HETATM   13  C5  UNL     1      12.394  11.112  20.642  1.00  0.00     0.186 C
BRANCH  13  14
HETATM   14  O1  UNL     1      12.247  10.159  19.619  1.00  0.00    -0.306 OA
BRANCH  14  15
HETATM   15  C6  UNL     1      11.034   9.660  19.195  1.00  0.00     0.372 C
HETATM   16  N3  UNL     1       9.865  10.025  19.952  1.00  0.00    -0.032 NA
HETATM   17  O2  UNL     1      10.938   8.919  18.196  1.00  0.00    -0.242 OA
ENDBRANCH  14  15
ENDBRANCH  13  14
ENDBRANCH   3  13
TORSDOF 4
ENDMDL