MODEL 2
REMARK VINA RESULT: -5.269175424      1.543      1.632
REMARK  5 active torsions:
REMARK  status: ('A' for Active; 'I' for Inactive)
REMARK    1  A    between atoms: C2_2  and  C3_3
REMARK    2  A    between atoms: C3_3  and  N1_4
REMARK    3  A    between atoms: N1_4  and  C4_6
REMARK    4  A    between atoms: C6_9  and  C7_10
REMARK    5  A    between atoms: C8_13  and  N3_14
ROOT
HETATM    1  C4  UNL     1      13.251  10.973  20.409  1.00  0.00     0.102 C
HETATM    2  C5  UNL     1      14.331  10.457  19.523  1.00  0.00     0.193 C
HETATM    3  O1  UNL     1      15.500  10.127  20.142  1.00  0.00    -0.373 OA
HETATM    4  C6  UNL     1      16.021  11.049  21.012  1.00  0.00     0.240 C
HETATM    5  C8  UNL     1      15.032  11.812  21.804  1.00  0.00     0.223 C
HETATM    6  C9  UNL     1      13.731  11.043  21.858  1.00  0.00     0.062 C
ENDROOT
BRANCH   1   7
HETATM    7  N1  UNL     1      12.052  10.207  20.421  1.00  0.00    -0.412 N
ATOM      8  H1  UNL     1      11.601   9.940  21.297  1.00  0.00     0.153 HD
BRANCH   7   9
HETATM    9  C3  UNL     1      11.508   9.828  19.167  1.00  0.00     0.141 C
BRANCH   9  10
HETATM   10  C2  UNL     1      10.020   9.883  19.273  1.00  0.00    -0.018 C
HETATM   11  C1  UNL     1       9.243  10.233  18.273  1.00  0.00     0.008 C
ENDBRANCH   9  10
ENDBRANCH   7   9
ENDBRANCH   1   7
BRANCH   5  12
HETATM   12  N3  UNL     1      15.454  12.204  23.117  1.00  0.00    -0.072 N
ATOM     13  H33 UNL     1      16.472  12.211  23.169  1.00  0.00     0.274 HD
ATOM     14  H32 UNL     1      15.259  13.194  23.265  1.00  0.00     0.274 HD
ATOM     15  H31 UNL     1      15.071  11.655  23.888  1.00  0.00     0.274 HD
ENDBRANCH   5  12
BRANCH   4  16
HETATM   16  C7  UNL     1      16.945  10.359  21.933  1.00  0.00     0.262 C
HETATM   17  N2  UNL     1      16.634   9.136  22.578  1.00  0.00    -0.060 NA
HETATM   18  O2  UNL     1      18.066  10.866  22.167  1.00  0.00    -0.274 OA
ENDBRANCH   4  16
TORSDOF 5
ENDMDL