MODEL 3
REMARK VINA RESULT: -5.286624301      1.397      1.804
REMARK  6 active torsions:
REMARK  status: ('A' for Active; 'I' for Inactive)
REMARK    1  A    between atoms: N1_1  and  C1_4
REMARK    2  A    between atoms: C5_10  and  C6_11
REMARK    3  A    between atoms: C6_11  and  O1_12
REMARK    4  A    between atoms: C6_11  and  C7_14
REMARK    5  A    between atoms: C7_14  and  N3_15
REMARK    6  A    between atoms: C7_14  and  C8_19
ROOT
HETATM    1  C6  UNL     1      13.853  13.241  25.362  1.00  0.00     0.096 C
ENDROOT
BRANCH   1   2
HETATM    2  C5  UNL     1      13.959  11.892  24.899  1.00  0.00     0.039 A
HETATM    3  C1  UNL     1      13.696  10.855  25.821  1.00  0.00     0.111 A
HETATM    4  N2  UNL     1      13.733   9.583  25.432  1.00  0.00    -0.352 N
HETATM    5  C2  UNL     1      14.014   9.210  24.178  1.00  0.00     0.089 A
ATOM      6  H2  UNL     1      13.538   8.858  26.122  1.00  0.00     0.166 HD
HETATM    7  C3  UNL     1      14.280  10.159  23.226  1.00  0.00     0.018 A
HETATM    8  C4  UNL     1      14.246  11.508  23.613  1.00  0.00     0.019 A
BRANCH   3   9
HETATM    9  N1  UNL     1      13.425  11.210  27.032  1.00  0.00    -0.385 N
ATOM     10  H12 UNL     1      12.442  11.196  27.304  1.00  0.00     0.157 HD
ATOM     11  H11 UNL     1      14.142  11.493  27.699  1.00  0.00     0.157 HD
ENDBRANCH   3   9
ENDBRANCH   1   2
BRANCH   1  12
HETATM   12  O1  UNL     1      12.652  13.618  25.698  1.00  0.00    -0.361 OA
ATOM     13  H1  UNL     1      12.090  12.927  26.027  1.00  0.00     0.217 HD
ENDBRANCH   1  12
BRANCH   1  14
HETATM   14  C7  UNL     1      14.863  14.251  25.521  1.00  0.00     0.328 C
BRANCH  14  15
HETATM   15  N3  UNL     1      15.561  14.114  26.822  1.00  0.00    -0.061 N
ATOM     16  H33 UNL     1      15.386  14.916  27.428  1.00  0.00     0.275 HD
ATOM     17  H32 UNL     1      15.139  13.386  27.399  1.00  0.00     0.275 HD
ATOM     18  H31 UNL     1      16.560  13.956  26.691  1.00  0.00     0.275 HD
ENDBRANCH  14  15
BRANCH  14  19
HETATM   19  C8  UNL     1      14.558  15.656  25.324  1.00  0.00     0.268 C
HETATM   20  N4  UNL     1      14.920  16.717  26.187  1.00  0.00    -0.060 NA
HETATM   21  O2  UNL     1      13.902  15.980  24.275  1.00  0.00    -0.274 OA
ENDBRANCH  14  19
ENDBRANCH   1  14
TORSDOF 6
ENDMDL