MODEL 4
REMARK VINA RESULT: -5.208874700      1.979      2.422
REMARK  4 active torsions:
REMARK  status: ('A' for Active; 'I' for Inactive)
REMARK    1  A    between atoms: N1_1  and  C1_5
REMARK    2  A    between atoms: C1_5  and  C2_6
REMARK       I    between atoms: C2_6  and  N2_8
REMARK    3  A    between atoms: N2_8  and  C3_10
REMARK    4  A    between atoms: C5_12  and  C6_13
ROOT
HETATM    1  C3  UNL     1      12.413   9.866  19.770  1.00  0.00     0.201 C
HETATM    2  C4  UNL     1      11.410   9.380  18.719  1.00  0.00     0.084 C
HETATM    3  C5  UNL     1      10.132   9.797  19.465  1.00  0.00     0.191 C
HETATM    4  N4  UNL     1      10.551  11.042  20.013  1.00  0.00    -0.325 N
ATOM      5  H4  UNL     1       9.913  11.805  20.241  1.00  0.00     0.180 HD
HETATM    6  N5  UNL     1      11.774  11.092  20.182  1.00  0.00    -0.317 N
ATOM      7  H5  UNL     1      12.270  11.898  20.564  1.00  0.00     0.182 HD
ENDROOT
BRANCH   1   8
HETATM    8  N2  UNL     1      13.704  10.087  19.242  1.00  0.00    -0.337 N
HETATM    9  C2  UNL     1      14.701  10.675  20.058  1.00  0.00     0.244 C
HETATM   10  O1  UNL     1      14.436  11.000  21.262  1.00  0.00    -0.272 OA
ATOM     11  H2  UNL     1      13.916   9.827  18.279  1.00  0.00     0.164 HD
BRANCH   9  12
HETATM   12  C1  UNL     1      16.078  10.929  19.548  1.00  0.00     0.332 C
BRANCH  12  13
HETATM   13  N1  UNL     1      16.201  10.367  18.220  1.00  0.00    -0.071 N
ATOM     14  H13 UNL     1      15.554  10.794  17.556  1.00  0.00     0.274 HD
ATOM     15  H12 UNL     1      17.072  10.636  17.764  1.00  0.00     0.274 HD
ATOM     16  H11 UNL     1      16.088   9.354  18.275  1.00  0.00     0.274 HD
ENDBRANCH  12  13
ENDBRANCH   9  12
ENDBRANCH   1   8
BRANCH   3  17
HETATM   17  C6  UNL     1       9.007   9.934  18.518  1.00  0.00     0.255 C
HETATM   18  N3  UNL     1       8.783  11.223  17.955  1.00  0.00    -0.060 NA
HETATM   19  O2  UNL     1       8.317   8.935  18.259  1.00  0.00    -0.275 OA
ENDBRANCH   3  17
TORSDOF 4
ENDMDL