MODEL 1
REMARK VINA RESULT: -4.983509168      0.000      0.000
REMARK  5 active torsions:
REMARK  status: ('A' for Active; 'I' for Inactive)
REMARK    1  A    between atoms: C1_4  and  N2_5
REMARK    2  A    between atoms: N2_5  and  C2_7
REMARK    3  A    between atoms: C6_13  and  C7_14
REMARK    4  A    between atoms: C7_14  and  N4_15
REMARK    5  A    between atoms: C7_14  and  C8_19
ROOT
HETATM    1  C2  UNL     1      13.868  12.464  26.010  1.00  0.00     0.044 A
HETATM    2  C3  UNL     1      14.253  13.337  27.041  1.00  0.00     0.047 A
HETATM    3  C4  UNL     1      14.447  12.877  28.305  1.00  0.00     0.090 A
HETATM    4  N3  UNL     1      14.280  11.592  28.599  1.00  0.00    -0.375 N
ATOM      5  H3  UNL     1      14.428  11.253  29.549  1.00  0.00     0.164 HD
HETATM    6  C5  UNL     1      13.916  10.750  27.624  1.00  0.00     0.099 A
HETATM    7  C6  UNL     1      13.698  11.153  26.297  1.00  0.00     0.023 A
ENDROOT
BRANCH   7   8
HETATM    8  C7  UNL     1      13.422  10.137  25.276  1.00  0.00     0.308 C
BRANCH   8   9
HETATM    9  N4  UNL     1      13.000   8.863  25.860  1.00  0.00    -0.063 N
ATOM     10  H43 UNL     1      13.297   8.788  26.833  1.00  0.00     0.275 HD
ATOM     11  H42 UNL     1      11.989   8.837  25.996  1.00  0.00     0.275 HD
ATOM     12  H41 UNL     1      13.319   8.062  25.314  1.00  0.00     0.275 HD
ENDBRANCH   8   9
BRANCH   8  13
HETATM   13  C8  UNL     1      14.470   9.945  24.279  1.00  0.00     0.266 C
HETATM   14  N5  UNL     1      14.173  10.344  22.909  1.00  0.00    -0.060 NA
HETATM   15  O1  UNL     1      15.593   9.484  24.438  1.00  0.00    -0.274 OA
ENDBRANCH   8  13
ENDBRANCH   7   8
BRANCH   1  16
HETATM   16  N2  UNL     1      13.568  13.035  24.766  1.00  0.00    -0.352 N
ATOM     17  H2  UNL     1      12.639  12.905  24.365  1.00  0.00     0.166 HD
BRANCH  16  18
HETATM   18  C1  UNL     1      14.536  13.790  24.056  1.00  0.00     0.173 C
HETATM   19  N1  UNL     1      15.225  13.291  23.078  1.00  0.00    -0.395 N
ATOM     20  H12 UNL     1      15.051  12.319  22.822  1.00  0.00     0.156 HD
ATOM     21  H11 UNL     1      15.921  13.834  22.567  1.00  0.00     0.156 HD
ENDBRANCH  16  18
ENDBRANCH   1  16
TORSDOF 5
ENDMDL