MODEL 2
REMARK VINA RESULT: -5.924722877      2.060      5.706
REMARK  4 active torsions:
REMARK  status: ('A' for Active; 'I' for Inactive)
REMARK    1  A    between atoms: C1_2  and  C2_4
REMARK    2  A    between atoms: C2_4  and  N2_5
REMARK    3  A    between atoms: N2_5  and  N3_7
REMARK       I    between atoms: N3_7  and  C3_9
REMARK    4  A    between atoms: C3_9  and  C4_11
ROOT
HETATM    1  N3  UNL     1      12.441  10.106  19.837  1.00  0.00    -0.269 N
ATOM      2  H3  UNL     1      11.757   9.948  20.577  1.00  0.00     0.190 HD
HETATM    3  C3  UNL     1      13.693  10.620  20.227  1.00  0.00     0.286 C
HETATM    4  O2  UNL     1      14.579  10.837  19.366  1.00  0.00    -0.264 OA
ENDROOT
BRANCH   1   5
HETATM    5  N2  UNL     1      12.050   9.794  18.544  1.00  0.00    -0.325 N
ATOM      6  H2  UNL     1      12.645   9.972  17.734  1.00  0.00     0.180 HD
BRANCH   5   7
HETATM    7  C2  UNL     1      10.749   9.205  18.428  1.00  0.00     0.238 C
BRANCH   7   8
HETATM    8  C1  UNL     1       9.716  10.064  19.092  1.00  0.00     0.250 C
HETATM    9  N1  UNL     1       8.792  10.728  18.245  1.00  0.00    -0.061 NA
HETATM   10  O1  UNL     1       9.690  10.176  20.330  1.00  0.00    -0.275 OA
ENDBRANCH   7   8
ENDBRANCH   5   7
ENDBRANCH   1   5
BRANCH   3  11
HETATM   11  C4  UNL     1      14.015  10.919  21.623  1.00  0.00     0.102 A
HETATM   12  C5  UNL     1      14.356  12.140  22.167  1.00  0.00     0.036 A
HETATM   13  C6  UNL     1      14.586  11.989  23.520  1.00  0.00     0.019 A
HETATM   14  C7  UNL     1      14.376  10.635  23.787  1.00  0.00     0.088 A
HETATM   15  N4  UNL     1      14.040  10.026  22.645  1.00  0.00    -0.361 N
ATOM     16  H4  UNL     1      13.831   9.032  22.554  1.00  0.00     0.165 HD
ENDBRANCH   3  11
TORSDOF 4
ENDMDL