MODEL 3
REMARK VINA RESULT: -5.398653486      1.065      1.065
REMARK  4 active torsions:
REMARK  status: ('A' for Active; 'I' for Inactive)
REMARK    1  A    between atoms: C3_8  and  C4_9
REMARK    2  A    between atoms: N3_10  and  O1_12
REMARK    3  A    between atoms: O1_12  and  C5_13
REMARK    4  A    between atoms: C5_13  and  C6_14
ROOT
HETATM    1  N1  UNL     1      16.376   9.326  23.374  1.00  0.00    -0.234 N
ATOM      2  H11 UNL     1      16.884   8.555  22.942  1.00  0.00     0.174 HD
ATOM      3  H12 UNL     1      16.734   9.433  24.324  1.00  0.00     0.174 HD
HETATM    4  C1  UNL     1      15.481  10.066  22.780  1.00  0.00     0.676 A
HETATM    5  N2  UNL     1      14.798  11.102  23.359  1.00  0.00    -0.200 N
ATOM      6  H2  UNL     1      14.936  11.449  24.308  1.00  0.00     0.183 HD
HETATM    7  C2  UNL     1      13.918  11.585  22.468  1.00  0.00     0.137 A
HETATM    8  C3  UNL     1      14.051  10.842  21.307  1.00  0.00     0.082 A
HETATM    9  N5  UNL     1      15.015   9.927  21.542  1.00  0.00    -0.189 N
ATOM     10  H5  UNL     1      15.339   9.232  20.870  1.00  0.00     0.184 HD
ENDROOT
BRANCH   8  11
HETATM   11  C4  UNL     1      13.248  10.899  20.105  1.00  0.00     0.145 C
HETATM   12  N3  UNL     1      12.778   9.785  19.603  1.00  0.00    -0.275 N
ATOM     13  H3  UNL     1      12.969   8.870  20.010  1.00  0.00     0.193 HD
BRANCH  12  14
HETATM   14  O1  UNL     1      12.013   9.956  18.491  1.00  0.00    -0.272 OA
BRANCH  14  15
HETATM   15  C5  UNL     1      10.770   9.205  18.397  1.00  0.00     0.300 C
BRANCH  15  16
HETATM   16  C6  UNL     1       9.699  10.114  18.999  1.00  0.00     0.257 C
HETATM   17  N4  UNL     1       8.721  10.788  18.258  1.00  0.00    -0.060 NA
HETATM   18  O2  UNL     1       9.754  10.207  20.287  1.00  0.00    -0.274 OA
ENDBRANCH  15  16
ENDBRANCH  14  15
ENDBRANCH  12  14
ENDBRANCH   8  11
TORSDOF 4
ENDMDL