MODEL 4
REMARK VINA RESULT: -7.917341759      2.985      6.061
REMARK  14 active torsions:
REMARK  status: ('A' for Active; 'I' for Inactive)
REMARK    1  A    between atoms: C3_3  and  O1_4
REMARK    2  A    between atoms: C4_6  and  O2_7
REMARK    3  A    between atoms: C7_11  and  O3_12
REMARK    4  A    between atoms: C12_23  and  O7_24
REMARK    5  A    between atoms: O7_24  and  C13_25
REMARK    6  A    between atoms: C13_25  and  C14_26
REMARK    7  A    between atoms: C14_26  and  O8_27
REMARK    8  A    between atoms: C14_26  and  C15_29
REMARK    9  A    between atoms: C15_29  and  N2_30
REMARK   10  A    between atoms: N2_30  and  C17_32
REMARK   11  A    between atoms: C17_32  and  C18_33
REMARK   12  A    between atoms: C18_33  and  C19_35
REMARK   13  A    between atoms: C19_35  and  O10_36
REMARK   14  A    between atoms: C19_35  and  C20_38
ROOT
HETATM    1  C1  UNL     1      13.826  11.262  22.122  1.00  0.00     0.054 C
HETATM    2  C2  UNL     1      15.115  11.461  22.847  1.00  0.00     0.008 A
HETATM    3  C3  UNL     1      15.340  12.535  23.647  1.00  0.00     0.108 A
HETATM    4  C4  UNL     1      16.518  12.747  24.337  1.00  0.00     0.115 A
HETATM    5  C5  UNL     1      17.557  11.823  24.228  1.00  0.00     0.064 A
HETATM    6  C6  UNL     1      17.338  10.710  23.399  1.00  0.00     0.016 A
HETATM    7  C7  UNL     1      16.142  10.517  22.716  1.00  0.00     0.085 A
HETATM    8  C8  UNL     1      18.319   9.849  23.201  1.00  0.00     0.051 C
HETATM    9  C9  UNL     1      19.685   9.965  23.795  1.00  0.00     0.189 C
HETATM   10  C10 UNL     1      20.709  10.262  22.706  1.00  0.00     0.247 C
HETATM   11  O4  UNL     1      21.838   9.514  23.089  1.00  0.00    -0.293 OA
HETATM   12  C11 UNL     1      21.453   8.546  24.002  1.00  0.00     0.409 C
HETATM   13  O5  UNL     1      22.143   7.645  24.539  1.00  0.00    -0.229 OA
HETATM   14  O6  UNL     1      20.083   8.699  24.287  1.00  0.00    -0.260 OA
HETATM   15  N1  UNL     1      19.733  10.980  24.798  1.00  0.00    -0.333 N
ATOM     16  H1  UNL     1      20.529  11.026  25.435  1.00  0.00     0.165 HD
HETATM   17  C12 UNL     1      18.655  11.947  24.918  1.00  0.00     0.155 C
ENDROOT
BRANCH  17  18
HETATM   18  O7  UNL     1      18.869  13.010  25.817  1.00  0.00    -0.333 OA
BRANCH  18  19
HETATM   19  C13 UNL     1      20.016  12.848  26.633  1.00  0.00     0.210 C
BRANCH  19  20
HETATM   20  C14 UNL     1      20.216  13.930  27.658  1.00  0.00     0.170 C
BRANCH  20  21
HETATM   21  O8  UNL     1      20.938  13.440  28.723  1.00  0.00    -0.392 OA
ATOM     22  H8  UNL     1      21.401  12.652  28.466  1.00  0.00     0.210 HD
ENDBRANCH  20  21
BRANCH  20  23
HETATM   23  C15 UNL     1      19.028  14.701  28.058  1.00  0.00     0.306 C
BRANCH  23  24
HETATM   24  N2  UNL     1      18.232  13.985  29.054  1.00  0.00     0.093 N
HETATM   25  C16 UNL     1      18.234  14.873  30.281  1.00  0.00     0.310 C
BRANCH  24  26
HETATM   26  C17 UNL     1      16.814  13.933  28.669  1.00  0.00     0.353 C
BRANCH  26  27
HETATM   27  C18 UNL     1      16.401  12.522  28.559  1.00  0.00     0.194 C
HETATM   28  O9  UNL     1      17.280  11.663  28.454  1.00  0.00    -0.293 OA
BRANCH  27  29
HETATM   29  C19 UNL     1      14.992  12.111  28.575  1.00  0.00     0.290 C
BRANCH  29  30
HETATM   30  O10 UNL     1      14.355  12.964  29.519  1.00  0.00    -0.378 OA
ATOM     31  H10 UNL     1      13.423  12.875  29.356  1.00  0.00     0.211 HD
ENDBRANCH  29  30
BRANCH  29  32
HETATM   32  C20 UNL     1      14.322  12.338  27.265  1.00  0.00     0.210 C
HETATM   33  O11 UNL     1      14.007  11.334  26.575  1.00  0.00    -0.646 OA
HETATM   34  O12 UNL     1      14.041  13.577  26.784  1.00  0.00    -0.646 OA
ENDBRANCH  29  32
ENDBRANCH  27  29
ENDBRANCH  26  27
ENDBRANCH  24  26
ENDBRANCH  23  24
ENDBRANCH  20  23
ENDBRANCH  19  20
ENDBRANCH  18  19
ENDBRANCH  17  18
BRANCH   4  35
HETATM   35  O2  UNL     1      16.709  13.845  25.130  1.00  0.00    -0.357 OA
ATOM     36  H2  UNL     1      16.655  13.799  26.077  1.00  0.00     0.217 HD
ENDBRANCH   4  35
BRANCH   3  37
HETATM   37  O1  UNL     1      14.328  13.483  23.787  1.00  0.00    -0.357 OA
ATOM     38  H1  UNL     1      13.451  13.255  23.502  1.00  0.00     0.217 HD
ENDBRANCH   3  37
BRANCH   7  39
HETATM   39  O3  UNL     1      15.881   9.449  21.902  1.00  0.00    -0.359 OA
ATOM     40  H3  UNL     1      16.037   9.580  20.974  1.00  0.00     0.217 HD
ENDBRANCH   7  39
TORSDOF 14
ENDMDL