MODEL 4
REMARK VINA RESULT: -7.785413138      1.115      1.792
REMARK  15 active torsions:
REMARK  status: ('A' for Active; 'I' for Inactive)
REMARK    1  A    between atoms: C4_5  and  O2_6
REMARK    2  A    between atoms: O2_6  and  C5_7
REMARK    3  A    between atoms: C6_8  and  O3_9
REMARK    4  A    between atoms: O3_9  and  C7_10
REMARK    5  A    between atoms: C9_13  and  O5_14
REMARK    6  A    between atoms: C10_16  and  O6_17
REMARK    7  A    between atoms: C11_19  and  O7_20
REMARK    8  A    between atoms: C13_24  and  O9_25
REMARK    9  A    between atoms: O9_25  and  C14_26
REMARK   10  A    between atoms: C14_26  and  O10_27
REMARK   11  A    between atoms: O10_27  and  C15_28
REMARK   12  A    between atoms: C15_28  and  C16_29
REMARK   13  A    between atoms: C16_29  and  O11_30
REMARK   14  A    between atoms: C17_32  and  O12_33
REMARK   15  A    between atoms: C19_37  and  O14_38
ROOT
HETATM    1  C5  UNL     1      15.257  10.976  23.460  1.00  0.00     0.189 C
HETATM    2  C6  UNL     1      16.289  11.676  22.561  1.00  0.00     0.180 C
HETATM    3  C12 UNL     1      15.727  11.840  21.177  1.00  0.00     0.205 C
HETATM    4  O8  UNL     1      14.384  12.214  21.296  1.00  0.00    -0.356 OA
HETATM    5  C13 UNL     1      13.609  11.122  21.665  1.00  0.00     0.293 C
HETATM    6  C17 UNL     1      14.383  10.162  22.546  1.00  0.00     0.205 C
ENDROOT
BRANCH   2   7
HETATM    7  O3  UNL     1      17.457  10.996  22.641  1.00  0.00    -0.348 OA
BRANCH   7   8
HETATM    8  C7  UNL     1      18.582  11.747  22.929  1.00  0.00     0.291 C
HETATM    9  O4  UNL     1      19.691  10.971  22.590  1.00  0.00    -0.356 OA
HETATM   10  C8  UNL     1      19.959   9.977  23.508  1.00  0.00     0.205 C
HETATM   11  C9  UNL     1      20.481  10.705  24.755  1.00  0.00     0.173 C
HETATM   12  C10 UNL     1      19.225  11.369  25.332  1.00  0.00     0.182 C
HETATM   13  C11 UNL     1      18.623  12.278  24.323  1.00  0.00     0.204 C
BRANCH  11  14
HETATM   14  O5  UNL     1      21.059   9.844  25.651  1.00  0.00    -0.391 OA
ATOM     15  H5  UNL     1      21.951  10.094  25.862  1.00  0.00     0.210 HD
ENDBRANCH  11  14
BRANCH  12  16
HETATM   16  O6  UNL     1      19.591  12.029  26.477  1.00  0.00    -0.390 OA
ATOM     17  H6  UNL     1      19.749  12.937  26.249  1.00  0.00     0.210 HD
ENDBRANCH  12  16
BRANCH  13  18
HETATM   18  O7  UNL     1      19.304  13.509  24.399  1.00  0.00    -0.388 OA
ATOM     19  H7  UNL     1      19.057  14.007  25.170  1.00  0.00     0.210 HD
ENDBRANCH  13  18
ENDBRANCH   7   8
ENDBRANCH   2   7
BRANCH   1  20
HETATM   20  O2  UNL     1      14.593  11.936  24.174  1.00  0.00    -0.348 OA
BRANCH  20  21
HETATM   21  C4  UNL     1      15.014  12.105  25.466  1.00  0.00     0.285 C
HETATM   22  O1  UNL     1      15.069  13.425  25.871  1.00  0.00    -0.344 OA
HETATM   23  C2  UNL     1      15.216  13.639  27.196  1.00  0.00     0.106 C
HETATM   24  C1  UNL     1      14.713  15.029  27.550  1.00  0.00     0.051 C
HETATM   25  C3  UNL     1      16.724  13.662  27.491  1.00  0.00     0.051 C
HETATM   26  C19 UNL     1      14.634  12.609  28.109  1.00  0.00     0.290 C
HETATM   27  O13 UNL     1      14.652  11.331  27.633  1.00  0.00    -0.354 OA
HETATM   28  C18 UNL     1      14.077  11.323  26.364  1.00  0.00     0.232 C
BRANCH  26  29
HETATM   29  O14 UNL     1      15.293  12.598  29.360  1.00  0.00    -0.368 OA
ATOM     30  H14 UNL     1      16.093  12.087  29.326  1.00  0.00     0.212 HD
ENDBRANCH  26  29
ENDBRANCH  20  21
ENDBRANCH   1  20
BRANCH   6  31
HETATM   31  O12 UNL     1      13.468   9.372  23.208  1.00  0.00    -0.388 OA
ATOM     32  H12 UNL     1      12.622   9.322  22.778  1.00  0.00     0.210 HD
ENDBRANCH   6  31
BRANCH   5  33
HETATM   33  O9  UNL     1      13.174  10.394  20.560  1.00  0.00    -0.335 OA
BRANCH  33  34
HETATM   34  C14 UNL     1      11.863  10.764  20.258  1.00  0.00     0.341 C
BRANCH  34  35
HETATM   35  O10 UNL     1      11.069   9.680  19.963  1.00  0.00    -0.365 OA
BRANCH  35  36
HETATM   36  C15 UNL     1      10.793   9.523  18.626  1.00  0.00     0.196 C
BRANCH  36  37
HETATM   37  C16 UNL     1       9.278   9.345  18.500  1.00  0.00     0.190 C
BRANCH  37  38
HETATM   38  O11 UNL     1       8.733  10.608  18.353  1.00  0.00    -0.399 OA
ATOM     39  H11 UNL     1       9.206  11.184  18.941  1.00  0.00     0.209 HD
ENDBRANCH  37  38
ENDBRANCH  36  37
ENDBRANCH  35  36
ENDBRANCH  34  35
ENDBRANCH  33  34
ENDBRANCH   5  33
TORSDOF 15
ENDMDL