MODEL 3
REMARK VINA RESULT: -9.335233214      2.276      2.671
REMARK  13 active torsions:
REMARK  status: ('A' for Active; 'I' for Inactive)
REMARK    1  A    between atoms: N1_1  and  C1_4
REMARK    2  A    between atoms: C3_6  and  O1_7
REMARK    3  A    between atoms: O1_7  and  C4_8
REMARK    4  A    between atoms: C4_8  and  C5_9
REMARK    5  A    between atoms: C5_9  and  C6_10
REMARK    6  A    between atoms: C6_10  and  C7_11
REMARK    7  A    between atoms: C7_11  and  N2_12
REMARK    8  A    between atoms: C9_20  and  C10_21
REMARK       I    between atoms: C10_21  and  N6_23
REMARK    9  A    between atoms: N6_23  and  C11_25
REMARK   10  A    between atoms: C11_25  and  C12_26
REMARK   11  A    between atoms: C12_26  and  N7_27
REMARK   12  A    between atoms: N7_27  and  C13_29
REMARK   13  A    between atoms: C15_41  and  N14_42
ROOT
HETATM    1  N2  UNL     1      15.306  14.076  28.589  1.00  0.00    -0.258 N
HETATM    2  N3  UNL     1      15.736  14.645  27.480  1.00  0.00    -0.224 N
ATOM      3  H3  UNL     1      16.170  15.567  27.538  1.00  0.00     0.210 HD
HETATM    4  N4  UNL     1      15.626  14.065  26.291  1.00  0.00    -0.216 N
ATOM      5  H4  UNL     1      15.976  14.549  25.464  1.00  0.00     0.210 HD
HETATM    6  N5  UNL     1      15.074  12.873  26.157  1.00  0.00    -0.181 N
HETATM    7  C8  UNL     1      14.968  12.291  24.934  1.00  0.00     0.303 A
HETATM    8  O2  UNL     1      15.406  12.906  23.932  1.00  0.00    -0.263 OA
HETATM    9  C9  UNL     1      14.396  11.065  24.819  1.00  0.00     0.186 A
HETATM   10  N12 UNL     1      13.947  10.467  25.959  1.00  0.00    -0.289 N
ATOM     11  H12 UNL     1      13.515   9.546  25.885  1.00  0.00     0.187 HD
HETATM   12  N13 UNL     1      14.042  11.018  27.149  1.00  0.00    -0.280 N
ATOM     13  H13 UNL     1      13.692  10.537  27.978  1.00  0.00     0.188 HD
HETATM   14  C14 UNL     1      14.615  12.240  27.243  1.00  0.00     0.192 A
HETATM   15  C15 UNL     1      14.737  12.865  28.493  1.00  0.00     0.165 A
ENDROOT
BRANCH   1  16
HETATM   16  C7  UNL     1      15.440  14.723  29.873  1.00  0.00     0.152 C
BRANCH  16  17
HETATM   17  C6  UNL     1      16.718  14.216  30.509  1.00  0.00     0.024 C
BRANCH  17  18
HETATM   18  C5  UNL     1      17.844  15.181  30.171  1.00  0.00     0.028 C
BRANCH  18  19
HETATM   19  C4  UNL     1      19.105  14.807  30.883  1.00  0.00     0.175 C
BRANCH  19  20
HETATM   20  O1  UNL     1      20.274  15.361  30.467  1.00  0.00    -0.351 OA
BRANCH  20  21
HETATM   21  C3  UNL     1      21.408  14.778  29.993  1.00  0.00     0.073 A
HETATM   22  C2  UNL     1      22.670  14.962  30.510  1.00  0.00     0.084 A
HETATM   23  C1  UNL     1      23.749  14.304  29.935  1.00  0.00     0.101 A
HETATM   24  N15 UNL     1      23.636  13.479  28.883  1.00  0.00    -0.353 N
HETATM   25  C17 UNL     1      22.422  13.272  28.347  1.00  0.00     0.092 A
ATOM     26  H15 UNL     1      24.459  13.017  28.496  1.00  0.00     0.166 HD
HETATM   27  C16 UNL     1      21.339  13.903  28.887  1.00  0.00     0.054 A
BRANCH  23  28
HETATM   28  N1  UNL     1      24.922  14.482  30.425  1.00  0.00    -0.385 N
ATOM     29  H12 UNL     1      25.360  13.690  30.895  1.00  0.00     0.157 HD
ATOM     30  H11 UNL     1      25.368  15.394  30.329  1.00  0.00     0.157 HD
ENDBRANCH  23  28
ENDBRANCH  20  21
ENDBRANCH  19  20
ENDBRANCH  18  19
ENDBRANCH  17  18
ENDBRANCH  16  17
ENDBRANCH   1  16
BRANCH  15  31
HETATM   31  N14 UNL     1      14.279  12.220  29.500  1.00  0.00    -0.381 N
ATOM     32 2H14 UNL     1      14.958  11.946  30.210  1.00  0.00     0.157 HD
ATOM     33 1H14 UNL     1      13.295  11.979  29.611  1.00  0.00     0.157 HD
ENDBRANCH  15  31
BRANCH   9  34
HETATM   34  C10 UNL     1      14.255  10.383  23.522  1.00  0.00     0.275 C
HETATM   35  O3  UNL     1      13.460   9.410  23.483  1.00  0.00    -0.266 OA
HETATM   36  N6  UNL     1      14.993  10.829  22.398  1.00  0.00    -0.354 N
ATOM     37  H6  UNL     1      15.623  11.626  22.500  1.00  0.00     0.162 HD
BRANCH  36  38
HETATM   38  C11 UNL     1      14.877  10.189  21.126  1.00  0.00     0.143 C
BRANCH  38  39
HETATM   39  C12 UNL     1      14.223  11.030  20.057  1.00  0.00     0.157 C
BRANCH  39  40
HETATM   40  N7  UNL     1      13.443  10.116  19.230  1.00  0.00    -0.223 N
ATOM     41  H7  UNL     1      13.909   9.543  18.526  1.00  0.00     0.177 HD
BRANCH  40  42
HETATM   42  C13 UNL     1      12.165  10.029  19.388  1.00  0.00     0.703 A
HETATM   43  N8  UNL     1      11.392   9.137  18.712  1.00  0.00    -0.117 N
HETATM   44  N9  UNL     1      10.140   9.309  19.101  1.00  0.00     0.006 NA
ATOM     45  H8  UNL     1      11.720   8.456  18.026  1.00  0.00     0.202 HD
HETATM   46  N10 UNL     1      10.068  10.274  20.004  1.00  0.00     0.006 NA
HETATM   47  N11 UNL     1      11.323  10.702  20.164  1.00  0.00    -0.117 N
ATOM     48  H11 UNL     1      11.599  11.450  20.801  1.00  0.00     0.202 HD
ENDBRANCH  40  42
ENDBRANCH  39  40
ENDBRANCH  38  39
ENDBRANCH  36  38
ENDBRANCH   9  34
TORSDOF 13
ENDMDL