MODEL 2
REMARK VINA RESULT: -9.239419771      1.322      1.477
REMARK  12 active torsions:
REMARK  status: ('A' for Active; 'I' for Inactive)
REMARK    1  A    between atoms: O1_2  and  C2_3
REMARK    2  A    between atoms: C3_6  and  N2_7
REMARK    3  A    between atoms: N2_7  and  C4_9
REMARK    4  A    between atoms: C4_9  and  C5_10
REMARK    5  A    between atoms: C5_10  and  N3_11
REMARK    6  A    between atoms: N3_11  and  C6_13
REMARK    7  A    between atoms: N8_27  and  C11_28
REMARK    8  A    between atoms: C11_28  and  C12_29
REMARK    9  A    between atoms: C14_40  and  N14_41
REMARK   10  A    between atoms: N14_41  and  C15_43
REMARK   11  A    between atoms: C15_43  and  C16_44
REMARK   12  A    between atoms: C16_44  and  C17_45
ROOT
HETATM    1  C6  UNL     1      16.017  12.846  28.624  1.00  0.00     0.147 A
HETATM    2  N4  UNL     1      15.299  13.143  29.718  1.00  0.00    -0.175 N
ATOM      3  H4  UNL     1      14.469  12.601  29.960  1.00  0.00     0.186 HD
HETATM    4  C7  UNL     1      15.700  14.171  30.487  1.00  0.00     0.679 A
HETATM    5  N5  UNL     1      15.014  14.479  31.561  1.00  0.00    -0.234 N
ATOM      6  H51 UNL     1      15.318  15.258  32.144  1.00  0.00     0.174 HD
ATOM      7  H52 UNL     1      14.184  13.938  31.803  1.00  0.00     0.174 HD
HETATM    8  N6  UNL     1      16.797  14.885  30.168  1.00  0.00    -0.174 N
ATOM      9  H6  UNL     1      17.069  15.657  30.776  1.00  0.00     0.186 HD
HETATM   10  C8  UNL     1      17.550  14.626  29.084  1.00  0.00     0.155 A
HETATM   11  C9  UNL     1      17.142  13.558  28.276  1.00  0.00     0.123 A
HETATM   12  N7  UNL     1      18.031  13.503  27.272  1.00  0.00    -0.346 N
ATOM     13  H7  UNL     1      17.997  12.823  26.513  1.00  0.00     0.167 HD
HETATM   14  C10 UNL     1      18.966  14.452  27.389  1.00  0.00     0.185 A
HETATM   15  N8  UNL     1      18.643  15.139  28.530  1.00  0.00    -0.320 N
ENDROOT
BRANCH   1  16
HETATM   16  N3  UNL     1      15.646  11.874  27.886  1.00  0.00    -0.372 N
ATOM     17  H3  UNL     1      16.323  11.395  27.291  1.00  0.00     0.161 HD
BRANCH  16  18
HETATM   18  C5  UNL     1      14.271  11.456  27.894  1.00  0.00     0.141 C
BRANCH  18  19
HETATM   19  C4  UNL     1      14.029  10.636  26.635  1.00  0.00     0.157 C
BRANCH  19  20
HETATM   20  N2  UNL     1      14.229  11.451  25.480  1.00  0.00    -0.224 N
ATOM     21  H2  UNL     1      14.066  12.456  25.556  1.00  0.00     0.177 HD
BRANCH  20  22
HETATM   22  C3  UNL     1      14.613  10.964  24.327  1.00  0.00     0.695 A
HETATM   23  N1  UNL     1      15.665  10.128  24.218  1.00  0.00    -0.154 N
HETATM   24  C2  UNL     1      16.057   9.630  23.031  1.00  0.00     0.252 A
ATOM     25  H1  UNL     1      16.179   9.865  25.059  1.00  0.00     0.188 HD
HETATM   26  N15 UNL     1      15.376   9.979  21.921  1.00  0.00    -0.154 N
HETATM   27  C14 UNL     1      14.308  10.820  21.988  1.00  0.00     0.695 A
ATOM     28  H15 UNL     1      15.666   9.606  21.017  1.00  0.00     0.188 HD
HETATM   29  N13 UNL     1      13.967  11.281  23.191  1.00  0.00    -0.022 N
ATOM     30  H13 UNL     1      13.169  11.913  23.253  1.00  0.00     0.203 HD
BRANCH  24  31
HETATM   31  O1  UNL     1      17.131   8.768  22.870  1.00  0.00    -0.326 OA
HETATM   32  C1  UNL     1      18.428   9.291  23.072  1.00  0.00     0.213 C
ENDBRANCH  24  31
BRANCH  27  33
HETATM   33  N14 UNL     1      13.705  11.111  20.886  1.00  0.00    -0.225 N
ATOM     34  H14 UNL     1      14.175  11.654  20.161  1.00  0.00     0.177 HD
BRANCH  33  35
HETATM   35  C15 UNL     1      12.361  10.655  20.701  1.00  0.00     0.148 C
BRANCH  35  36
HETATM   36  C16 UNL     1      12.115  10.119  19.304  1.00  0.00     0.133 C
BRANCH  36  37
HETATM   37  C17 UNL     1      10.686   9.738  19.191  1.00  0.00     0.174 C
HETATM   38  O2  UNL     1      10.341   8.988  18.237  1.00  0.00    -0.648 OA
HETATM   39  O3  UNL     1       9.753  10.200  20.119  1.00  0.00    -0.648 OA
ENDBRANCH  36  37
ENDBRANCH  35  36
ENDBRANCH  33  35
ENDBRANCH  27  33
ENDBRANCH  20  22
ENDBRANCH  19  20
ENDBRANCH  18  19
ENDBRANCH  16  18
ENDBRANCH   1  16
BRANCH  15  40
HETATM   40  C11 UNL     1      19.440  16.256  29.030  1.00  0.00     0.211 C
BRANCH  40  41
HETATM   41  C12 UNL     1      20.456  15.814  29.993  1.00  0.00     0.133 A
HETATM   42  N9  UNL     1      20.231  15.804  31.331  1.00  0.00    -0.271 N
HETATM   43  N10 UNL     1      21.309  15.351  31.921  1.00  0.00    -0.227 N
ATOM     44  H9  UNL     1      19.372  16.098  31.796  1.00  0.00     0.190 HD
HETATM   45  N11 UNL     1      22.183  15.085  30.969  1.00  0.00    -0.225 N
ATOM     46  H10 UNL     1      21.446  15.228  32.924  1.00  0.00     0.210 HD
HETATM   47  N12 UNL     1      21.676  15.363  29.771  1.00  0.00    -0.266 N
ATOM     48  H11 UNL     1      23.120  14.715  31.131  1.00  0.00     0.210 HD
HETATM   49  C13 UNL     1      22.407  15.161  28.540  1.00  0.00     0.181 C
ENDBRANCH  40  41
ENDBRANCH  15  40
TORSDOF 12
ENDMDL