MODEL 1
REMARK VINA RESULT: -7.958262076      0.000      0.000
REMARK  16 active torsions:
REMARK  status: ('A' for Active; 'I' for Inactive)
REMARK    1  A    between atoms: N1_1  and  N2_4
REMARK    2  A    between atoms: N2_4  and  C1_6
REMARK    3  A    between atoms: C1_6  and  O1_7
REMARK    4  A    between atoms: C1_6  and  C2_9
REMARK    5  A    between atoms: C3_10  and  N3_11
REMARK    6  A    between atoms: N3_11  and  C4_13
REMARK    7  A    between atoms: C5_15  and  C6_16
REMARK    8  A    between atoms: C6_16  and  O3_17
REMARK    9  A    between atoms: C6_16  and  N4_19
REMARK   10  A    between atoms: C10_24  and  O4_25
REMARK   11  A    between atoms: C11_28  and  O5_29
REMARK   12  A    between atoms: N6_32  and  C13_33
REMARK   13  A    between atoms: C13_33  and  C14_34
REMARK   14  A    between atoms: C14_34  and  O6_35
REMARK   15  A    between atoms: O6_35  and  N7_36
REMARK       I    between atoms: N7_36  and  C15_38
REMARK   16  A    between atoms: C15_38  and  C16_40
ROOT
HETATM    1  C2  UNL     1      15.849  13.090  27.124  1.00  0.00     0.115 A
HETATM    2  C3  UNL     1      16.436  13.442  28.348  1.00  0.00     0.082 A
HETATM    3  C5  UNL     1      17.728  13.930  28.035  1.00  0.00     0.061 A
HETATM    4  C12 UNL     1      17.824  13.842  26.686  1.00  0.00     0.109 A
HETATM    5  N6  UNL     1      16.665  13.326  26.131  1.00  0.00    -0.348 N
ENDROOT
BRANCH   3   6
HETATM    6  C6  UNL     1      18.639  14.370  29.033  1.00  0.00     0.170 C
BRANCH   6   7
HETATM    7  O3  UNL     1      18.976  13.416  29.914  1.00  0.00    -0.345 OA
ATOM      8  H3  UNL     1      18.606  13.547  30.780  1.00  0.00     0.219 HD
ENDBRANCH   6   7
BRANCH   6   9
HETATM    9  N4  UNL     1      19.292  15.583  29.336  1.00  0.00    -0.222 N
HETATM   10  S1  UNL     1      19.852  16.673  28.081  1.00  0.00     0.017 SA
HETATM   11  C7  UNL     1      20.520  17.880  29.066  1.00  0.00     0.103 A
HETATM   12  C8  UNL     1      21.187  19.121  29.087  1.00  0.00     0.043 A
HETATM   13  N5  UNL     1      20.296  17.417  30.279  1.00  0.00    -0.249 N
HETATM   14  C9  UNL     1      21.365  19.402  30.413  1.00  0.00     0.059 A
HETATM   15  C10 UNL     1      20.821  18.361  31.132  1.00  0.00     0.150 A
HETATM   16  C11 UNL     1      19.672  16.250  30.404  1.00  0.00     0.246 A
BRANCH  15  17
HETATM   17  O4  UNL     1      20.848  18.359  32.531  1.00  0.00    -0.346 OA
ATOM     18  H4  UNL     1      20.720  19.161  33.025  1.00  0.00     0.219 HD
ENDBRANCH  15  17
BRANCH  16  19
HETATM   19  O5  UNL     1      19.425  15.743  31.579  1.00  0.00    -0.331 OA
ATOM     20  H5  UNL     1      19.732  16.207  32.349  1.00  0.00     0.221 HD
ENDBRANCH  16  19
ENDBRANCH   6   9
ENDBRANCH   3   6
BRANCH   2  21
HETATM   21  N3  UNL     1      15.850  13.338  29.634  1.00  0.00    -0.332 N
ATOM     22  H3  UNL     1      15.461  12.451  29.957  1.00  0.00     0.168 HD
BRANCH  21  23
HETATM   23  C4  UNL     1      15.811  14.486  30.466  1.00  0.00     0.353 C
HETATM   24  O2  UNL     1      16.481  14.545  31.522  1.00  0.00    -0.283 OA
ENDBRANCH  21  23
ENDBRANCH   2  21
BRANCH   1  25
HETATM   25  C1  UNL     1      14.494  12.529  27.109  1.00  0.00     0.184 C
BRANCH  25  26
HETATM   26  N2  UNL     1      14.115  11.256  26.716  1.00  0.00    -0.285 N
ATOM     27  H2  UNL     1      14.469  10.417  27.174  1.00  0.00     0.188 HD
BRANCH  26  28
HETATM   28  N1  UNL     1      13.186  11.195  25.614  1.00  0.00    -0.343 N
ATOM     29  H12 UNL     1      13.343  11.728  24.759  1.00  0.00     0.176 HD
ATOM     30  H11 UNL     1      12.376  10.590  25.752  1.00  0.00     0.176 HD
ENDBRANCH  26  28
ENDBRANCH  25  26
BRANCH  25  31
HETATM   31  O1  UNL     1      13.523  13.296  27.510  1.00  0.00    -0.343 OA
ATOM     32  H1  UNL     1      13.260  13.176  28.414  1.00  0.00     0.219 HD
ENDBRANCH  25  31
ENDBRANCH   1  25
BRANCH   5  33
HETATM   33  C13 UNL     1      16.492  13.141  24.701  1.00  0.00     0.157 C
BRANCH  33  34
HETATM   34  C14 UNL     1      16.913  11.786  24.217  1.00  0.00     0.221 C
BRANCH  34  35
HETATM   35  O6  UNL     1      15.726  11.058  24.034  1.00  0.00    -0.276 OA
BRANCH  35  36
HETATM   36  N7  UNL     1      15.281  11.337  22.792  1.00  0.00    -0.226 N
HETATM   37  C15 UNL     1      14.204  10.593  22.269  1.00  0.00     0.341 C
HETATM   38  O7  UNL     1      13.675   9.677  22.969  1.00  0.00    -0.259 OA
ATOM     39  H7  UNL     1      15.716  12.076  22.240  1.00  0.00     0.198 HD
BRANCH  37  40
HETATM   40  C16 UNL     1      13.703  10.867  20.945  1.00  0.00     0.272 C
HETATM   41  O8  UNL     1      14.487  11.318  20.066  1.00  0.00    -0.640 OA
HETATM   42  O9  UNL     1      12.365  10.629  20.665  1.00  0.00    -0.640 OA
ENDBRANCH  37  40
ENDBRANCH  35  36
ENDBRANCH  34  35
ENDBRANCH  33  34
ENDBRANCH   5  33
TORSDOF 16
ENDMDL