MODEL 4
REMARK VINA RESULT: -6.663571513      2.445      5.731
REMARK  13 active torsions:
REMARK  status: ('A' for Active; 'I' for Inactive)
REMARK    1  A    between atoms: N1_2  and  C3_4
REMARK    2  A    between atoms: C4_7  and  N3_8
REMARK    3  A    between atoms: N5_13  and  C6_14
REMARK    4  A    between atoms: C6_14  and  C7_15
REMARK    5  A    between atoms: C7_15  and  O2_16
REMARK    6  A    between atoms: C8_18  and  N6_19
REMARK    7  A    between atoms: N9_29  and  C12_30
REMARK    8  A    between atoms: C12_30  and  C13_31
REMARK    9  A    between atoms: N11_37  and  C17_38
REMARK   10  A    between atoms: C17_38  and  C18_39
REMARK   11  A    between atoms: C18_39  and  O3_40
REMARK   12  A    between atoms: C18_39  and  C19_42
REMARK   13  A    between atoms: C19_42  and  O4_43
ROOT
HETATM    1  C3  UNL     1      18.572  14.046  28.872  1.00  0.00     0.149 A
HETATM    2  N2  UNL     1      19.248  13.617  27.784  1.00  0.00    -0.172 N
ATOM      3  H2  UNL     1      20.256  13.766  27.722  1.00  0.00     0.186 HD
HETATM    4  C4  UNL     1      18.606  12.997  26.784  1.00  0.00     0.722 A
HETATM    5  N7  UNL     1      17.283  12.779  26.815  1.00  0.00    -0.172 N
ATOM      6  H7  UNL     1      16.834  12.305  26.032  1.00  0.00     0.186 HD
HETATM    7  C9  UNL     1      16.545  13.175  27.860  1.00  0.00     0.155 A
HETATM    8  C10 UNL     1      17.200  13.817  28.906  1.00  0.00     0.123 A
HETATM    9  N8  UNL     1      16.243  14.076  29.814  1.00  0.00    -0.346 N
ATOM     10  H8  UNL     1      16.388  14.545  30.708  1.00  0.00     0.167 HD
HETATM   11  C11 UNL     1      15.073  13.623  29.359  1.00  0.00     0.185 A
HETATM   12  N9  UNL     1      15.259  13.051  28.121  1.00  0.00    -0.325 N
ENDROOT
BRANCH  12  13
HETATM   13  C12 UNL     1      14.120  12.527  27.391  1.00  0.00     0.158 C
BRANCH  13  14
HETATM   14  C13 UNL     1      14.406  11.186  26.828  1.00  0.00     0.119 C
HETATM   15  C14 UNL     1      13.874  10.078  27.694  1.00  0.00     0.140 C
HETATM   16  N10 UNL     1      13.134   9.061  26.970  1.00  0.00    -0.418 N
HETATM   17  C15 UNL     1      13.752   8.594  25.782  1.00  0.00     0.133 C
ATOM     18  H10 UNL     1      12.234   8.707  27.292  1.00  0.00     0.153 HD
HETATM   19  C16 UNL     1      14.251   9.712  24.903  1.00  0.00     0.141 C
HETATM   20  N11 UNL     1      14.160  11.013  25.443  1.00  0.00    -0.381 N
BRANCH  20  21
HETATM   21  C17 UNL     1      14.122  12.113  24.585  1.00  0.00     0.092 C
BRANCH  21  22
HETATM   22  C18 UNL     1      15.438  12.531  24.032  1.00  0.00     0.179 C
BRANCH  22  23
HETATM   23  O3  UNL     1      15.797  13.812  24.541  1.00  0.00    -0.388 OA
ATOM     24  H3  UNL     1      16.405  14.239  23.949  1.00  0.00     0.210 HD
ENDBRANCH  22  23
BRANCH  22  25
HETATM   25  C19 UNL     1      15.456  12.719  22.515  1.00  0.00     0.201 C
BRANCH  25  26
HETATM   26  O4  UNL     1      16.345  13.656  22.080  1.00  0.00    -0.398 OA
ATOM     27  H4  UNL     1      16.968  13.333  21.440  1.00  0.00     0.209 HD
ENDBRANCH  25  26
ENDBRANCH  22  25
ENDBRANCH  21  22
ENDBRANCH  20  21
ENDBRANCH  13  14
ENDBRANCH  12  13
BRANCH   4  28
HETATM   28  N3  UNL     1      19.391  12.563  25.657  1.00  0.00     0.094 N
HETATM   29  N4  UNL     1      20.198  11.521  25.647  1.00  0.00    -0.214 N
HETATM   30  C5  UNL     1      20.782  11.393  24.426  1.00  0.00     0.356 A
ATOM     31  H4  UNL     1      20.361  10.901  26.440  1.00  0.00     0.193 HD
HETATM   32  O1  UNL     1      21.597  10.498  24.107  1.00  0.00    -0.244 OA
HETATM   33  N5  UNL     1      20.295  12.404  23.696  1.00  0.00    -0.127 N
HETATM   34  C8  UNL     1      19.439  13.127  24.447  1.00  0.00     0.718 A
BRANCH  33  35
HETATM   35  C6  UNL     1      20.629  12.679  22.318  1.00  0.00     0.178 C
BRANCH  35  36
HETATM   36  C7  UNL     1      19.563  12.207  21.364  1.00  0.00     0.185 C
BRANCH  36  37
HETATM   37  O2  UNL     1      18.754  13.240  20.915  1.00  0.00    -0.399 OA
ATOM     38  H2  UNL     1      17.855  13.154  21.208  1.00  0.00     0.209 HD
ENDBRANCH  36  37
ENDBRANCH  35  36
ENDBRANCH  33  35
BRANCH  34  39
HETATM   39  N6  UNL     1      18.786  14.169  24.078  1.00  0.00    -0.232 N
ATOM     40  H62 UNL     1      18.108  14.692  24.632  1.00  0.00     0.174 HD
ATOM     41  H61 UNL     1      18.853  14.623  23.167  1.00  0.00     0.174 HD
ENDBRANCH  34  39
ENDBRANCH   4  28
BRANCH   1  42
HETATM   42  N1  UNL     1      19.223  14.707  29.936  1.00  0.00    -0.374 N
HETATM   43  C1  UNL     1      19.597  16.108  29.760  1.00  0.00     0.150 C
HETATM   44  C2  UNL     1      19.524  14.055  31.180  1.00  0.00     0.150 C
ENDBRANCH   1  42
TORSDOF 13
ENDMDL