MODEL 2
REMARK VINA RESULT: -7.666062882      1.179      1.210
REMARK  12 active torsions:
REMARK  status: ('A' for Active; 'I' for Inactive)
REMARK       I    between atoms: C2_2  and  N1_4
REMARK    1  A    between atoms: N1_4  and  C3_6
REMARK    2  A    between atoms: C5_8  and  O2_9
REMARK    3  A    between atoms: C5_8  and  N2_11
REMARK    4  A    between atoms: N2_11  and  C6_13
REMARK    5  A    between atoms: C6_13  and  C7_14
REMARK    6  A    between atoms: N6_20  and  N7_21
REMARK       I    between atoms: N7_21  and  C8_23
REMARK    7  A    between atoms: C8_23  and  C9_25
REMARK    8  A    between atoms: C9_25  and  N8_26
REMARK    9  A    between atoms: C10_30  and  N9_31
REMARK       I    between atoms: N9_31  and  C11_33
REMARK   10  A    between atoms: C11_33  and  C12_35
REMARK   11  A    between atoms: C12_35  and  C13_36
REMARK   12  A    between atoms: C13_36  and  N10_37
ROOT
HETATM    1  C3  UNL     1      19.385  13.227  25.515  1.00  0.00     0.129 A
HETATM    2  C4  UNL     1      17.979  13.002  25.273  1.00  0.00     0.087 A
HETATM    3  C5  UNL     1      17.050  14.057  25.561  1.00  0.00     0.152 C
HETATM    4  C10 UNL     1      17.573  11.869  24.621  1.00  0.00     0.079 A
HETATM    5  C14 UNL     1      18.561  10.976  24.208  1.00  0.00     0.140 A
HETATM    6  C15 UNL     1      18.163   9.782  23.517  1.00  0.00     0.107 C
HETATM    7  N11 UNL     1      17.862   8.814  22.955  1.00  0.00    -0.191 NA
HETATM    8  C16 UNL     1      19.882  11.210  24.442  1.00  0.00     0.272 A
HETATM    9  O5  UNL     1      20.795  10.396  24.065  1.00  0.00    -0.266 OA
HETATM   10  N12 UNL     1      20.300  12.343  25.103  1.00  0.00    -0.302 N
HETATM   11  C17 UNL     1      21.692  12.484  25.373  1.00  0.00     0.161 C
ENDROOT
BRANCH   4  12
HETATM   12  N9  UNL     1      16.224  11.465  24.367  1.00  0.00    -0.325 N
HETATM   13  C11 UNL     1      15.558  11.842  23.167  1.00  0.00     0.223 C
HETATM   14  O4  UNL     1      16.181  12.538  22.342  1.00  0.00    -0.273 OA
ATOM     15  H9  UNL     1      15.733  10.897  25.058  1.00  0.00     0.169 HD
BRANCH  13  16
HETATM   16  C12 UNL     1      14.176  11.436  22.883  1.00  0.00     0.130 C
BRANCH  16  17
HETATM   17  C13 UNL     1      14.116   9.933  22.719  1.00  0.00     0.238 C
BRANCH  17  18
HETATM   18  N10 UNL     1      15.030   9.607  21.633  1.00  0.00    -0.079 N
ATOM     19 3H10 UNL     1      15.774  10.293  21.508  1.00  0.00     0.274 HD
ATOM     20 2H10 UNL     1      15.631   8.808  21.835  1.00  0.00     0.274 HD
ATOM     21 1H10 UNL     1      14.452   9.481  20.803  1.00  0.00     0.274 HD
ENDBRANCH  17  18
ENDBRANCH  16  17
ENDBRANCH  13  16
ENDBRANCH   4  12
BRANCH   1  22
HETATM   22  N1  UNL     1      19.711  14.299  26.345  1.00  0.00    -0.312 N
HETATM   23  C2  UNL     1      20.151  14.521  27.611  1.00  0.00     0.219 C
HETATM   24  C1  UNL     1      20.121  15.920  28.197  1.00  0.00     0.117 C
HETATM   25  O1  UNL     1      20.606  13.679  28.400  1.00  0.00    -0.274 OA
ATOM     26  H1  UNL     1      19.578  15.183  25.854  1.00  0.00     0.170 HD
ENDBRANCH   1  22
BRANCH   3  27
HETATM   27  O2  UNL     1      17.595  15.185  25.931  1.00  0.00    -0.346 OA
ATOM     28  H2  UNL     1      16.993  15.917  26.004  1.00  0.00     0.219 HD
ENDBRANCH   3  27
BRANCH   3  29
HETATM   29  N2  UNL     1      15.666  14.152  25.537  1.00  0.00    -0.363 N
ATOM     30  H2  UNL     1      15.197  14.136  24.631  1.00  0.00     0.162 HD
BRANCH  29  31
HETATM   31  C6  UNL     1      14.839  14.276  26.743  1.00  0.00     0.203 C
BRANCH  31  32
HETATM   32  C7  UNL     1      14.509  13.016  27.388  1.00  0.00     0.153 A
HETATM   33  N3  UNL     1      13.916  11.943  26.867  1.00  0.00    -0.272 N
HETATM   34  N4  UNL     1      13.792  11.010  27.792  1.00  0.00    -0.223 N
ATOM     35  H3  UNL     1      13.605  11.855  25.899  1.00  0.00     0.189 HD
HETATM   36  N5  UNL     1      14.306  11.474  28.918  1.00  0.00     0.018 NA
ATOM     37  H4  UNL     1      13.373  10.089  27.660  1.00  0.00     0.205 HD
HETATM   38  N6  UNL     1      14.748  12.709  28.675  1.00  0.00    -0.161 N
BRANCH  38  39
HETATM   39  N7  UNL     1      15.346  13.526  29.613  1.00  0.00    -0.247 N
HETATM   40  C8  UNL     1      16.752  13.671  29.737  1.00  0.00     0.262 C
HETATM   41  O3  UNL     1      17.520  13.037  28.966  1.00  0.00    -0.270 OA
ATOM     42  H7  UNL     1      14.747  14.052  30.250  1.00  0.00     0.192 HD
BRANCH  40  43
HETATM   43  C9  UNL     1      17.369  14.556  30.764  1.00  0.00     0.333 C
BRANCH  43  44
HETATM   44  N8  UNL     1      18.759  14.250  30.971  1.00  0.00    -0.071 N
ATOM     45  H83 UNL     1      19.025  13.390  30.492  1.00  0.00     0.274 HD
ATOM     46  H82 UNL     1      19.361  14.904  30.471  1.00  0.00     0.274 HD
ATOM     47  H81 UNL     1      18.996  14.211  31.962  1.00  0.00     0.274 HD
ENDBRANCH  43  44
ENDBRANCH  40  43
ENDBRANCH  38  39
ENDBRANCH  31  32
ENDBRANCH  29  31
ENDBRANCH   3  29
TORSDOF 12
ENDMDL