MODEL 2
REMARK VINA RESULT: -9.393758537      1.698      2.197
REMARK  13 active torsions:
REMARK  status: ('A' for Active; 'I' for Inactive)
REMARK    1  A    between atoms: C2_2  and  C3_3
REMARK    2  A    between atoms: N1_5  and  C5_6
REMARK    3  A    between atoms: C7_10  and  C8_11
REMARK    4  A    between atoms: C8_11  and  O1_12
REMARK    5  A    between atoms: N3_16  and  C10_17
REMARK    6  A    between atoms: C10_17  and  C11_18
REMARK       I    between atoms: C11_18  and  N4_20
REMARK    7  A    between atoms: N4_20  and  C12_21
REMARK    8  A    between atoms: C12_21  and  C13_22
REMARK    9  A    between atoms: C13_22  and  O4_23
REMARK   10  A    between atoms: C13_22  and  N5_25
REMARK   11  A    between atoms: N5_25  and  C14_27
REMARK   12  A    between atoms: C14_27  and  C15_28
REMARK   13  A    between atoms: C17_40  and  N11_41
ROOT
HETATM    1  C5  UNL     1      14.721  11.008  21.962  1.00  0.00     0.706 A
HETATM    2  N2  UNL     1      15.848  10.408  22.245  1.00  0.00    -0.187 N
ATOM      3  H2  UNL     1      16.144   9.571  21.742  1.00  0.00     0.184 HD
HETATM    4  C6  UNL     1      16.609  10.941  23.233  1.00  0.00     0.095 A
HETATM    5  C7  UNL     1      17.823  10.396  23.522  1.00  0.00     0.064 A
HETATM    6  C9  UNL     1      18.592  10.959  24.514  1.00  0.00     0.273 A
HETATM    7  O2  UNL     1      19.682  10.370  24.710  1.00  0.00    -0.266 OA
HETATM    8  N3  UNL     1      18.239  12.051  25.233  1.00  0.00    -0.246 N
HETATM    9  N10 UNL     1      17.056  12.595  24.919  1.00  0.00    -0.290 N
ATOM     10  H10 UNL     1      16.748  13.428  25.420  1.00  0.00     0.187 HD
HETATM   11  C16 UNL     1      16.270  12.086  23.975  1.00  0.00     0.120 A
HETATM   12  C17 UNL     1      15.048  12.677  23.614  1.00  0.00     0.145 A
HETATM   13  N12 UNL     1      14.309  12.143  22.627  1.00  0.00    -0.173 N
ATOM     14  H12 UNL     1      13.429  12.585  22.365  1.00  0.00     0.186 HD
ENDROOT
BRANCH   8  15
HETATM   15  C10 UNL     1      18.956  12.411  26.428  1.00  0.00     0.271 C
BRANCH  15  16
HETATM   16  C11 UNL     1      18.480  13.766  26.923  1.00  0.00     0.311 C
HETATM   17  O3  UNL     1      18.857  14.724  26.311  1.00  0.00    -0.255 OA
HETATM   18  N4  UNL     1      17.659  13.758  28.074  1.00  0.00    -0.378 NA
BRANCH  18  19
HETATM   19  C12 UNL     1      16.859  13.754  29.198  1.00  0.00     0.241 C
BRANCH  19  20
HETATM   20  C13 UNL     1      15.544  13.168  28.926  1.00  0.00     0.165 C
BRANCH  20  21
HETATM   21  O4  UNL     1      14.645  13.321  29.913  1.00  0.00    -0.344 OA
ATOM     22  H4  UNL     1      13.758  13.490  29.620  1.00  0.00     0.219 HD
ENDBRANCH  20  21
BRANCH  20  23
HETATM   23  N5  UNL     1      14.994  12.477  27.861  1.00  0.00    -0.362 N
ATOM     24  H5  UNL     1      15.096  12.786  26.894  1.00  0.00     0.162 HD
BRANCH  23  25
HETATM   25  C14 UNL     1      14.278  11.307  28.217  1.00  0.00     0.201 C
BRANCH  25  26
HETATM   26  C15 UNL     1      13.813  10.405  27.161  1.00  0.00     0.131 A
HETATM   27  N6  UNL     1      13.480   9.105  27.454  1.00  0.00    -0.271 N
HETATM   28  N7  UNL     1      13.078   8.592  26.362  1.00  0.00    -0.227 N
ATOM     29  H6  UNL     1      13.543   8.645  28.362  1.00  0.00     0.190 HD
HETATM   30  N8  UNL     1      13.123   9.444  25.378  1.00  0.00    -0.227 N
ATOM     31  H7  UNL     1      12.757   7.628  26.268  1.00  0.00     0.210 HD
HETATM   32  N9  UNL     1      13.587  10.599  25.872  1.00  0.00    -0.271 N
ATOM     33  H8  UNL     1      12.854   9.265  24.410  1.00  0.00     0.210 HD
ATOM     34  H9  UNL     1      13.738  11.465  25.353  1.00  0.00     0.190 HD
ENDBRANCH  25  26
ENDBRANCH  23  25
ENDBRANCH  20  23
ENDBRANCH  19  20
ENDBRANCH  18  19
ENDBRANCH  15  16
ENDBRANCH   8  15
BRANCH   5  35
HETATM   35  C8  UNL     1      18.261   9.098  22.890  1.00  0.00     0.211 C
BRANCH  35  36
HETATM   36  O1  UNL     1      17.571   8.121  23.637  1.00  0.00    -0.396 OA
ATOM     37  H1  UNL     1      18.158   7.375  23.619  1.00  0.00     0.209 HD
ENDBRANCH  35  36
ENDBRANCH   5  35
BRANCH  12  38
HETATM   38  N11 UNL     1      14.666  13.737  24.196  1.00  0.00    -0.383 N
ATOM     39 2H11 UNL     1      14.731  13.818  25.211  1.00  0.00     0.157 HD
ATOM     40 1H11 UNL     1      14.264  14.498  23.649  1.00  0.00     0.157 HD
ENDBRANCH  12  38
BRANCH   1  41
HETATM   41  N1  UNL     1      13.825  10.548  20.937  1.00  0.00    -0.081 N
HETATM   42  C4  UNL     1      12.487  10.736  20.990  1.00  0.00     0.163 A
HETATM   43  C3  UNL     1      11.932  10.276  19.808  1.00  0.00     0.045 A
HETATM   44  N14 UNL     1      12.976   9.813  19.086  1.00  0.00    -0.288 N
HETATM   45  N13 UNL     1      14.095   9.978  19.756  1.00  0.00    -0.222 N
ATOM     46  H14 UNL     1      12.907   9.398  18.157  1.00  0.00     0.188 HD
ATOM     47  H13 UNL     1      15.023   9.713  19.428  1.00  0.00     0.209 HD
BRANCH  43  48
HETATM   48  C2  UNL     1      10.488  10.366  19.476  1.00  0.00     0.055 C
HETATM   49  C1  UNL     1      10.172   9.312  18.377  1.00  0.00     0.011 C
ENDBRANCH  43  48
ENDBRANCH   1  41
TORSDOF 13
ENDMDL