MODEL 2
REMARK VINA RESULT: -7.681566546      3.191      6.265
REMARK  18 active torsions:
REMARK  status: ('A' for Active; 'I' for Inactive)
REMARK    1  A    between atoms: C2_2  and  N1_3
REMARK    2  A    between atoms: C2_2  and  C3_7
REMARK    3  A    between atoms: C3_7  and  O1_8
REMARK    4  A    between atoms: O1_8  and  N2_9
REMARK    5  A    between atoms: C4_11  and  N3_12
REMARK    6  A    between atoms: C4_11  and  O6_33
REMARK       I    between atoms: N3_12  and  C5_14
REMARK       I    between atoms: C5_14  and  N4_16
REMARK    7  A    between atoms: N4_16  and  N5_17
REMARK    8  A    between atoms: N4_16  and  C6_21
REMARK    9  A    between atoms: N5_17  and  O3_19
REMARK   10  A    between atoms: C6_21  and  O4_22
REMARK   11  A    between atoms: C6_21  and  N6_24
REMARK   12  A    between atoms: C11_29  and  C12_30
REMARK   13  A    between atoms: O6_33  and  C13_34
REMARK   14  A    between atoms: C13_34  and  O7_35
REMARK   15  A    between atoms: O7_35  and  C14_36
REMARK   16  A    between atoms: C14_36  and  C15_38
REMARK   17  A    between atoms: C15_38  and  O9_39
REMARK   18  A    between atoms: C15_38  and  C16_41
ROOT
HETATM    1  N2  UNL     1      14.600  10.332  21.032  1.00  0.00    -0.230 N
ATOM      2  H2  UNL     1      15.068  10.041  20.173  1.00  0.00     0.198 HD
HETATM    3  C4  UNL     1      15.089   9.947  22.166  1.00  0.00     0.249 C
ENDROOT
BRANCH   3   4
HETATM    4  N3  UNL     1      14.438  10.350  23.353  1.00  0.00    -0.271 N
HETATM    5  C5  UNL     1      14.784  11.588  24.002  1.00  0.00     0.353 C
HETATM    6  O2  UNL     1      15.675  12.333  23.521  1.00  0.00    -0.244 OA
HETATM    7  N4  UNL     1      14.129  11.994  25.195  1.00  0.00    -0.147 N
ATOM      8  H3  UNL     1      13.713   9.756  23.756  1.00  0.00     0.174 HD
BRANCH   7   9
HETATM    9  N5  UNL     1      13.155  11.156  25.688  1.00  0.00    -0.196 N
ATOM     10  H5  UNL     1      12.198  11.506  25.754  1.00  0.00     0.216 HD
BRANCH   9  11
HETATM   11  O3  UNL     1      13.391   9.978  26.060  1.00  0.00    -0.274 OA
ATOM     12  H3  UNL     1      13.916   9.774  26.824  1.00  0.00     0.246 HD
ENDBRANCH   9  11
ENDBRANCH   7   9
BRANCH   7  13
HETATM   13  C6  UNL     1      14.490  13.196  25.814  1.00  0.00     0.247 C
BRANCH  13  14
HETATM   14  O4  UNL     1      13.672  14.216  25.633  1.00  0.00    -0.331 OA
ATOM     15  H4  UNL     1      13.733  14.663  24.797  1.00  0.00     0.221 HD
ENDBRANCH  13  14
BRANCH  13  16
HETATM   16  N6  UNL     1      15.600  13.516  26.611  1.00  0.00    -0.333 N
HETATM   17  C7  UNL     1      16.731  14.288  26.250  1.00  0.00     0.127 C
HETATM   18  C8  UNL     1      18.047  13.553  26.496  1.00  0.00     0.020 C
HETATM   19  C9  UNL     1      18.101  12.998  27.901  1.00  0.00     0.004 C
HETATM   20  C10 UNL     1      16.855  12.240  28.214  1.00  0.00     0.035 C
HETATM   21  C11 UNL     1      15.595  12.991  27.992  1.00  0.00     0.177 C
BRANCH  21  22
HETATM   22  C12 UNL     1      15.392  14.045  28.992  1.00  0.00     0.254 C
HETATM   23  N7  UNL     1      14.516  15.157  28.717  1.00  0.00    -0.060 NA
HETATM   24  O5  UNL     1      15.932  14.084  30.130  1.00  0.00    -0.275 OA
ENDBRANCH  21  22
ENDBRANCH  13  16
ENDBRANCH   7  13
ENDBRANCH   3   4
BRANCH   3  25
HETATM   25  O6  UNL     1      16.219   9.163  22.131  1.00  0.00    -0.294 OA
BRANCH  25  26
HETATM   26  C13 UNL     1      17.150   9.158  23.220  1.00  0.00     0.358 C
BRANCH  26  27
HETATM   27  O7  UNL     1      18.360   8.559  22.862  1.00  0.00    -0.293 OA
BRANCH  27  28
HETATM   28  C14 UNL     1      18.776   7.454  23.588  1.00  0.00     0.300 C
HETATM   29  O8  UNL     1      17.907   6.712  24.154  1.00  0.00    -0.262 OA
BRANCH  28  30
HETATM   30  C15 UNL     1      20.239   7.124  23.715  1.00  0.00     0.319 C
BRANCH  30  31
HETATM   31  O9  UNL     1      20.635   6.431  22.590  1.00  0.00    -0.376 OA
ATOM     32  H9  UNL     1      21.437   5.961  22.789  1.00  0.00     0.211 HD
ENDBRANCH  30  31
BRANCH  30  33
HETATM   33  C16 UNL     1      20.947   8.401  23.886  1.00  0.00     0.213 C
HETATM   34  O10 UNL     1      20.739   9.102  24.897  1.00  0.00    -0.646 OA
HETATM   35  O11 UNL     1      21.839   8.824  22.932  1.00  0.00    -0.646 OA
ENDBRANCH  30  33
ENDBRANCH  28  30
ENDBRANCH  27  28
ENDBRANCH  26  27
ENDBRANCH  25  26
ENDBRANCH   3  25
BRANCH   1  36
HETATM   36  O1  UNL     1      13.482  11.113  20.939  1.00  0.00    -0.275 OA
BRANCH  36  37
HETATM   37  C3  UNL     1      12.228  10.465  20.971  1.00  0.00     0.233 C
BRANCH  37  38
HETATM   38  C2  UNL     1      11.635  10.355  19.570  1.00  0.00     0.205 C
HETATM   39  C1  UNL     1      10.130  10.485  19.731  1.00  0.00     0.042 C
BRANCH  38  40
HETATM   40  N1  UNL     1      12.017   9.134  18.932  1.00  0.00    -0.073 N
ATOM     41  H13 UNL     1      12.691   8.619  19.498  1.00  0.00     0.274 HD
ATOM     42  H12 UNL     1      11.250   8.461  18.939  1.00  0.00     0.274 HD
ATOM     43  H11 UNL     1      12.368   9.279  17.985  1.00  0.00     0.274 HD
ENDBRANCH  38  40
ENDBRANCH  37  38
ENDBRANCH  36  37
ENDBRANCH   1  36
TORSDOF 18
ENDMDL