MODEL 2
REMARK VINA RESULT: -7.500553720      1.868      2.453
REMARK  14 active torsions:
REMARK  status: ('A' for Active; 'I' for Inactive)
REMARK    1  A    between atoms: C2_3  and  O1_4
REMARK    2  A    between atoms: N2_7  and  O2_8
REMARK    3  A    between atoms: C4_10  and  S1_11
REMARK    4  A    between atoms: S1_11  and  S2_12
REMARK    5  A    between atoms: S2_12  and  C5_13
REMARK    6  A    between atoms: C5_13  and  C6_14
REMARK    7  A    between atoms: C8_19  and  N5_20
REMARK    8  A    between atoms: N7_27  and  C10_28
REMARK    9  A    between atoms: C10_28  and  C11_29
REMARK   10  A    between atoms: C11_29  and  O4_30
REMARK   11  A    between atoms: O4_30  and  C12_31
REMARK   12  A    between atoms: C12_31  and  C13_32
REMARK   13  A    between atoms: C13_32  and  O5_33
REMARK   14  A    between atoms: C15_37  and  O7_39
ROOT
HETATM    1  C6  UNL     1      16.157  12.604  25.385  1.00  0.00     0.166 C
HETATM    2  N3  UNL     1      15.263  11.549  25.395  1.00  0.00    -0.122 N
HETATM    3  C7  UNL     1      15.172  10.610  24.451  1.00  0.00     0.708 A
HETATM    4  N4  UNL     1      14.323   9.537  24.508  1.00  0.00    -0.022 N
ATOM      5  H4  UNL     1      14.306   8.853  23.753  1.00  0.00     0.203 HD
HETATM    6  C8  UNL     1      13.515   9.397  25.566  1.00  0.00     0.694 A
HETATM    7  N6  UNL     1      13.569  10.322  26.534  1.00  0.00    -0.140 N
ATOM      8  H6  UNL     1      12.958  10.230  27.345  1.00  0.00     0.189 HD
HETATM    9  C9  UNL     1      14.408  11.366  26.463  1.00  0.00     0.355 A
HETATM   10  O3  UNL     1      14.479  12.245  27.331  1.00  0.00    -0.245 OA
HETATM   11  N7  UNL     1      15.889  10.764  23.203  1.00  0.00    -0.145 N
HETATM   12  C14 UNL     1      16.659  11.964  23.084  1.00  0.00     0.274 C
HETATM   13  O6  UNL     1      16.822  12.460  21.963  1.00  0.00    -0.269 OA
HETATM   14  C15 UNL     1      17.216  12.535  24.320  1.00  0.00     0.158 C
HETATM   15  C16 UNL     1      18.418  11.678  24.690  1.00  0.00     0.059 C
ENDROOT
BRANCH   1  16
HETATM   16  C5  UNL     1      16.856  13.043  26.645  1.00  0.00     0.116 C
BRANCH  16  17
HETATM   17  S2  UNL     1      16.984  14.741  27.016  1.00  0.00    -0.087 SA
BRANCH  17  18
HETATM   18  S1  UNL     1      18.716  15.617  27.661  1.00  0.00    -0.019 SA
BRANCH  18  19
HETATM   19  C4  UNL     1      19.210  15.264  29.308  1.00  0.00     0.185 A
HETATM   20  N1  UNL     1      20.418  15.567  29.858  1.00  0.00    -0.309 N
HETATM   21  C1  UNL     1      21.473  16.268  29.143  1.00  0.00     0.160 C
HETATM   22  C2  UNL     1      20.510  15.147  31.111  1.00  0.00     0.162 A
HETATM   23  C3  UNL     1      19.330  14.547  31.405  1.00  0.00     0.181 A
HETATM   24  N2  UNL     1      18.553  14.635  30.277  1.00  0.00    -0.208 N
BRANCH  22  25
HETATM   25  O1  UNL     1      21.594  15.286  31.965  1.00  0.00    -0.345 OA
ATOM     26  H1  UNL     1      21.593  15.206  32.912  1.00  0.00     0.219 HD
ENDBRANCH  22  25
BRANCH  24  27
HETATM   27  O2  UNL     1      17.297  14.083  30.296  1.00  0.00    -0.281 OA
ATOM     28  H2  UNL     1      17.183  13.223  30.682  1.00  0.00     0.245 HD
ENDBRANCH  24  27
ENDBRANCH  18  19
ENDBRANCH  17  18
ENDBRANCH  16  17
ENDBRANCH   1  16
BRANCH  14  29
HETATM   29  O7  UNL     1      17.634  13.859  24.075  1.00  0.00    -0.378 OA
ATOM     30  H7  UNL     1      17.195  14.143  23.281  1.00  0.00     0.211 HD
ENDBRANCH  14  29
BRANCH  11  31
HETATM   31  C10 UNL     1      15.792   9.762  22.199  1.00  0.00     0.177 C
BRANCH  31  32
HETATM   32  C11 UNL     1      14.941  10.238  21.005  1.00  0.00     0.188 C
BRANCH  32  33
HETATM   33  O4  UNL     1      13.661  10.388  21.454  1.00  0.00    -0.387 OA
BRANCH  33  34
HETATM   34  C12 UNL     1      12.746  11.050  20.732  1.00  0.00     0.193 C
BRANCH  34  35
HETATM   35  C13 UNL     1      11.653  10.272  20.056  1.00  0.00     0.190 C
BRANCH  35  36
HETATM   36  O5  UNL     1      12.163   9.512  19.029  1.00  0.00    -0.399 OA
ATOM     37  H5  UNL     1      12.980   9.102  19.288  1.00  0.00     0.209 HD
ENDBRANCH  35  36
ENDBRANCH  34  35
ENDBRANCH  33  34
ENDBRANCH  32  33
ENDBRANCH  31  32
ENDBRANCH  11  31
BRANCH   6  38
HETATM   38  N5  UNL     1      12.689   8.407  25.684  1.00  0.00    -0.234 N
ATOM     39  H52 UNL     1      11.786   8.564  26.130  1.00  0.00     0.174 HD
ATOM     40  H51 UNL     1      12.905   7.469  25.346  1.00  0.00     0.174 HD
ENDBRANCH   6  38
TORSDOF 14
ENDMDL