MODEL 5
REMARK VINA RESULT: -5.983778415      2.605      5.482
REMARK  7 active torsions:
REMARK  status: ('A' for Active; 'I' for Inactive)
REMARK       I    between atoms: N1_1  and  C1_5
REMARK       I    between atoms: C1_5  and  N2_6
REMARK       I    between atoms: C1_5  and  N3_10
REMARK    1  A    between atoms: N3_10  and  C2_13
REMARK    2  A    between atoms: C2_13  and  C3_14
REMARK    3  A    between atoms: C3_14  and  C4_15
REMARK    4  A    between atoms: C4_15  and  C5_16
REMARK    5  A    between atoms: C5_16  and  C6_17
REMARK    6  A    between atoms: C6_17  and  C7_18
REMARK    7  A    between atoms: C8_21  and  N6_22
ROOT
HETATM    1  C6  UNL     1      22.370  29.884  40.642  1.00  0.00     0.056 C
ENDROOT
BRANCH   1   2
HETATM    2  C5  UNL     1      23.329  30.933  40.278  1.00  0.00     0.004 C
BRANCH   2   3
HETATM    3  C4  UNL     1      24.788  30.630  40.419  1.00  0.00     0.002 C
BRANCH   3   4
HETATM    4  C3  UNL     1      25.365  30.063  39.126  1.00  0.00     0.027 C
BRANCH   4   5
HETATM    5  C2  UNL     1      26.100  28.786  39.468  1.00  0.00     0.237 C
BRANCH   5   6
HETATM    6  N3  UNL     1      25.278  27.857  40.185  1.00  0.00    -0.022 N
HETATM    7  C1  UNL     1      25.333  26.578  39.504  1.00  0.00     0.575 C
HETATM    8  N1  UNL     1      24.849  26.685  38.141  1.00  0.00    -0.026 N
HETATM    9  N2  UNL     1      24.529  25.571  40.164  1.00  0.00    -0.026 N
ATOM     10  H13 UNL     1      24.842  25.792  37.648  1.00  0.00     0.278 HD
ATOM     11  H12 UNL     1      23.847  26.873  38.085  1.00  0.00     0.278 HD
ATOM     12  H11 UNL     1      25.416  27.394  37.676  1.00  0.00     0.278 HD
ATOM     13  H23 UNL     1      23.527  25.759  40.108  1.00  0.00     0.278 HD
ATOM     14  H22 UNL     1      24.522  24.678  39.671  1.00  0.00     0.278 HD
ATOM     15  H21 UNL     1      24.869  25.495  41.123  1.00  0.00     0.278 HD
ATOM     16  H32 UNL     1      24.323  28.194  40.312  1.00  0.00     0.281 HD
ATOM     17  H31 UNL     1      25.532  27.787  41.170  1.00  0.00     0.281 HD
ENDBRANCH   5   6
ENDBRANCH   4   5
ENDBRANCH   3   4
ENDBRANCH   2   3
ENDBRANCH   1   2
BRANCH   1  18
HETATM   18  C7  UNL     1      21.741  29.027  39.629  1.00  0.00     0.155 C
HETATM   19  N4  UNL     1      22.130  27.602  39.883  1.00  0.00    -0.107 NA
HETATM   20  N5  UNL     1      22.172  27.387  41.245  1.00  0.00    -0.091 NA
HETATM   21  C8  UNL     1      20.962  26.812  41.783  1.00  0.00     0.392 C
HETATM   22  N7  UNL     1      19.814  27.646  41.659  1.00  0.00    -0.358 N
HETATM   23  C9  UNL     1      19.469  28.416  40.488  1.00  0.00     0.102 C
ATOM     24  H7  UNL     1      19.186  27.703  42.461  1.00  0.00     0.162 HD
HETATM   25  C10 UNL     1      20.245  29.008  39.614  1.00  0.00     0.070 C
HETATM   26  C11 UNL     1      20.316  29.773  38.417  1.00  0.00     0.254 C
HETATM   27  O1  UNL     1      19.475  30.481  37.761  1.00  0.00    -0.268 OA
HETATM   28  N8  UNL     1      21.695  29.406  38.283  1.00  0.00    -0.328 N
ATOM     29  H8  UNL     1      22.369  29.417  37.517  1.00  0.00     0.165 HD
BRANCH  21  30
HETATM   30  N6  UNL     1      20.789  25.522  41.113  1.00  0.00    -0.043 N
ATOM     31  H63 UNL     1      19.942  25.469  40.548  1.00  0.00     0.278 HD
ATOM     32  H62 UNL     1      21.455  25.364  40.357  1.00  0.00     0.278 HD
ATOM     33  H61 UNL     1      20.831  24.812  41.845  1.00  0.00     0.278 HD
ENDBRANCH  21  30
ENDBRANCH   1  18
TORSDOF 7
ENDMDL