MODEL 1
REMARK VINA RESULT: -5.690047648      0.000      0.000
REMARK  13 active torsions:
REMARK  status: ('A' for Active; 'I' for Inactive)
REMARK    1  A    between atoms: N1_1  and  C1_5
REMARK    2  A    between atoms: C1_5  and  C2_6
REMARK    3  A    between atoms: C2_6  and  C3_7
REMARK    4  A    between atoms: C3_7  and  C4_8
REMARK    5  A    between atoms: C4_8  and  N2_9
REMARK    6  A    between atoms: N2_9  and  C5_11
REMARK    7  A    between atoms: C5_11  and  C6_12
REMARK    8  A    between atoms: C6_12  and  N3_13
REMARK    9  A    between atoms: C7_18  and  N4_19
REMARK   10  A    between atoms: C8_23  and  O2_24
REMARK   11  A    between atoms: C9_26  and  O3_27
REMARK   12  A    between atoms: C10_29  and  O4_30
REMARK   13  A    between atoms: C11_32  and  N5_33
ROOT
HETATM    1  C4  UNL     1      22.807  29.097  40.399  1.00  0.00     0.164 C
HETATM    2  O1  UNL     1      21.935  28.628  41.314  1.00  0.00    -0.324 OA
HETATM    3  C7  UNL     1      20.784  29.234  41.641  1.00  0.00     0.352 C
HETATM    4  C8  UNL     1      19.637  29.111  40.696  1.00  0.00     0.205 C
HETATM    5  C9  UNL     1      19.847  28.871  39.288  1.00  0.00     0.182 C
HETATM    6  C10 UNL     1      21.077  29.290  38.578  1.00  0.00     0.184 C
HETATM    7  C11 UNL     1      22.361  28.669  39.064  1.00  0.00     0.269 C
ENDROOT
BRANCH   1   8
HETATM    8  C3  UNL     1      23.175  30.559  40.503  1.00  0.00     0.065 C
BRANCH   8   9
HETATM    9  C2  UNL     1      24.559  30.722  39.910  1.00  0.00     0.032 C
BRANCH   9  10
HETATM   10  C1  UNL     1      25.224  31.894  40.635  1.00  0.00     0.230 C
BRANCH  10  11
HETATM   11  N1  UNL     1      25.972  32.707  39.688  1.00  0.00    -0.079 N
ATOM     12  H13 UNL     1      26.636  32.151  39.149  1.00  0.00     0.274 HD
ATOM     13  H12 UNL     1      25.388  33.030  38.918  1.00  0.00     0.274 HD
ATOM     14  H11 UNL     1      26.427  33.480  40.173  1.00  0.00     0.274 HD
ENDBRANCH  10  11
ENDBRANCH   9  10
ENDBRANCH   8   9
ENDBRANCH   1   8
BRANCH   1  15
HETATM   15  N2  UNL     1      24.080  28.476  40.719  1.00  0.00    -0.388 N
ATOM     16  H2  UNL     1      24.956  28.870  40.374  1.00  0.00     0.156 HD
BRANCH  15  17
HETATM   17  C5  UNL     1      24.073  27.312  41.519  1.00  0.00     0.144 C
BRANCH  17  18
HETATM   18  C6  UNL     1      25.195  26.399  40.971  1.00  0.00     0.248 C
BRANCH  18  19
HETATM   19  N3  UNL     1      25.679  26.886  39.699  1.00  0.00    -0.078 N
ATOM     20  H33 UNL     1      24.914  27.179  39.092  1.00  0.00     0.274 HD
ATOM     21  H32 UNL     1      26.152  27.785  39.795  1.00  0.00     0.274 HD
ATOM     22  H31 UNL     1      26.276  26.193  39.248  1.00  0.00     0.274 HD
ENDBRANCH  18  19
ENDBRANCH  17  18
ENDBRANCH  15  17
ENDBRANCH   1  15
BRANCH   7  23
HETATM   23  N5  UNL     1      22.055  27.249  39.112  1.00  0.00    -0.068 N
ATOM     24  H53 UNL     1      21.711  26.893  38.220  1.00  0.00     0.275 HD
ATOM     25  H52 UNL     1      22.893  26.670  39.180  1.00  0.00     0.275 HD
ATOM     26  H51 UNL     1      21.402  27.083  39.877  1.00  0.00     0.275 HD
ENDBRANCH   7  23
BRANCH   3  27
HETATM   27  N4  UNL     1      20.904  30.579  42.190  1.00  0.00    -0.050 N
ATOM     28  H43 UNL     1      20.563  30.592  43.151  1.00  0.00     0.277 HD
ATOM     29  H42 UNL     1      21.887  30.804  42.342  1.00  0.00     0.277 HD
ATOM     30  H41 UNL     1      20.456  31.322  41.654  1.00  0.00     0.277 HD
ENDBRANCH   3  27
BRANCH   6  31
HETATM   31  O4  UNL     1      21.143  30.646  38.303  1.00  0.00    -0.391 OA
ATOM     32  H4  UNL     1      21.609  31.155  38.955  1.00  0.00     0.210 HD
ENDBRANCH   6  31
BRANCH   4  33
HETATM   33  O2  UNL     1      18.855  30.284  40.882  1.00  0.00    -0.389 OA
ATOM     34  H2  UNL     1      19.271  30.957  40.356  1.00  0.00     0.210 HD
ENDBRANCH   4  33
BRANCH   5  35
HETATM   35  O3  UNL     1      19.595  27.515  38.938  1.00  0.00    -0.390 OA
ATOM     36  H3  UNL     1      20.277  27.162  38.380  1.00  0.00     0.210 HD
ENDBRANCH   5  35
TORSDOF 13
ENDMDL