MODEL 2
REMARK VINA RESULT: -6.260117819      1.506      2.306
REMARK  12 active torsions:
REMARK  status: ('A' for Active; 'I' for Inactive)
REMARK    1  A    between atoms: N1_1  and  N2_4
REMARK    2  A    between atoms: N2_4  and  C1_5
REMARK    3  A    between atoms: C2_9  and  N4_10
REMARK    4  A    between atoms: N4_10  and  C3_12
REMARK    5  A    between atoms: C4_13  and  O1_14
REMARK    6  A    between atoms: N5_16  and  C5_17
REMARK    7  A    between atoms: C5_17  and  C6_18
REMARK    8  A    between atoms: C6_18  and  N6_19
REMARK    9  A    between atoms: N6_19  and  N7_20
REMARK   10  A    between atoms: N6_19  and  C7_23
REMARK   11  A    between atoms: C7_23  and  C8_24
REMARK   12  A    between atoms: C8_24  and  O2_25
ROOT
HETATM    1  C3  UNL     1      23.060  29.197  40.170  1.00  0.00     0.152 A
HETATM    2  C4  UNL     1      22.952  28.058  39.535  1.00  0.00     0.178 A
HETATM    3  N5  UNL     1      22.394  27.442  40.687  1.00  0.00    -0.286 N
HETATM    4  C9  UNL     1      22.509  28.688  41.389  1.00  0.00     0.281 A
HETATM    5  O3  UNL     1      22.259  29.156  42.524  1.00  0.00    -0.265 OA
ENDROOT
BRANCH   1   6
HETATM    6  N4  UNL     1      23.573  30.466  39.713  1.00  0.00    -0.333 N
ATOM      7  H4  UNL     1      23.267  30.872  38.829  1.00  0.00     0.164 HD
BRANCH   6   8
HETATM    8  C2  UNL     1      24.539  31.146  40.554  1.00  0.00     0.436 C
HETATM    9  N3  UNL     1      25.211  32.244  39.918  1.00  0.00     0.012 N
HETATM   10  C1  UNL     1      26.231  31.269  39.610  1.00  0.00     0.445 C
ATOM     11  H32 UNL     1      25.419  33.115  40.407  1.00  0.00     0.287 HD
ATOM     12  H31 UNL     1      24.765  32.813  39.198  1.00  0.00     0.287 HD
HETATM   13  O4  UNL     1      25.744  30.458  40.607  1.00  0.00    -0.296 OA
BRANCH  10  14
HETATM   14  N2  UNL     1      27.560  31.807  39.851  1.00  0.00    -0.087 NA
BRANCH  14  15
HETATM   15  N1  UNL     1      28.505  30.853  39.413  1.00  0.00    -0.344 N
ATOM     16  H12 UNL     1      28.561  30.470  38.469  1.00  0.00     0.172 HD
ATOM     17  H11 UNL     1      29.110  30.622  40.201  1.00  0.00     0.172 HD
ENDBRANCH  14  15
ENDBRANCH  10  14
ENDBRANCH   6   8
ENDBRANCH   1   6
BRANCH   2  18
HETATM   18  O1  UNL     1      23.246  27.570  38.248  1.00  0.00    -0.344 OA
ATOM     19  H1  UNL     1      23.360  27.937  37.379  1.00  0.00     0.219 HD
ENDBRANCH   2  18
BRANCH   3  20
HETATM   20  C5  UNL     1      21.938  26.177  41.195  1.00  0.00     0.180 C
BRANCH  20  21
HETATM   21  C6  UNL     1      20.509  25.845  41.064  1.00  0.00     0.102 C
BRANCH  21  22
HETATM   22  N6  UNL     1      19.557  26.753  41.444  1.00  0.00    -0.310 N
BRANCH  22  23
HETATM   23  N7  UNL     1      19.648  27.239  42.756  1.00  0.00    -0.344 N
ATOM     24  H72 UNL     1      19.726  28.251  42.844  1.00  0.00     0.177 HD
ATOM     25  H71 UNL     1      19.675  26.538  43.497  1.00  0.00     0.177 HD
ENDBRANCH  22  23
BRANCH  22  26
HETATM   26  C7  UNL     1      18.548  27.304  40.677  1.00  0.00     0.173 C
BRANCH  26  27
HETATM   27  C8  UNL     1      19.168  28.576  40.008  1.00  0.00     0.185 C
BRANCH  27  28
HETATM   28  O2  UNL     1      18.766  29.644  40.762  1.00  0.00    -0.399 OA
ATOM     29  H2  UNL     1      19.554  30.020  41.138  1.00  0.00     0.209 HD
ENDBRANCH  27  28
ENDBRANCH  26  27
ENDBRANCH  22  26
ENDBRANCH  21  22
ENDBRANCH  20  21
ENDBRANCH   3  20
TORSDOF 12
ENDMDL