MODEL 1
REMARK VINA RESULT: -6.793358017      0.000      0.000
REMARK  9 active torsions:
REMARK  status: ('A' for Active; 'I' for Inactive)
REMARK    1  A    between atoms: N2_3  and  C2_5
REMARK    2  A    between atoms: C3_12  and  N6_13
REMARK    3  A    between atoms: N6_13  and  C4_15
REMARK    4  A    between atoms: C6_17  and  O1_18
REMARK    5  A    between atoms: C7_20  and  O2_21
REMARK    6  A    between atoms: C8_23  and  N7_24
REMARK    7  A    between atoms: N7_24  and  C9_26
REMARK    8  A    between atoms: C9_26  and  C10_27
REMARK    9  A    between atoms: C10_27  and  O3_28
ROOT
HETATM    1  C4  UNL     1      23.944  31.012  39.490  1.00  0.00     0.110 C
HETATM    2  C5  UNL     1      24.927  31.432  40.591  1.00  0.00     0.061 C
HETATM    3  C6  UNL     1      26.175  30.635  40.240  1.00  0.00     0.151 C
HETATM    4  C7  UNL     1      25.807  29.687  39.129  1.00  0.00     0.171 C
HETATM    5  C8  UNL     1      24.278  29.569  39.362  1.00  0.00     0.130 C
ENDROOT
BRANCH   1   6
HETATM    6  N6  UNL     1      22.594  31.252  39.863  1.00  0.00    -0.365 N
ATOM      7  H6  UNL     1      22.439  31.917  40.621  1.00  0.00     0.161 HD
BRANCH   6   8
HETATM    8  C3  UNL     1      21.439  30.659  39.286  1.00  0.00     0.164 A
HETATM    9  C2  UNL     1      20.348  30.188  40.022  1.00  0.00     0.168 A
HETATM   10  N3  UNL     1      19.487  29.729  39.102  1.00  0.00    -0.268 N
HETATM   11  N4  UNL     1      19.990  29.895  37.903  1.00  0.00    -0.239 N
ATOM     12  H3  UNL     1      18.578  29.313  39.304  1.00  0.00     0.190 HD
HETATM   13  N5  UNL     1      21.177  30.459  37.997  1.00  0.00    -0.268 N
ATOM     14  H4  UNL     1      19.533  29.628  37.030  1.00  0.00     0.208 HD
ATOM     15  H5  UNL     1      21.788  30.701  37.217  1.00  0.00     0.190 HD
BRANCH   9  16
HETATM   16  N2  UNL     1      20.209  30.202  41.439  1.00  0.00    -0.336 N
HETATM   17  C1  UNL     1      19.966  29.119  42.065  1.00  0.00     0.191 C
HETATM   18  N1  UNL     1      19.838  27.908  41.345  1.00  0.00    -0.097 NA
ATOM     19  H2  UNL     1      20.304  31.078  41.953  1.00  0.00     0.168 HD
ENDBRANCH   9  16
ENDBRANCH   6   8
ENDBRANCH   1   6
BRANCH   5  20
HETATM   20  N7  UNL     1      24.107  28.816  40.526  1.00  0.00    -0.411 N
ATOM     21  H7  UNL     1      24.616  29.100  41.362  1.00  0.00     0.153 HD
BRANCH  20  22
HETATM   22  C9  UNL     1      23.277  27.699  40.607  1.00  0.00     0.140 C
BRANCH  22  23
HETATM   23  C10 UNL     1      22.958  27.257  39.148  1.00  0.00     0.183 C
BRANCH  23  24
HETATM   24  O3  UNL     1      21.580  27.284  38.965  1.00  0.00    -0.399 OA
ATOM     25  H3  UNL     1      21.292  26.420  38.693  1.00  0.00     0.209 HD
ENDBRANCH  23  24
ENDBRANCH  22  23
ENDBRANCH  20  22
ENDBRANCH   5  20
BRANCH   3  26
HETATM   26  O1  UNL     1      27.226  31.469  39.966  1.00  0.00    -0.393 OA
ATOM     27  H1  UNL     1      27.908  31.382  40.621  1.00  0.00     0.210 HD
ENDBRANCH   3  26
BRANCH   4  28
HETATM   28  O2  UNL     1      25.953  30.225  37.864  1.00  0.00    -0.391 OA
ATOM     29  H2  UNL     1      25.356  30.940  37.680  1.00  0.00     0.210 HD
ENDBRANCH   4  28
TORSDOF 9
ENDMDL