MODEL 5
REMARK VINA RESULT: -5.805377339      1.859      2.325
REMARK  11 active torsions:
REMARK  status: ('A' for Active; 'I' for Inactive)
REMARK    1  A    between atoms: C2_2  and  C3_3
REMARK    2  A    between atoms: C2_2  and  N2_8
REMARK    3  A    between atoms: C3_3  and  N1_4
REMARK    4  A    between atoms: N2_8  and  C4_10
REMARK    5  A    between atoms: C5_14  and  C6_15
REMARK    6  A    between atoms: C6_15  and  C7_16
REMARK    7  A    between atoms: C7_16  and  N4_17
REMARK    8  A    between atoms: N4_17  and  N5_18
REMARK    9  A    between atoms: C9_22  and  O1_23
REMARK   10  A    between atoms: C10_25  and  O2_26
REMARK   11  A    between atoms: C11_28  and  N7_29
ROOT
HETATM    1  N5  UNL     1      26.558  29.357  38.759  1.00  0.00    -0.240 N
ATOM      2  H5  UNL     1      26.625  28.880  37.861  1.00  0.00     0.195 HD
HETATM    3  C8  UNL     1      27.548  30.231  39.181  1.00  0.00     0.194 C
HETATM    4  N6  UNL     1      28.423  30.929  39.548  1.00  0.00    -0.171 NA
ENDROOT
BRANCH   1   5
HETATM    5  N4  UNL     1      25.440  29.147  39.623  1.00  0.00    -0.132 NA
BRANCH   5   6
HETATM    6  C7  UNL     1      24.933  30.423  40.132  1.00  0.00     0.138 C
BRANCH   6   7
HETATM    7  C6  UNL     1      23.570  30.662  39.489  1.00  0.00     0.053 C
BRANCH   7   8
HETATM    8  C5  UNL     1      22.804  29.375  39.492  1.00  0.00     0.220 C
HETATM    9  N3  UNL     1      22.384  29.073  40.882  1.00  0.00    -0.046 N
HETATM   10  C4  UNL     1      22.087  27.627  40.856  1.00  0.00     0.314 C
ATOM     11  H32 UNL     1      21.618  29.653  41.226  1.00  0.00     0.280 HD
ATOM     12  H31 UNL     1      23.059  29.351  41.594  1.00  0.00     0.280 HD
HETATM   13  C11 UNL     1      21.183  27.385  39.722  1.00  0.00     0.264 C
HETATM   14  C10 UNL     1      20.445  28.746  39.441  1.00  0.00     0.183 C
HETATM   15  C9  UNL     1      21.433  29.660  38.792  1.00  0.00     0.179 C
BRANCH  10  16
HETATM   16  N2  UNL     1      23.315  26.962  40.969  1.00  0.00    -0.388 N
ATOM     17  H2  UNL     1      23.988  27.343  41.634  1.00  0.00     0.155 HD
BRANCH  16  18
HETATM   18  C2  UNL     1      23.705  25.820  40.254  1.00  0.00     0.100 C
HETATM   19  C1  UNL     1      25.135  25.652  39.865  1.00  0.00     0.033 C
BRANCH  18  20
HETATM   20  C3  UNL     1      23.384  24.586  41.177  1.00  0.00     0.254 C
BRANCH  20  21
HETATM   21  N1  UNL     1      24.052  23.413  40.653  1.00  0.00    -0.077 N
ATOM     22  H13 UNL     1      25.051  23.410  40.864  1.00  0.00     0.274 HD
ATOM     23  H12 UNL     1      23.796  22.564  41.157  1.00  0.00     0.274 HD
ATOM     24  H11 UNL     1      23.868  23.342  39.653  1.00  0.00     0.274 HD
ENDBRANCH  20  21
ENDBRANCH  18  20
ENDBRANCH  16  18
ENDBRANCH  10  16
BRANCH  13  25
HETATM   25  N7  UNL     1      20.099  26.470  39.904  1.00  0.00    -0.069 N
ATOM     26  H73 UNL     1      19.980  25.922  39.052  1.00  0.00     0.275 HD
ATOM     27  H72 UNL     1      20.381  25.746  40.564  1.00  0.00     0.275 HD
ATOM     28  H71 UNL     1      19.193  26.844  40.188  1.00  0.00     0.275 HD
ENDBRANCH  13  25
BRANCH  14  29
HETATM   29  O2  UNL     1      19.354  28.489  38.656  1.00  0.00    -0.391 OA
ATOM     30  H2  UNL     1      18.633  28.097  39.135  1.00  0.00     0.210 HD
ENDBRANCH  14  29
BRANCH  15  31
HETATM   31  O1  UNL     1      21.160  30.973  39.173  1.00  0.00    -0.391 OA
ATOM     32  H1  UNL     1      21.664  31.482  38.550  1.00  0.00     0.210 HD
ENDBRANCH  15  31
ENDBRANCH   7   8
ENDBRANCH   6   7
ENDBRANCH   5   6
ENDBRANCH   1   5
TORSDOF 11
ENDMDL