MODEL 4
REMARK VINA RESULT: -6.074241395      2.298      5.948
REMARK  11 active torsions:
REMARK  status: ('A' for Active; 'I' for Inactive)
REMARK    1  A    between atoms: N1_1  and  C1_4
REMARK    2  A    between atoms: C2_7  and  N3_8
REMARK    3  A    between atoms: N4_11  and  C3_12
REMARK    4  A    between atoms: C5_14  and  O1_15
REMARK    5  A    between atoms: C5_14  and  C6_17
REMARK    6  A    between atoms: C6_17  and  N5_18
REMARK    7  A    between atoms: N5_18  and  C7_20
REMARK    8  A    between atoms: C7_20  and  C8_21
REMARK    9  A    between atoms: C8_21  and  N6_22
REMARK   10  A    between atoms: C9_26  and  C10_27
REMARK   11  A    between atoms: C10_27  and  O2_28
ROOT
HETATM    1  C3  UNL     1      21.918  27.336  39.878  1.00  0.00     0.267 C
HETATM    2  C4  UNL     1      22.039  26.952  41.314  1.00  0.00     0.102 C
HETATM    3  C5  UNL     1      20.900  25.856  41.333  1.00  0.00     0.121 C
HETATM    4  C9  UNL     1      19.908  26.594  40.521  1.00  0.00     0.187 C
HETATM    5  O3  UNL     1      20.665  27.048  39.428  1.00  0.00    -0.353 OA
ENDROOT
BRANCH   1   6
HETATM    6  N4  UNL     1      22.310  28.708  39.624  1.00  0.00    -0.079 N
HETATM    7  C2  UNL     1      21.768  29.662  38.880  1.00  0.00     0.710 A
HETATM    8  N2  UNL     1      22.526  30.771  38.979  1.00  0.00    -0.020 N
HETATM    9  C1  UNL     1      23.563  30.515  39.796  1.00  0.00     0.705 A
ATOM     10  H2  UNL     1      22.344  31.659  38.510  1.00  0.00     0.203 HD
HETATM   11  N7  UNL     1      23.402  29.232  40.178  1.00  0.00    -0.113 N
ATOM     12  H7  UNL     1      24.030  28.731  40.807  1.00  0.00     0.206 HD
BRANCH   7  13
HETATM   13  N3  UNL     1      20.678  29.508  38.180  1.00  0.00    -0.233 N
ATOM     14  H32 UNL     1      20.667  29.287  37.184  1.00  0.00     0.174 HD
ATOM     15  H31 UNL     1      19.716  29.586  38.508  1.00  0.00     0.174 HD
ENDBRANCH   7  13
BRANCH   9  16
HETATM   16  N1  UNL     1      24.478  31.374  40.098  1.00  0.00    -0.233 N
ATOM     17  H12 UNL     1      24.686  31.840  40.981  1.00  0.00     0.174 HD
ATOM     18  H11 UNL     1      25.170  31.729  39.439  1.00  0.00     0.174 HD
ENDBRANCH   9  16
ENDBRANCH   1   6
BRANCH   3  19
HETATM   19  O1  UNL     1      21.486  24.826  40.628  1.00  0.00    -0.382 OA
ATOM     20  H1  UNL     1      21.092  24.062  41.034  1.00  0.00     0.211 HD
ENDBRANCH   3  19
BRANCH   3  21
HETATM   21  C6  UNL     1      20.588  25.539  42.739  1.00  0.00     0.096 C
BRANCH  21  22
HETATM   22  N5  UNL     1      21.548  25.955  43.668  1.00  0.00    -0.398 N
ATOM     23  H5  UNL     1      22.534  25.866  43.420  1.00  0.00     0.158 HD
BRANCH  22  24
HETATM   24  C7  UNL     1      21.221  26.486  44.918  1.00  0.00     0.146 C
BRANCH  24  25
HETATM   25  C8  UNL     1      19.816  27.129  44.905  1.00  0.00     0.249 C
BRANCH  25  26
HETATM   26  N6  UNL     1      19.797  28.261  45.780  1.00  0.00    -0.078 N
ATOM     27  H63 UNL     1      19.462  28.020  46.714  1.00  0.00     0.274 HD
ATOM     28  H62 UNL     1      20.737  28.565  46.036  1.00  0.00     0.274 HD
ATOM     29  H61 UNL     1      19.251  29.012  45.359  1.00  0.00     0.274 HD
ENDBRANCH  25  26
ENDBRANCH  24  25
ENDBRANCH  22  24
ENDBRANCH  21  22
ENDBRANCH   3  21
BRANCH   4  30
HETATM   30  C10 UNL     1      19.240  27.760  41.213  1.00  0.00     0.199 C
BRANCH  30  31
HETATM   31  O2  UNL     1      18.596  28.592  40.274  1.00  0.00    -0.398 OA
ATOM     32  H2  UNL     1      17.981  29.171  40.707  1.00  0.00     0.209 HD
ENDBRANCH  30  31
ENDBRANCH   4  30
TORSDOF 11
ENDMDL