MODEL 2
REMARK VINA RESULT: -6.566829945      1.193      1.464
REMARK  11 active torsions:
REMARK  status: ('A' for Active; 'I' for Inactive)
REMARK    1  A    between atoms: C2_2  and  C7_14
REMARK    2  A    between atoms: N1_3  and  O1_5
REMARK    3  A    between atoms: O1_5  and  C3_6
REMARK    4  A    between atoms: C3_6  and  C4_7
REMARK    5  A    between atoms: C4_7  and  C5_8
REMARK    6  A    between atoms: C5_8  and  C6_9
REMARK    7  A    between atoms: C6_9  and  N2_10
REMARK    8  A    between atoms: C7_14  and  N4_18
REMARK    9  A    between atoms: N4_18  and  N5_20
REMARK   10  A    between atoms: N5_20  and  C8_21
REMARK   11  A    between atoms: C9_25  and  O2_26
ROOT
HETATM    1  C7  UNL     1      22.290  30.266  39.915  1.00  0.00     0.135 C
HETATM    2  N3  UNL     1      21.977  30.493  41.155  1.00  0.00    -0.383 N
ATOM      3  H31 UNL     1      22.513  31.065  41.808  1.00  0.00     0.157 HD
ATOM      4  H32 UNL     1      21.088  30.109  41.474  1.00  0.00     0.157 HD
ENDROOT
BRANCH   1   5
HETATM    5  C2  UNL     1      21.529  29.454  38.988  1.00  0.00     0.072 C
HETATM    6  C1  UNL     1      20.322  30.155  38.322  1.00  0.00     0.074 C
HETATM    7  N1  UNL     1      21.660  28.272  38.704  1.00  0.00    -0.268 N
ATOM      8  H1  UNL     1      20.924  27.943  38.079  1.00  0.00     0.194 HD
BRANCH   7   9
HETATM    9  O1  UNL     1      22.526  27.310  39.010  1.00  0.00    -0.280 OA
BRANCH   9  10
HETATM   10  C3  UNL     1      22.266  26.742  40.363  1.00  0.00     0.201 C
BRANCH  10  11
HETATM   11  C4  UNL     1      23.504  25.960  40.686  1.00  0.00     0.030 C
BRANCH  11  12
HETATM   12  C5  UNL     1      24.776  26.653  40.716  1.00  0.00     0.029 C
BRANCH  12  13
HETATM   13  C6  UNL     1      25.757  26.494  39.633  1.00  0.00     0.230 C
BRANCH  13  14
HETATM   14  N2  UNL     1      25.515  27.069  38.356  1.00  0.00    -0.079 N
ATOM     15  H23 UNL     1      24.919  27.888  38.481  1.00  0.00     0.274 HD
ATOM     16  H22 UNL     1      26.381  27.495  38.026  1.00  0.00     0.274 HD
ATOM     17  H21 UNL     1      25.128  26.502  37.602  1.00  0.00     0.274 HD
ENDBRANCH  13  14
ENDBRANCH  12  13
ENDBRANCH  11  12
ENDBRANCH  10  11
ENDBRANCH   9  10
ENDBRANCH   7   9
ENDBRANCH   1   5
BRANCH   1  18
HETATM   18  N4  UNL     1      23.569  30.818  39.457  1.00  0.00    -0.284 N
ATOM     19  H4  UNL     1      23.690  31.831  39.442  1.00  0.00     0.184 HD
BRANCH  18  20
HETATM   20  N5  UNL     1      24.599  30.028  39.050  1.00  0.00    -0.088 NA
BRANCH  20  21
HETATM   21  C8  UNL     1      25.756  30.781  38.599  1.00  0.00     0.352 C
HETATM   22  N6  UNL     1      26.034  31.877  39.490  1.00  0.00    -0.079 NA
HETATM   23  N7  UNL     1      26.164  31.429  40.802  1.00  0.00    -0.032 NA
HETATM   24  N8  UNL     1      26.513  30.080  40.768  1.00  0.00    -0.071 NA
HETATM   25  C9  UNL     1      27.474  29.798  39.739  1.00  0.00     0.378 C
HETATM   26  O3  UNL     1      26.817  29.898  38.505  1.00  0.00    -0.307 OA
BRANCH  25  27
HETATM   27  O2  UNL     1      28.567  30.659  39.802  1.00  0.00    -0.357 OA
ATOM     28  H2  UNL     1      29.297  30.267  40.266  1.00  0.00     0.214 HD
ENDBRANCH  25  27
ENDBRANCH  20  21
ENDBRANCH  18  20
ENDBRANCH   1  18
TORSDOF 11
ENDMDL