MODEL 3
REMARK VINA RESULT: -6.748720740      1.420      2.139
REMARK  11 active torsions:
REMARK  status: ('A' for Active; 'I' for Inactive)
REMARK    1  A    between atoms: N1_1  and  C1_4
REMARK    2  A    between atoms: C3_6  and  C4_7
REMARK    3  A    between atoms: C4_7  and  N2_8
REMARK    4  A    between atoms: N2_8  and  O1_9
REMARK    5  A    between atoms: N2_8  and  C5_14
REMARK    6  A    between atoms: O1_9  and  N3_10
REMARK    7  A    between atoms: N3_10  and  N4_11
REMARK    8  A    between atoms: C7_16  and  O2_17
REMARK    9  A    between atoms: C8_19  and  C9_20
REMARK   10  A    between atoms: C9_20  and  O3_21
REMARK   11  A    between atoms: C10_26  and  N6_27
ROOT
HETATM    1  N2  UNL     1      24.763  28.586  39.505  1.00  0.00    -0.215 N
ENDROOT
BRANCH   1   2
HETATM    2  C4  UNL     1      23.398  28.819  39.500  1.00  0.00     0.152 C
BRANCH   2   3
HETATM    3  C3  UNL     1      22.608  28.811  40.717  1.00  0.00     0.070 A
HETATM    4  C2  UNL     1      21.612  29.728  40.971  1.00  0.00     0.080 A
HETATM    5  C1  UNL     1      20.919  29.675  42.157  1.00  0.00     0.116 A
HETATM    6  N7  UNL     1      21.172  28.745  43.107  1.00  0.00    -0.177 N
HETATM    7  C10 UNL     1      22.158  27.851  42.836  1.00  0.00     0.677 A
ATOM      8  H7  UNL     1      20.649  28.717  43.983  1.00  0.00     0.185 HD
HETATM    9  N5  UNL     1      22.828  27.899  41.696  1.00  0.00    -0.191 N
ATOM     10  H5  UNL     1      23.559  27.203  41.543  1.00  0.00     0.184 HD
BRANCH   5  11
HETATM   11  N1  UNL     1      19.966  30.522  42.440  1.00  0.00    -0.385 N
ATOM     12  H12 UNL     1      19.017  30.151  42.375  1.00  0.00     0.157 HD
ATOM     13  H11 UNL     1      20.160  31.487  42.705  1.00  0.00     0.157 HD
ENDBRANCH   5  11
BRANCH   7  14
HETATM   14  N6  UNL     1      22.382  26.969  43.761  1.00  0.00    -0.234 N
ATOM     15  H62 UNL     1      22.478  27.340  44.706  1.00  0.00     0.174 HD
ATOM     16  H61 UNL     1      22.460  25.969  43.578  1.00  0.00     0.174 HD
ENDBRANCH   7  14
ENDBRANCH   2   3
ENDBRANCH   1   2
BRANCH   1  17
HETATM   17  O1  UNL     1      25.179  28.136  38.306  1.00  0.00    -0.139 OA
BRANCH  17  18
HETATM   18  N3  UNL     1      25.069  26.789  38.178  1.00  0.00     0.040 NA
BRANCH  18  19
HETATM   19  N4  UNL     1      26.380  26.244  38.243  1.00  0.00    -0.321 N
ATOM     20  H42 UNL     1      26.800  25.811  39.065  1.00  0.00     0.174 HD
ATOM     21  H41 UNL     1      26.811  26.368  37.327  1.00  0.00     0.174 HD
ENDBRANCH  18  19
ENDBRANCH  17  18
ENDBRANCH   1  17
BRANCH   1  22
HETATM   22  C5  UNL     1      25.707  29.477  40.052  1.00  0.00     0.254 C
HETATM   23  C6  UNL     1      27.001  29.665  39.335  1.00  0.00     0.090 C
HETATM   24  C7  UNL     1      27.196  31.193  39.345  1.00  0.00     0.153 C
HETATM   25  C8  UNL     1      26.205  31.620  40.383  1.00  0.00     0.176 C
HETATM   26  O4  UNL     1      25.131  30.763  40.161  1.00  0.00    -0.354 OA
BRANCH  24  27
HETATM   27  O2  UNL     1      28.519  31.482  39.695  1.00  0.00    -0.393 OA
ATOM     28  H2  UNL     1      28.653  31.263  40.610  1.00  0.00     0.210 HD
ENDBRANCH  24  27
BRANCH  25  29
HETATM   29  C9  UNL     1      25.753  33.046  40.104  1.00  0.00     0.198 C
BRANCH  29  30
HETATM   30  O3  UNL     1      26.487  33.642  39.110  1.00  0.00    -0.398 OA
ATOM     31  H3  UNL     1      27.038  34.343  39.438  1.00  0.00     0.209 HD
ENDBRANCH  29  30
ENDBRANCH  25  29
ENDBRANCH   1  22
TORSDOF 11
ENDMDL