MODEL 5
REMARK VINA RESULT: -6.533641891      2.215      3.498
REMARK  11 active torsions:
REMARK  status: ('A' for Active; 'I' for Inactive)
REMARK    1  A    between atoms: N1_1  and  C1_5
REMARK    2  A    between atoms: C3_7  and  N2_8
REMARK    3  A    between atoms: C4_12  and  N3_13
REMARK    4  A    between atoms: N3_13  and  C5_15
REMARK    5  A    between atoms: C5_15  and  C6_16
REMARK    6  A    between atoms: C6_16  and  C7_17
REMARK    7  A    between atoms: C7_17  and  O1_18
REMARK    8  A    between atoms: O1_18  and  C8_19
REMARK    9  A    between atoms: C8_19  and  C9_20
REMARK   10  A    between atoms: C10_26  and  O2_27
REMARK   11  A    between atoms: C11_29  and  O3_30
ROOT
HETATM    1  C6  UNL     1      25.849  30.344  39.651  1.00  0.00     0.045 C
ENDROOT
BRANCH   1   2
HETATM    2  C5  UNL     1      26.461  29.300  40.611  1.00  0.00     0.116 C
BRANCH   2   3
HETATM    3  N3  UNL     1      25.687  28.118  40.521  1.00  0.00    -0.413 N
ATOM      4  H3  UNL     1      25.195  27.767  41.343  1.00  0.00     0.153 HD
BRANCH   3   5
HETATM    5  C4  UNL     1      25.595  27.428  39.300  1.00  0.00     0.137 C
HETATM    6  C1  UNL     1      24.324  26.815  38.835  1.00  0.00     0.209 C
HETATM    7  C2  UNL     1      24.613  25.648  39.791  1.00  0.00     0.069 C
HETATM    8  C3  UNL     1      26.089  25.981  39.532  1.00  0.00     0.209 C
BRANCH   6   9
HETATM    9  N1  UNL     1      23.090  27.481  39.022  1.00  0.00    -0.073 N
ATOM     10  H13 UNL     1      22.329  26.905  38.661  1.00  0.00     0.274 HD
ATOM     11  H12 UNL     1      22.853  27.498  40.014  1.00  0.00     0.274 HD
ATOM     12  H11 UNL     1      23.026  28.422  38.634  1.00  0.00     0.274 HD
ENDBRANCH   6   9
BRANCH   8  13
HETATM   13  N2  UNL     1      26.577  25.359  38.325  1.00  0.00    -0.073 N
ATOM     14  H23 UNL     1      25.869  24.754  37.908  1.00  0.00     0.274 HD
ATOM     15  H22 UNL     1      26.673  26.038  37.570  1.00  0.00     0.274 HD
ATOM     16  H21 UNL     1      27.449  24.855  38.484  1.00  0.00     0.274 HD
ENDBRANCH   8  13
ENDBRANCH   3   5
ENDBRANCH   2   3
ENDBRANCH   1   2
BRANCH   1  17
HETATM   17  C7  UNL     1      24.625  30.906  40.248  1.00  0.00     0.169 C
BRANCH  17  18
HETATM   18  O1  UNL     1      23.441  30.328  39.995  1.00  0.00    -0.389 OA
BRANCH  18  19
HETATM   19  C8  UNL     1      22.475  30.342  40.943  1.00  0.00     0.197 C
BRANCH  19  20
HETATM   20  C9  UNL     1      21.092  30.695  40.379  1.00  0.00     0.156 C
HETATM   21  N4  UNL     1      21.253  31.092  39.023  1.00  0.00    -0.315 N
HETATM   22  N5  UNL     1      20.949  30.171  38.057  1.00  0.00    -0.248 N
ATOM     23  H4  UNL     1      21.582  32.027  38.780  1.00  0.00     0.181 HD
HETATM   24  N6  UNL     1      19.745  29.514  38.209  1.00  0.00    -0.091 NA
ATOM     25  H5  UNL     1      21.573  29.982  37.274  1.00  0.00     0.203 HD
HETATM   26  C10 UNL     1      19.826  28.739  39.430  1.00  0.00     0.263 C
HETATM   27  C11 UNL     1      20.106  29.592  40.620  1.00  0.00     0.190 C
BRANCH  26  28
HETATM   28  O2  UNL     1      18.596  28.107  39.601  1.00  0.00    -0.375 OA
ATOM     29  H2  UNL     1      18.768  27.179  39.713  1.00  0.00     0.211 HD
ENDBRANCH  26  28
BRANCH  27  30
HETATM   30  O3  UNL     1      18.896  30.054  41.123  1.00  0.00    -0.389 OA
ATOM     31  H3  UNL     1      18.304  29.350  41.359  1.00  0.00     0.210 HD
ENDBRANCH  27  30
ENDBRANCH  19  20
ENDBRANCH  18  19
ENDBRANCH  17  18
ENDBRANCH   1  17
TORSDOF 11
ENDMDL