MODEL 5
REMARK VINA RESULT: -5.827335668      1.902      2.761
REMARK  11 active torsions:
REMARK  status: ('A' for Active; 'I' for Inactive)
REMARK    1  A    between atoms: C1_4  and  C2_5
REMARK    2  A    between atoms: C2_5  and  C3_6
REMARK    3  A    between atoms: C3_6  and  N2_7
REMARK    4  A    between atoms: N2_7  and  N3_9
REMARK    5  A    between atoms: N3_9  and  C4_11
REMARK    6  A    between atoms: N7_20  and  C6_21
REMARK    7  A    between atoms: C6_21  and  O1_22
REMARK    8  A    between atoms: C6_21  and  N8_24
REMARK    9  A    between atoms: N8_24  and  C7_26
REMARK   10  A    between atoms: C7_26  and  C8_27
REMARK   11  A    between atoms: C8_27  and  N9_28
ROOT
HETATM    1  C4  UNL     1      22.155  30.115  40.237  1.00  0.00     0.180 A
HETATM    2  N4  UNL     1      21.638  30.605  39.076  1.00  0.00    -0.171 N
ATOM      3  H4  UNL     1      22.136  31.361  38.608  1.00  0.00     0.186 HD
HETATM    4  C5  UNL     1      20.518  30.151  38.518  1.00  0.00     0.692 A
HETATM    5  N5  UNL     1      20.081  30.663  37.407  1.00  0.00    -0.233 N
ATOM      6  H51 UNL     1      19.222  30.316  36.980  1.00  0.00     0.174 HD
ATOM      7  H52 UNL     1      20.574  31.420  36.934  1.00  0.00     0.174 HD
HETATM    8  N6  UNL     1      19.867  29.153  39.141  1.00  0.00    -0.125 N
ATOM      9  H6  UNL     1      19.008  28.795  38.725  1.00  0.00     0.206 HD
HETATM   10  N7  UNL     1      20.294  28.618  40.269  1.00  0.00    -0.212 N
HETATM   11  C9  UNL     1      21.432  29.093  40.819  1.00  0.00     0.167 A
HETATM   12  N10 UNL     1      21.843  28.578  41.905  1.00  0.00    -0.381 N
ATOM     13 1H10 UNL     1      21.309  27.823  42.335  1.00  0.00     0.157 HD
ATOM     14 2H10 UNL     1      22.703  28.937  42.320  1.00  0.00     0.157 HD
ENDROOT
BRANCH  10  15
HETATM   15  C6  UNL     1      19.536  27.530  40.905  1.00  0.00     0.347 C
BRANCH  15  16
HETATM   16  O1  UNL     1      18.203  27.928  40.857  1.00  0.00    -0.358 OA
ATOM     17  H1  UNL     1      17.809  27.592  41.652  1.00  0.00     0.214 HD
ENDBRANCH  15  16
BRANCH  15  18
HETATM   18  N8  UNL     1      19.837  26.315  40.235  1.00  0.00    -0.378 N
ATOM     19  H8  UNL     1      19.548  26.163  39.269  1.00  0.00     0.157 HD
BRANCH  18  20
HETATM   20  C7  UNL     1      20.550  25.320  40.947  1.00  0.00     0.145 C
BRANCH  20  21
HETATM   21  C8  UNL     1      20.509  25.396  42.441  1.00  0.00     0.248 C
BRANCH  21  22
HETATM   22  N9  UNL     1      20.952  24.106  42.956  1.00  0.00    -0.078 N
ATOM     23  H93 UNL     1      20.182  23.460  43.128  1.00  0.00     0.274 HD
ATOM     24  H92 UNL     1      21.442  23.546  42.258  1.00  0.00     0.274 HD
ATOM     25  H91 UNL     1      21.513  24.288  43.788  1.00  0.00     0.274 HD
ENDBRANCH  21  22
ENDBRANCH  20  21
ENDBRANCH  18  20
ENDBRANCH  15  18
ENDBRANCH  10  15
BRANCH   1  26
HETATM   26  N3  UNL     1      23.244  30.577  40.757  1.00  0.00    -0.286 N
ATOM     27  H3  UNL     1      23.443  30.416  41.744  1.00  0.00     0.188 HD
BRANCH  26  28
HETATM   28  N2  UNL     1      24.149  31.294  39.974  1.00  0.00    -0.334 N
ATOM     29  H2  UNL     1      23.919  31.523  39.007  1.00  0.00     0.180 HD
BRANCH  28  30
HETATM   30  C3  UNL     1      25.409  31.711  40.536  1.00  0.00     0.144 C
BRANCH  30  31
HETATM   31  C2  UNL     1      26.518  31.714  39.527  1.00  0.00     0.065 C
BRANCH  31  32
HETATM   32  C1  UNL     1      26.412  30.423  38.760  1.00  0.00     0.054 C
HETATM   33  N1  UNL     1      27.495  29.805  38.418  1.00  0.00    -0.411 N
ATOM     34  H12 UNL     1      28.401  30.199  38.672  1.00  0.00     0.155 HD
ATOM     35  H11 UNL     1      27.423  28.930  37.898  1.00  0.00     0.155 HD
ENDBRANCH  31  32
ENDBRANCH  30  31
ENDBRANCH  28  30
ENDBRANCH  26  28
ENDBRANCH   1  26
TORSDOF 11
ENDMDL