MODEL 3
REMARK VINA RESULT: -6.361029560      2.491      3.509
REMARK  6 active torsions:
REMARK  status: ('A' for Active; 'I' for Inactive)
REMARK    1  A    between atoms: C2_5  and  C3_6
REMARK    2  A    between atoms: C3_6  and  O1_7
REMARK    3  A    between atoms: C3_6  and  C4_9
REMARK    4  A    between atoms: C4_9  and  C5_15
REMARK    5  A    between atoms: N3_10  and  N4_12
REMARK    6  A    between atoms: C6_18  and  N6_19
ROOT
HETATM    1  C3  UNL     1       5.336  -8.350  37.672  1.00  0.00     0.229 C
ENDROOT
BRANCH   1   2
HETATM    2  C2  UNL     1       4.306  -8.339  38.739  1.00  0.00     0.107 A
HETATM    3  N2  UNL     1       4.250  -7.401  39.694  1.00  0.00    -0.282 N
HETATM    4  N1  UNL     1       3.223  -7.695  40.466  1.00  0.00    -0.237 N
ATOM      5  H2  UNL     1       4.883  -6.609  39.802  1.00  0.00     0.188 HD
HETATM    6  C1  UNL     1       2.824  -6.901  41.636  1.00  0.00     0.200 C
HETATM    7  N7  UNL     1       2.620  -8.779  40.046  1.00  0.00    -0.268 N
HETATM    8  C6  UNL     1       3.275  -9.212  38.959  1.00  0.00     0.142 A
ATOM      9  H7  UNL     1       1.801  -9.215  40.469  1.00  0.00     0.190 HD
BRANCH   8  10
HETATM   10  N6  UNL     1       3.002 -10.266  38.229  1.00  0.00    -0.383 N
ATOM     11  H62 UNL     1       2.987 -11.242  38.526  1.00  0.00     0.157 HD
ATOM     12  H61 UNL     1       2.764 -10.253  37.237  1.00  0.00     0.157 HD
ENDBRANCH   8  10
ENDBRANCH   1   2
BRANCH   1  13
HETATM   13  O1  UNL     1       4.671  -8.738  36.491  1.00  0.00    -0.383 OA
ATOM     14  H1  UNL     1       5.249  -8.503  35.774  1.00  0.00     0.211 HD
ENDBRANCH   1  13
BRANCH   1  15
HETATM   15  C4  UNL     1       6.389  -9.333  38.004  1.00  0.00     0.125 C
HETATM   16  N3  UNL     1       7.076  -9.207  39.076  1.00  0.00    -0.304 N
ATOM     17  H3  UNL     1       6.868  -8.411  39.679  1.00  0.00     0.186 HD
BRANCH  16  18
HETATM   18  N4  UNL     1       8.078 -10.066  39.475  1.00  0.00    -0.345 N
ATOM     19  H42 UNL     1       8.792  -9.678  40.090  1.00  0.00     0.176 HD
ATOM     20  H41 UNL     1       8.149 -11.046  39.200  1.00  0.00     0.176 HD
ENDBRANCH  16  18
BRANCH  15  21
HETATM   21  C5  UNL     1       6.637 -10.439  37.112  1.00  0.00     0.281 C
HETATM   22  N5  UNL     1       5.909 -11.639  37.281  1.00  0.00    -0.056 NA
HETATM   23  O2  UNL     1       7.485 -10.337  36.202  1.00  0.00    -0.270 OA
ENDBRANCH  15  21
ENDBRANCH   1  15
TORSDOF 6
ENDMDL