MODEL 3
REMARK VINA RESULT: -6.085305594      2.484      5.604
REMARK  4 active torsions:
REMARK  status: ('A' for Active; 'I' for Inactive)
REMARK    1  A    between atoms: N1_2  and  N2_3
REMARK    2  A    between atoms: N1_2  and  C3_8
REMARK       I    between atoms: N2_3  and  C2_5
REMARK    3  A    between atoms: N5_11  and  N6_12
REMARK    4  A    between atoms: N6_12  and  N7_14
ROOT
HETATM    1  C3  UNL     1       6.519  -8.247  40.287  1.00  0.00     0.186 A
HETATM    2  N4  UNL     1       6.151  -8.980  39.255  1.00  0.00    -0.252 N
ATOM      3  H4  UNL     1       5.621  -9.838  39.410  1.00  0.00     0.191 HD
HETATM    4  N5  UNL     1       6.450  -8.630  38.065  1.00  0.00    -0.134 N
HETATM    5  C4  UNL     1       7.145  -7.499  37.897  1.00  0.00     0.329 A
HETATM    6  O2  UNL     1       7.540  -6.977  36.797  1.00  0.00    -0.256 OA
HETATM    7  S1  UNL     1       7.349  -6.967  39.507  1.00  0.00     0.013 SA
ENDROOT
BRANCH   1   8
HETATM    8  N1  UNL     1       6.274  -8.469  41.679  1.00  0.00    -0.270 N
HETATM    9  C1  UNL     1       7.323  -8.877  42.566  1.00  0.00     0.180 C
BRANCH   8  10
HETATM   10  N2  UNL     1       4.985  -8.272  42.154  1.00  0.00    -0.250 N
HETATM   11  C2  UNL     1       4.058  -9.371  42.126  1.00  0.00     0.347 C
HETATM   12  N3  UNL     1       2.758  -9.130  42.619  1.00  0.00    -0.038 NA
HETATM   13  O1  UNL     1       4.400 -10.486  41.682  1.00  0.00    -0.249 OA
ATOM     14  H2  UNL     1       4.700  -7.363  42.517  1.00  0.00     0.191 HD
ENDBRANCH   8  10
ENDBRANCH   1   8
BRANCH   4  15
HETATM   15  N6  UNL     1       6.065  -9.416  36.934  1.00  0.00    -0.224 N
ATOM     16  H6  UNL     1       5.074  -9.556  36.737  1.00  0.00     0.210 HD
BRANCH  15  17
HETATM   17  N7  UNL     1       7.003  -9.989  36.107  1.00  0.00    -0.329 N
ATOM     18  H72 UNL     1       7.987  -9.897  36.356  1.00  0.00     0.178 HD
ATOM     19  H71 UNL     1       6.730 -10.493  35.263  1.00  0.00     0.178 HD
ENDBRANCH  15  17
ENDBRANCH   4  15
TORSDOF 4
ENDMDL