MODEL 2
REMARK VINA RESULT: -6.655320689      2.218      2.536
REMARK  6 active torsions:
REMARK  status: ('A' for Active; 'I' for Inactive)
REMARK    1  A    between atoms: N1_1  and  C1_4
REMARK    2  A    between atoms: C3_8  and  C4_9
REMARK    3  A    between atoms: C4_9  and  N3_10
REMARK    4  A    between atoms: C4_9  and  C5_14
REMARK       I    between atoms: C5_14  and  N4_16
REMARK    5  A    between atoms: N4_16  and  N5_18
REMARK    6  A    between atoms: C6_23  and  N7_24
ROOT
HETATM    1  C1  UNL     1       6.225  -9.852  37.231  1.00  0.00     0.150 A
HETATM    2  N2  UNL     1       5.739 -10.885  37.938  1.00  0.00    -0.347 N
ATOM      3  H2  UNL     1       5.973 -11.841  37.670  1.00  0.00     0.167 HD
HETATM    4  C2  UNL     1       4.932 -10.658  39.017  1.00  0.00     0.117 A
HETATM    5  C3  UNL     1       4.600  -9.387  39.405  1.00  0.00     0.066 A
HETATM    6  N6  UNL     1       5.089  -8.357  38.693  1.00  0.00    -0.335 N
ATOM      7  H6  UNL     1       4.850  -7.404  38.967  1.00  0.00     0.167 HD
HETATM    8  C6  UNL     1       5.894  -8.558  37.617  1.00  0.00     0.218 A
ENDROOT
BRANCH   5   9
HETATM    9  C4  UNL     1       3.724  -9.148  40.575  1.00  0.00     0.327 C
BRANCH   9  10
HETATM   10  N3  UNL     1       3.203  -7.800  40.596  1.00  0.00    -0.061 N
ATOM     11  H33 UNL     1       3.875  -7.138  40.207  1.00  0.00     0.275 HD
ATOM     12  H32 UNL     1       2.450  -7.684  39.918  1.00  0.00     0.275 HD
ATOM     13  H31 UNL     1       2.906  -7.519  41.531  1.00  0.00     0.275 HD
ENDBRANCH   9  10
BRANCH   9  14
HETATM   14  C5  UNL     1       4.390  -9.429  41.852  1.00  0.00     0.272 C
HETATM   15  O1  UNL     1       4.202 -10.498  42.512  1.00  0.00    -0.269 OA
HETATM   16  N4  UNL     1       5.288  -8.472  42.387  1.00  0.00    -0.275 N
ATOM     17  H4  UNL     1       5.453  -7.607  41.874  1.00  0.00     0.189 HD
BRANCH  16  18
HETATM   18  N5  UNL     1       5.954  -8.680  43.599  1.00  0.00    -0.343 N
ATOM     19  H52 UNL     1       5.408  -8.637  44.459  1.00  0.00     0.176 HD
ATOM     20  H51 UNL     1       6.955  -8.869  43.640  1.00  0.00     0.176 HD
ENDBRANCH  16  18
ENDBRANCH   9  14
ENDBRANCH   5   9
BRANCH   8  21
HETATM   21  N7  UNL     1       6.373  -7.430  36.914  1.00  0.00    -0.094 N
HETATM   22  O2  UNL     1       5.587  -6.712  36.231  1.00  0.00    -0.530 OA
HETATM   23  O3  UNL     1       7.699  -7.057  36.937  1.00  0.00    -0.530 OA
ENDBRANCH   8  21
BRANCH   1  24
HETATM   24  N1  UNL     1       6.996 -10.001  36.198  1.00  0.00    -0.382 N
ATOM     25  H12 UNL     1       7.926 -10.393  36.347  1.00  0.00     0.157 HD
ATOM     26  H11 UNL     1       6.715  -9.745  35.251  1.00  0.00     0.157 HD
ENDBRANCH   1  24
TORSDOF 6
ENDMDL