MODEL 4
REMARK VINA RESULT: -5.990717957      2.380      4.062
REMARK  6 active torsions:
REMARK  status: ('A' for Active; 'I' for Inactive)
REMARK    1  A    between atoms: C3_9  and  N4_10
REMARK    2  A    between atoms: N4_10  and  O1_12
REMARK    3  A    between atoms: C4_14  and  C5_15
REMARK    4  A    between atoms: C5_15  and  N5_16
REMARK    5  A    between atoms: C5_15  and  C6_20
REMARK       I    between atoms: C6_20  and  N6_22
REMARK    6  A    between atoms: N6_22  and  N7_24
ROOT
HETATM    1  C1  UNL     1       3.453  -9.092  40.744  1.00  0.00     0.177 C
HETATM    2  N1  UNL     1       4.872  -9.360  40.720  1.00  0.00    -0.294 N
HETATM    3  N2  UNL     1       5.688  -8.934  41.681  1.00  0.00    -0.282 N
ATOM      4  H2  UNL     1       5.394  -8.396  42.496  1.00  0.00     0.189 HD
HETATM    5  C2  UNL     1       6.954  -9.311  41.428  1.00  0.00     0.145 A
HETATM    6  N3  UNL     1       8.032  -9.098  42.109  1.00  0.00    -0.382 N
ATOM      7  H31 UNL     1       8.992  -9.385  41.917  1.00  0.00     0.157 HD
ATOM      8  H32 UNL     1       8.085  -8.585  42.989  1.00  0.00     0.157 HD
HETATM    9  C3  UNL     1       6.882 -10.010  40.230  1.00  0.00     0.125 A
HETATM   10  C4  UNL     1       5.575 -10.035  39.795  1.00  0.00     0.100 A
ENDROOT
BRANCH  10  11
HETATM   11  C5  UNL     1       5.050 -10.674  38.563  1.00  0.00     0.329 C
BRANCH  11  12
HETATM   12  N5  UNL     1       4.888 -12.102  38.738  1.00  0.00    -0.061 N
ATOM     13  H53 UNL     1       3.934 -12.398  38.531  1.00  0.00     0.275 HD
ATOM     14  H52 UNL     1       5.376 -12.626  38.012  1.00  0.00     0.275 HD
ATOM     15  H51 UNL     1       5.177 -12.396  39.671  1.00  0.00     0.275 HD
ENDBRANCH  11  12
BRANCH  11  16
HETATM   16  C6  UNL     1       5.889 -10.418  37.401  1.00  0.00     0.272 C
HETATM   17  O2  UNL     1       6.554 -11.347  36.891  1.00  0.00    -0.269 OA
HETATM   18  N6  UNL     1       5.959  -9.120  36.841  1.00  0.00    -0.275 N
ATOM     19  H6  UNL     1       5.411  -8.371  37.266  1.00  0.00     0.189 HD
BRANCH  18  20
HETATM   20  N7  UNL     1       6.756  -8.824  35.719  1.00  0.00    -0.343 N
ATOM     21  H72 UNL     1       7.756  -9.017  35.782  1.00  0.00     0.176 HD
ATOM     22  H71 UNL     1       6.367  -8.431  34.861  1.00  0.00     0.176 HD
ENDBRANCH  18  20
ENDBRANCH  11  16
ENDBRANCH  10  11
BRANCH   9  23
HETATM   23  N4  UNL     1       7.972 -10.610  39.547  1.00  0.00    -0.264 N
ATOM     24  H4  UNL     1       7.887 -11.514  39.083  1.00  0.00     0.194 HD
BRANCH  23  25
HETATM   25  O1  UNL     1       9.053  -9.958  39.549  1.00  0.00    -0.289 OA
ATOM     26  H1  UNL     1       9.683 -10.195  38.879  1.00  0.00     0.244 HD
ENDBRANCH  23  25
ENDBRANCH   9  23
TORSDOF 6
ENDMDL