MODEL 3
REMARK VINA RESULT: -6.373639342      3.590      5.951
REMARK  5 active torsions:
REMARK  status: ('A' for Active; 'I' for Inactive)
REMARK    1  A    between atoms: N1_1  and  C1_4
REMARK    2  A    between atoms: C2_7  and  N3_8
REMARK    3  A    between atoms: N3_8  and  N4_9
REMARK    4  A    between atoms: N3_8  and  N5_12
REMARK    5  A    between atoms: C3_14  and  C4_15
ROOT
HETATM    1  N3  UNL     1       5.434  -9.139  41.465  1.00  0.00    -0.025 N
ENDROOT
BRANCH   1   2
HETATM    2  C2  UNL     1       6.412  -9.009  42.487  1.00  0.00     0.748 A
HETATM    3  N2  UNL     1       6.182  -8.817  43.814  1.00  0.00    -0.017 N
HETATM    4  C1  UNL     1       7.363  -8.746  44.448  1.00  0.00     0.705 A
ATOM      5  H2  UNL     1       5.265  -8.740  44.254  1.00  0.00     0.203 HD
HETATM    6  N11 UNL     1       8.313  -8.895  43.507  1.00  0.00    -0.117 N
HETATM    7  N10 UNL     1       7.744  -9.052  42.336  1.00  0.00    -0.114 N
ATOM      8  H11 UNL     1       9.318  -8.887  43.678  1.00  0.00     0.206 HD
ATOM      9  H10 UNL     1       8.236  -9.186  41.453  1.00  0.00     0.206 HD
BRANCH   4  10
HETATM   10  N1  UNL     1       7.577  -8.569  45.721  1.00  0.00    -0.233 N
ATOM     11  H12 UNL     1       6.890  -8.238  46.398  1.00  0.00     0.174 HD
ATOM     12  H11 UNL     1       8.442  -8.727  46.238  1.00  0.00     0.174 HD
ENDBRANCH   4  10
ENDBRANCH   1   2
BRANCH   1  13
HETATM   13  N4  UNL     1       4.197  -9.663  41.778  1.00  0.00    -0.309 N
ATOM     14  H42 UNL     1       3.448  -9.070  42.137  1.00  0.00     0.179 HD
ATOM     15  H41 UNL     1       4.030 -10.662  41.647  1.00  0.00     0.179 HD
ENDBRANCH   1  13
BRANCH   1  16
HETATM   16  N5  UNL     1       5.733  -8.740  40.182  1.00  0.00    -0.273 N
HETATM   17  C3  UNL     1       5.233  -7.695  39.617  1.00  0.00     0.160 C
ATOM     18  H5  UNL     1       6.391  -9.307  39.645  1.00  0.00     0.188 HD
BRANCH  17  19
HETATM   19  C4  UNL     1       5.584  -7.322  38.259  1.00  0.00     0.148 A
HETATM   20  N6  UNL     1       4.860  -6.478  37.512  1.00  0.00    -0.269 N
HETATM   21  N7  UNL     1       5.472  -6.366  36.329  1.00  0.00    -0.007 NA
ATOM     22  H6  UNL     1       4.001  -6.007  37.794  1.00  0.00     0.185 HD
HETATM   23  N8  UNL     1       6.559  -7.118  36.315  1.00  0.00    -0.007 NA
HETATM   24  N9  UNL     1       6.622  -7.701  37.501  1.00  0.00    -0.269 N
ATOM     25  H9  UNL     1       7.355  -8.345  37.797  1.00  0.00     0.185 HD
ENDBRANCH  17  19
ENDBRANCH   1  16
TORSDOF 5
ENDMDL