MODEL 4
REMARK VINA RESULT: -6.511804600      3.288      3.641
REMARK  5 active torsions:
REMARK  status: ('A' for Active; 'I' for Inactive)
REMARK    1  A    between atoms: C2_2  and  C3_3
REMARK    2  A    between atoms: C3_3  and  N1_4
REMARK    3  A    between atoms: C5_9  and  C6_10
REMARK       I    between atoms: C6_10  and  N3_12
REMARK    4  A    between atoms: N3_12  and  N4_14
REMARK    5  A    between atoms: N4_14  and  N5_15
ROOT
HETATM    1  N1  UNL     1       5.030  -9.479  42.207  1.00  0.00    -0.133 N
HETATM    2  C4  UNL     1       5.106  -9.855  40.913  1.00  0.00     0.342 A
HETATM    3  O1  UNL     1       4.019 -10.183  40.337  1.00  0.00    -0.246 OA
HETATM    4  N2  UNL     1       6.257  -9.893  40.237  1.00  0.00    -0.289 N
ATOM      5  H2  UNL     1       6.259 -10.184  39.259  1.00  0.00     0.172 HD
HETATM    6  C5  UNL     1       7.421  -9.548  40.836  1.00  0.00     0.194 A
HETATM    7  N6  UNL     1       7.385  -9.171  42.114  1.00  0.00    -0.171 N
ATOM      8  H6  UNL     1       8.246  -8.905  42.592  1.00  0.00     0.186 HD
HETATM    9  C7  UNL     1       6.194  -9.140  42.785  1.00  0.00     0.683 A
HETATM   10  N7  UNL     1       6.175  -8.764  44.009  1.00  0.00    -0.234 N
ATOM     11  H71 UNL     1       7.059  -8.506  44.448  1.00  0.00     0.174 HD
ATOM     12  H72 UNL     1       5.286  -8.741  44.509  1.00  0.00     0.174 HD
ENDROOT
BRANCH   6  13
HETATM   13  C6  UNL     1       8.677  -9.590  40.112  1.00  0.00     0.303 C
HETATM   14  O2  UNL     1       8.757 -10.334  39.104  1.00  0.00    -0.263 OA
HETATM   15  N3  UNL     1       9.780  -8.836  40.505  1.00  0.00    -0.247 N
ATOM     16  H3  UNL     1       9.721  -8.228  41.323  1.00  0.00     0.187 HD
BRANCH  15  17
HETATM   17  N4  UNL     1      10.980  -8.916  39.764  1.00  0.00    -0.027 NA
BRANCH  17  18
HETATM   18  N5  UNL     1      11.803  -7.893  40.277  1.00  0.00    -0.329 N
ATOM     19  H52 UNL     1      12.297  -7.181  39.737  1.00  0.00     0.174 HD
ATOM     20  H51 UNL     1      11.794  -8.022  41.288  1.00  0.00     0.174 HD
ENDBRANCH  17  18
ENDBRANCH  15  17
ENDBRANCH   6  13
BRANCH   1  21
HETATM   21  C3  UNL     1       3.747  -9.465  42.847  1.00  0.00     0.152 C
BRANCH  21  22
HETATM   22  C2  UNL     1       2.842  -8.352  42.457  1.00  0.00     0.016 C
HETATM   23  C1  UNL     1       3.274  -6.981  42.840  1.00  0.00     0.006 C
ENDBRANCH  21  22
ENDBRANCH   1  21
TORSDOF 5
ENDMDL