MODEL 3
REMARK VINA RESULT: -6.580641527      2.329      3.472
REMARK  3 active torsions:
REMARK  status: ('A' for Active; 'I' for Inactive)
REMARK    1  A    between atoms: N1_2  and  C2_4
REMARK    2  A    between atoms: C2_4  and  C5_7
REMARK    3  A    between atoms: C5_7  and  N2_8
ROOT
HETATM    1  N2  UNL     1       3.834  -9.237  39.009  1.00  0.00    -0.238 N
HETATM    2  N3  UNL     1       3.974  -8.117  38.317  1.00  0.00    -0.127 N
ATOM      3  H3  UNL     1       3.471  -7.269  38.579  1.00  0.00     0.206 HD
HETATM    4  C6  UNL     1       4.800  -8.133  37.261  1.00  0.00     0.692 A
HETATM    5  N4  UNL     1       4.916  -7.014  36.601  1.00  0.00    -0.233 N
ATOM      6  H41 UNL     1       5.544  -7.027  35.797  1.00  0.00     0.174 HD
ATOM      7  H42 UNL     1       4.402  -6.179  36.881  1.00  0.00     0.174 HD
HETATM    8  N5  UNL     1       5.478  -9.235  36.892  1.00  0.00    -0.172 N
ATOM      9  H5  UNL     1       6.095  -9.197  36.080  1.00  0.00     0.185 HD
HETATM   10  C7  UNL     1       5.355 -10.388  37.577  1.00  0.00     0.201 A
HETATM   11  N6  UNL     1       6.069 -11.554  37.193  1.00  0.00    -0.076 NA
HETATM   12  C8  UNL     1       4.493 -10.357  38.674  1.00  0.00     0.304 A
HETATM   13  O1  UNL     1       4.407 -11.452  39.289  1.00  0.00    -0.263 OA
ENDROOT
BRANCH   1  14
HETATM   14  C5  UNL     1       2.937  -9.239  40.127  1.00  0.00     0.182 C
BRANCH  14  15
HETATM   15  C2  UNL     1       3.511  -8.836  41.436  1.00  0.00     0.036 C
HETATM   16  C3  UNL     1       4.070  -7.432  41.438  1.00  0.00     0.039 C
HETATM   17  C4  UNL     1       2.460  -8.874  42.521  1.00  0.00     0.039 C
BRANCH  15  18
HETATM   18  N1  UNL     1       4.514  -9.806  41.828  1.00  0.00    -0.416 N
HETATM   19  C1  UNL     1       5.798  -9.270  42.116  1.00  0.00     0.140 C
ATOM     20  H1  UNL     1       4.312 -10.804  41.891  1.00  0.00     0.153 HD
ENDBRANCH  15  18
ENDBRANCH  14  15
ENDBRANCH   1  14
TORSDOF 3
ENDMDL