MODEL 1
REMARK VINA RESULT: -6.020500899      0.000      0.000
REMARK  7 active torsions:
REMARK  status: ('A' for Active; 'I' for Inactive)
REMARK    1  A    between atoms: C2_5  and  N3_6
REMARK    2  A    between atoms: C4_12  and  C5_13
REMARK    3  A    between atoms: C5_13  and  C6_14
REMARK    4  A    between atoms: C6_14  and  N5_15
REMARK    5  A    between atoms: C6_14  and  C7_19
REMARK    6  A    between atoms: C7_19  and  N6_20
REMARK    7  A    between atoms: N7_24  and  N8_25
ROOT
HETATM    1  C1  UNL     1       7.780  -8.808  43.650  1.00  0.00     0.179 C
HETATM    2  N1  UNL     1       6.477  -9.050  43.047  1.00  0.00    -0.276 N
HETATM    3  N2  UNL     1       5.271  -8.925  43.623  1.00  0.00    -0.280 N
ATOM      4  H2  UNL     1       5.108  -8.634  44.587  1.00  0.00     0.189 HD
HETATM    5  C2  UNL     1       4.317  -9.236  42.745  1.00  0.00     0.145 A
HETATM    6  C3  UNL     1       4.958  -9.569  41.573  1.00  0.00     0.127 A
HETATM    7  N4  UNL     1       4.817  -9.968  40.298  1.00  0.00    -0.338 N
ATOM      8  H4  UNL     1       3.929 -10.151  39.829  1.00  0.00     0.167 HD
HETATM    9  C4  UNL     1       6.035 -10.088  39.738  1.00  0.00     0.107 A
HETATM   10  N7  UNL     1       6.991  -9.772  40.630  1.00  0.00    -0.230 N
HETATM   11  C8  UNL     1       6.338  -9.452  41.762  1.00  0.00     0.175 A
ENDROOT
BRANCH   9  12
HETATM   12  C5  UNL     1       6.312 -10.505  38.346  1.00  0.00     0.113 C
BRANCH  12  13
HETATM   13  C6  UNL     1       6.702  -9.349  37.449  1.00  0.00     0.215 C
BRANCH  13  14
HETATM   14  N5  UNL     1       6.969  -9.930  36.133  1.00  0.00    -0.073 N
ATOM     15  H53 UNL     1       7.523 -10.787  36.171  1.00  0.00     0.274 HD
ATOM     16  H52 UNL     1       6.143 -10.336  35.692  1.00  0.00     0.274 HD
ATOM     17  H51 UNL     1       7.403  -9.191  35.581  1.00  0.00     0.274 HD
ENDBRANCH  13  14
BRANCH  13  18
HETATM   18  C7  UNL     1       5.541  -8.403  37.265  1.00  0.00     0.262 C
BRANCH  18  19
HETATM   19  N6  UNL     1       4.419  -9.067  36.665  1.00  0.00    -0.077 N
ATOM     20  H63 UNL     1       3.801  -8.407  36.194  1.00  0.00     0.274 HD
ATOM     21  H62 UNL     1       4.700  -9.623  35.858  1.00  0.00     0.274 HD
ATOM     22  H61 UNL     1       3.913  -9.630  37.349  1.00  0.00     0.274 HD
ENDBRANCH  18  19
ENDBRANCH  13  18
ENDBRANCH  12  13
ENDBRANCH   9  12
BRANCH  10  23
HETATM   23  N8  UNL     1       8.384  -9.770  40.445  1.00  0.00    -0.335 N
ATOM     24  H82 UNL     1       8.909  -9.163  39.814  1.00  0.00     0.177 HD
ATOM     25  H81 UNL     1       9.081 -10.359  40.900  1.00  0.00     0.177 HD
ENDBRANCH  10  23
BRANCH   5  26
HETATM   26  N3  UNL     1       3.058  -9.212  42.998  1.00  0.00    -0.382 N
ATOM     27  H32 UNL     1       2.583  -8.971  43.868  1.00  0.00     0.157 HD
ATOM     28  H31 UNL     1       2.328  -9.445  42.324  1.00  0.00     0.157 HD
ENDBRANCH   5  26
TORSDOF 7
ENDMDL