MODEL 5
REMARK VINA RESULT: -6.420783500      2.457      2.809
REMARK  5 active torsions:
REMARK  status: ('A' for Active; 'I' for Inactive)
REMARK       I    between atoms: C2_2  and  N1_4
REMARK    1  A    between atoms: N1_4  and  C3_6
REMARK    2  A    between atoms: C3_6  and  N2_7
REMARK    3  A    between atoms: C3_6  and  C4_11
REMARK    4  A    between atoms: N2_7  and  N3_8
REMARK       I    between atoms: C4_11  and  N4_13
REMARK    5  A    between atoms: N4_13  and  N5_15
ROOT
HETATM    1  C4  UNL     1       6.649  -9.630  40.717  1.00  0.00     0.277 C
HETATM    2  O2  UNL     1       7.843  -9.948  40.749  1.00  0.00    -0.268 OA
HETATM    3  N4  UNL     1       5.911  -9.428  39.557  1.00  0.00    -0.255 N
ATOM      4  H4  UNL     1       4.936  -9.169  39.709  1.00  0.00     0.191 HD
ENDROOT
BRANCH   1   5
HETATM    5  C3  UNL     1       5.982  -9.459  42.064  1.00  0.00     0.293 C
BRANCH   5   6
HETATM    6  N1  UNL     1       5.860  -8.057  42.396  1.00  0.00    -0.334 N
HETATM    7  C2  UNL     1       6.816  -7.410  43.202  1.00  0.00     0.215 C
HETATM    8  C1  UNL     1       6.690  -5.975  43.541  1.00  0.00     0.117 C
HETATM    9  O1  UNL     1       7.797  -8.057  43.646  1.00  0.00    -0.274 OA
ATOM     10  H1  UNL     1       5.065  -7.525  42.040  1.00  0.00     0.164 HD
ENDBRANCH   5   6
BRANCH   5  11
HETATM   11  N2  UNL     1       4.651 -10.074  41.947  1.00  0.00    -0.113 NA
BRANCH  11  12
HETATM   12  N3  UNL     1       4.013  -9.910  43.196  1.00  0.00    -0.346 N
ATOM     13  H32 UNL     1       3.123 -10.325  43.471  1.00  0.00     0.172 HD
ATOM     14  H31 UNL     1       4.611  -9.304  43.757  1.00  0.00     0.172 HD
ENDBRANCH  11  12
ENDBRANCH   5  11
ENDBRANCH   1   5
BRANCH   3  15
HETATM   15  N5  UNL     1       6.286  -9.522  38.231  1.00  0.00    -0.196 N
HETATM   16  C5  UNL     1       6.251  -8.484  37.336  1.00  0.00     0.228 A
HETATM   17  N6  UNL     1       6.678  -8.914  36.143  1.00  0.00    -0.290 N
HETATM   18  N7  UNL     1       6.986 -10.174  36.220  1.00  0.00    -0.249 N
ATOM     19  H6  UNL     1       6.751  -8.341  35.302  1.00  0.00     0.188 HD
HETATM   20  C6  UNL     1       6.743 -10.555  37.517  1.00  0.00     0.361 A
ATOM     21  H7  UNL     1       7.338 -10.764  35.467  1.00  0.00     0.192 HD
HETATM   22  O3  UNL     1       6.963 -11.734  37.846  1.00  0.00    -0.243 OA
ENDBRANCH   3  15
TORSDOF 5
ENDMDL