MODEL 5
REMARK VINA RESULT: -3.904030324      2.340      3.141
REMARK  4 active torsions:
REMARK  status: ('A' for Active; 'I' for Inactive)
REMARK    1  A    between atoms: N1_1  and  C1_4
REMARK    2  A    between atoms: C2_9  and  C3_10
REMARK    3  A    between atoms: C4_13  and  N5_14
REMARK    4  A    between atoms: N5_14  and  N6_16
ROOT
HETATM    1  C1  UNL     1      38.025  56.917  22.738  1.00  0.00     0.692 A
HETATM    2  N2  UNL     1      38.270  58.163  23.126  1.00  0.00    -0.132 N
ATOM      3  H2  UNL     1      37.522  58.713  23.548  1.00  0.00     0.205 HD
HETATM    4  N3  UNL     1      39.469  58.702  22.972  1.00  0.00    -0.278 N
ATOM      5  H3  UNL     1      39.635  59.661  23.277  1.00  0.00     0.188 HD
HETATM    6  C2  UNL     1      40.470  57.995  22.418  1.00  0.00     0.160 A
HETATM    7  C4  UNL     1      40.258  56.697  22.001  1.00  0.00     0.168 A
HETATM    8  N7  UNL     1      39.028  56.198  22.179  1.00  0.00    -0.172 N
ATOM      9  H7  UNL     1      38.839  55.240  21.882  1.00  0.00     0.186 HD
ENDROOT
BRANCH   7  10
HETATM   10  N5  UNL     1      41.220  56.057  21.482  1.00  0.00    -0.290 N
ATOM     11  H5  UNL     1      41.930  55.700  22.123  1.00  0.00     0.188 HD
BRANCH  10  12
HETATM   12  N6  UNL     1      41.407  55.791  20.143  1.00  0.00    -0.344 N
ATOM     13  H62 UNL     1      41.020  54.907  19.813  1.00  0.00     0.176 HD
ATOM     14  H61 UNL     1      41.887  56.382  19.464  1.00  0.00     0.176 HD
ENDBRANCH  10  12
ENDBRANCH   7  10
BRANCH   6  15
HETATM   15  C3  UNL     1      41.782  58.612  22.260  1.00  0.00     0.286 C
HETATM   16  N4  UNL     1      42.350  58.782  20.969  1.00  0.00    -0.056 NA
HETATM   17  O1  UNL     1      42.452  59.011  23.246  1.00  0.00    -0.269 OA
ENDBRANCH   6  15
BRANCH   1  18
HETATM   18  N1  UNL     1      36.845  56.411  22.898  1.00  0.00    -0.233 N
ATOM     19  H12 UNL     1      36.624  55.472  22.569  1.00  0.00     0.174 HD
ATOM     20  H11 UNL     1      36.118  56.955  23.362  1.00  0.00     0.174 HD
ENDBRANCH   1  18
TORSDOF 4
ENDMDL