MODEL 2
REMARK VINA RESULT: -4.183457225      1.857      4.735
REMARK  3 active torsions:
REMARK  status: ('A' for Active; 'I' for Inactive)
REMARK    1  A    between atoms: C2_2  and  N2_5
REMARK    2  A    between atoms: C2_2  and  N5_10
REMARK    3  A    between atoms: C6_14  and  N7_15
ROOT
HETATM    1  C1  UNL     1      36.056  58.022  21.906  1.00  0.00     0.082 C
HETATM    2  C2  UNL     1      37.272  57.608  22.743  1.00  0.00     0.214 C
HETATM    3  C3  UNL     1      37.625  58.684  23.645  1.00  0.00     0.115 C
HETATM    4  N1  UNL     1      37.905  59.552  24.346  1.00  0.00    -0.193 NA
ENDROOT
BRANCH   2   5
HETATM    5  N2  UNL     1      36.927  56.381  23.393  1.00  0.00    -0.327 N
HETATM    6  C4  UNL     1      36.023  56.204  24.261  1.00  0.00     0.199 C
HETATM    7  N3  UNL     1      35.226  57.286  24.685  1.00  0.00    -0.067 NA
HETATM    8  N4  UNL     1      35.812  54.920  24.805  1.00  0.00    -0.067 NA
ATOM      9  H2  UNL     1      37.470  55.558  23.128  1.00  0.00     0.165 HD
ENDBRANCH   2   5
BRANCH   2  10
HETATM   10  N5  UNL     1      38.334  57.351  21.758  1.00  0.00    -0.230 N
HETATM   11  C5  UNL     1      38.726  58.163  20.754  1.00  0.00     0.222 A
HETATM   12  N6  UNL     1      39.733  57.564  20.070  1.00  0.00    -0.185 N
HETATM   13  C6  UNL     1      39.965  56.372  20.658  1.00  0.00     0.691 A
ATOM     14  H6  UNL     1      40.224  57.946  19.262  1.00  0.00     0.185 HD
HETATM   15  N8  UNL     1      39.094  56.273  21.684  1.00  0.00    -0.126 N
ATOM     16  H8  UNL     1      39.031  55.475  22.316  1.00  0.00     0.206 HD
BRANCH  13  17
HETATM   17  N7  UNL     1      40.857  55.499  20.294  1.00  0.00    -0.233 N
ATOM     18  H72 UNL     1      41.597  55.622  19.604  1.00  0.00     0.174 HD
ATOM     19  H71 UNL     1      40.949  54.548  20.652  1.00  0.00     0.174 HD
ENDBRANCH  13  17
ENDBRANCH   2  10
TORSDOF 3
ENDMDL