MODEL 4
REMARK VINA RESULT: -3.959121376      6.912      7.661
REMARK  2 active torsions:
REMARK  status: ('A' for Active; 'I' for Inactive)
REMARK    1  A    between atoms: N1_1  and  C1_4
REMARK    2  A    between atoms: C3_9  and  C4_10
ROOT
HETATM    1  C1  UNL     1      40.612  56.091  21.052  1.00  0.00     0.680 A
HETATM    2  N2  UNL     1      40.928  57.012  22.010  1.00  0.00    -0.178 N
ATOM      3  H2  UNL     1      40.308  57.133  22.810  1.00  0.00     0.185 HD
HETATM    4  C2  UNL     1      42.033  57.756  21.918  1.00  0.00     0.154 A
HETATM    5  N3  UNL     1      42.373  58.737  22.915  1.00  0.00    -0.081 NA
HETATM    6  C3  UNL     1      42.909  57.628  20.850  1.00  0.00     0.150 A
HETATM    7  C5  UNL     1      42.574  56.685  19.886  1.00  0.00     0.280 A
HETATM    8  O3  UNL     1      43.357  56.547  18.909  1.00  0.00    -0.266 OA
HETATM    9  N4  UNL     1      41.457  55.966  20.024  1.00  0.00    -0.155 N
ATOM     10  H4  UNL     1      41.237  55.280  19.302  1.00  0.00     0.187 HD
ENDROOT
BRANCH   1  11
HETATM   11  N1  UNL     1      39.520  55.373  21.154  1.00  0.00    -0.234 N
ATOM     12  H12 UNL     1      38.902  55.203  20.360  1.00  0.00     0.174 HD
ATOM     13  H11 UNL     1      39.254  54.960  22.048  1.00  0.00     0.174 HD
ENDBRANCH   1  11
BRANCH   6  14
HETATM   14  C4  UNL     1      44.106  58.451  20.715  1.00  0.00     0.218 C
HETATM   15  O1  UNL     1      45.202  58.029  21.222  1.00  0.00    -0.644 OA
HETATM   16  O2  UNL     1      44.111  59.668  20.076  1.00  0.00    -0.644 OA
ENDBRANCH   6  14
TORSDOF 2
ENDMDL