MODEL 2
REMARK VINA RESULT: -4.806398668      3.420      6.510
REMARK  2 active torsions:
REMARK  status: ('A' for Active; 'I' for Inactive)
REMARK       I    between atoms: C2_2  and  N1_4
REMARK    1  A    between atoms: N1_4  and  N2_6
REMARK    2  A    between atoms: N2_6  and  C3_8
ROOT
HETATM    1  C3  UNL     1      36.233  55.971  24.938  1.00  0.00     0.204 A
HETATM    2  N3  UNL     1      35.446  54.998  25.466  1.00  0.00    -0.278 N
ATOM      3  H3  UNL     1      35.495  54.064  25.058  1.00  0.00     0.189 HD
HETATM    4  N4  UNL     1      34.623  55.195  26.476  1.00  0.00    -0.272 N
ATOM      5  H4  UNL     1      34.063  54.415  26.819  1.00  0.00     0.189 HD
HETATM    6  C4  UNL     1      34.501  56.395  27.068  1.00  0.00     0.210 A
HETATM    7  N5  UNL     1      33.625  56.638  28.154  1.00  0.00    -0.062 NA
HETATM    8  N6  UNL     1      35.277  57.391  26.560  1.00  0.00    -0.293 N
ATOM      9  H6  UNL     1      35.214  58.319  26.980  1.00  0.00     0.172 HD
HETATM   10  C5  UNL     1      36.121  57.209  25.531  1.00  0.00     0.294 A
HETATM   11  O2  UNL     1      36.837  58.154  25.070  1.00  0.00    -0.264 OA
ENDROOT
BRANCH   1  12
HETATM   12  N2  UNL     1      37.103  55.696  23.848  1.00  0.00    -0.277 N
ATOM     13  H2  UNL     1      37.659  54.841  23.848  1.00  0.00     0.189 HD
BRANCH  12  14
HETATM   14  N1  UNL     1      37.202  56.592  22.770  1.00  0.00    -0.269 N
HETATM   15  C2  UNL     1      38.445  57.038  22.253  1.00  0.00     0.232 C
HETATM   16  C1  UNL     1      38.428  57.986  21.108  1.00  0.00     0.119 C
HETATM   17  O1  UNL     1      39.548  56.647  22.745  1.00  0.00    -0.272 OA
ATOM     18  H1  UNL     1      36.344  56.937  22.341  1.00  0.00     0.190 HD
ENDBRANCH  12  14
ENDBRANCH   1  12
TORSDOF 2
ENDMDL