MODEL 5
REMARK VINA RESULT: -4.029001113      2.555      4.957
REMARK  3 active torsions:
REMARK  status: ('A' for Active; 'I' for Inactive)
REMARK    1  A    between atoms: C4_13  and  C5_14
REMARK    2  A    between atoms: C5_14  and  N4_15
REMARK    3  A    between atoms: C5_14  and  N5_19
ROOT
HETATM    1  N1  UNL     1      36.911  54.814  24.261  1.00  0.00    -0.393 N
ATOM      2  H11 UNL     1      36.297  54.193  24.787  1.00  0.00     0.156 HD
ATOM      3  H12 UNL     1      37.617  54.414  23.642  1.00  0.00     0.156 HD
HETATM    4  C1  UNL     1      36.815  56.095  24.360  1.00  0.00     0.121 A
HETATM    5  C2  UNL     1      37.692  56.980  23.609  1.00  0.00     0.277 A
HETATM    6  O1  UNL     1      38.578  56.542  22.834  1.00  0.00    -0.265 OA
HETATM    7  N2  UNL     1      37.561  58.408  23.740  1.00  0.00    -0.274 N
ATOM      8  H2  UNL     1      38.159  59.057  23.229  1.00  0.00     0.173 HD
HETATM    9  C3  UNL     1      36.543  58.856  24.629  1.00  0.00     0.327 A
HETATM   10  O2  UNL     1      36.402  60.105  24.766  1.00  0.00    -0.247 OA
HETATM   11  N3  UNL     1      35.716  57.939  25.336  1.00  0.00    -0.306 N
ATOM     12  H3  UNL     1      35.004  58.322  25.958  1.00  0.00     0.170 HD
HETATM   13  C4  UNL     1      35.807  56.667  25.243  1.00  0.00     0.103 A
ENDROOT
BRANCH  13  14
HETATM   14  C5  UNL     1      34.880  55.785  26.037  1.00  0.00     0.429 C
BRANCH  14  15
HETATM   15  N4  UNL     1      35.249  55.821  27.440  1.00  0.00    -0.045 N
ATOM     16  H43 UNL     1      35.919  56.563  27.641  1.00  0.00     0.277 HD
ATOM     17  H42 UNL     1      34.484  56.148  28.029  1.00  0.00     0.277 HD
ATOM     18  H41 UNL     1      35.592  54.906  27.731  1.00  0.00     0.277 HD
ENDBRANCH  14  15
BRANCH  14  19
HETATM   19  N5  UNL     1      33.513  56.219  25.936  1.00  0.00    -0.045 N
ATOM     20  H53 UNL     1      33.247  56.385  24.966  1.00  0.00     0.277 HD
ATOM     21  H52 UNL     1      32.867  55.460  26.152  1.00  0.00     0.277 HD
ATOM     22  H51 UNL     1      33.332  57.038  26.516  1.00  0.00     0.277 HD
ENDBRANCH  14  19
ENDBRANCH  13  14
TORSDOF 3
ENDMDL