MODEL 5
REMARK VINA RESULT: -3.948897554      2.306      5.182
REMARK  2 active torsions:
REMARK  status: ('A' for Active; 'I' for Inactive)
REMARK    1  A    between atoms: C3_9  and  C4_10
REMARK    2  A    between atoms: N5_13  and  N6_14
ROOT
HETATM    1  N1  UNL     1      43.152  58.306  21.502  1.00  0.00    -0.381 N
ATOM      2  H11 UNL     1      43.721  57.714  20.896  1.00  0.00     0.157 HD
ATOM      3  H12 UNL     1      43.609  59.142  21.866  1.00  0.00     0.157 HD
HETATM    4  C1  UNL     1      41.928  58.027  21.796  1.00  0.00     0.171 A
HETATM    5  N2  UNL     1      41.175  58.808  22.596  1.00  0.00    -0.325 N
ATOM      6  H2  UNL     1      41.590  59.655  22.985  1.00  0.00     0.169 HD
HETATM    7  C2  UNL     1      39.900  58.514  22.901  1.00  0.00     0.152 A
HETATM    8  N3  UNL     1      39.096  59.333  23.745  1.00  0.00    -0.080 NA
HETATM    9  C3  UNL     1      39.329  57.371  22.380  1.00  0.00     0.165 A
HETATM   10  N5  UNL     1      40.036  56.560  21.579  1.00  0.00    -0.215 N
HETATM   11  C5  UNL     1      41.308  56.896  21.303  1.00  0.00     0.310 A
HETATM   12  O2  UNL     1      42.004  56.158  20.554  1.00  0.00    -0.262 OA
ENDROOT
BRANCH  10  13
HETATM   13  N6  UNL     1      39.483  55.385  21.031  1.00  0.00    -0.335 N
ATOM     14  H62 UNL     1      38.484  55.200  21.126  1.00  0.00     0.177 HD
ATOM     15  H61 UNL     1      40.053  54.701  20.534  1.00  0.00     0.177 HD
ENDBRANCH  10  13
BRANCH   9  16
HETATM   16  C4  UNL     1      37.947  57.000  22.676  1.00  0.00     0.286 C
HETATM   17  N4  UNL     1      37.627  56.141  23.759  1.00  0.00    -0.056 NA
HETATM   18  O1  UNL     1      36.977  57.426  21.984  1.00  0.00    -0.269 OA
ENDBRANCH   9  16
TORSDOF 2
ENDMDL