MODEL 2
REMARK VINA RESULT: -4.333220339      1.283      1.293
REMARK  1 active torsions:
REMARK  status: ('A' for Active; 'I' for Inactive)
REMARK    1  A    between atoms: N1_1  and  N2_4
REMARK       I    between atoms: N2_4  and  C1_6
REMARK       I    between atoms: C1_6  and  N3_7
REMARK       I    between atoms: C1_6  and  N4_11
ROOT
HETATM    1  N2  UNL     1      34.877  57.415  26.473  1.00  0.00    -0.296 N
ATOM      2  H2  UNL     1      34.475  58.228  26.941  1.00  0.00     0.183 HD
HETATM    3  C1  UNL     1      34.501  57.078  25.153  1.00  0.00     0.412 C
HETATM    4  N3  UNL     1      33.918  55.745  25.159  1.00  0.00    -0.039 N
ATOM      5  H31 UNL     1      33.647  55.503  24.207  1.00  0.00     0.279 HD
ATOM      6  H32 UNL     1      33.145  55.660  25.820  1.00  0.00     0.279 HD
ATOM      7  H33 UNL     1      34.537  55.051  25.578  1.00  0.00     0.279 HD
HETATM    8  N4  UNL     1      35.587  57.112  24.192  1.00  0.00    -0.240 N
HETATM    9  C2  UNL     1      35.806  58.243  23.495  1.00  0.00     0.131 A
HETATM   10  N5  UNL     1      34.994  59.412  23.681  1.00  0.00    -0.082 NA
HETATM   11  C3  UNL     1      36.836  58.273  22.586  1.00  0.00     0.120 A
HETATM   12  C4  UNL     1      37.634  57.173  22.383  1.00  0.00     0.252 A
HETATM   13  O1  UNL     1      38.562  57.203  21.561  1.00  0.00    -0.268 OA
HETATM   14  N6  UNL     1      37.383  56.042  23.107  1.00  0.00    -0.275 N
ATOM     15  H6  UNL     1      37.959  55.210  22.978  1.00  0.00     0.173 HD
HETATM   16  C5  UNL     1      36.369  56.036  23.991  1.00  0.00     0.333 A
HETATM   17  O2  UNL     1      36.195  54.952  24.627  1.00  0.00    -0.246 OA
ENDROOT
BRANCH   1  18
HETATM   18  N1  UNL     1      35.782  56.632  27.100  1.00  0.00    -0.346 N
ATOM     19  H12 UNL     1      35.607  55.632  27.198  1.00  0.00     0.176 HD
ATOM     20  H11 UNL     1      36.628  57.069  27.465  1.00  0.00     0.176 HD
ENDBRANCH   1  18
TORSDOF 1
ENDMDL