MODEL 3
REMARK VINA RESULT: -5.020391957      1.542      5.378
REMARK  4 active torsions:
REMARK  status: ('A' for Active; 'I' for Inactive)
REMARK    1  A    between atoms: N1_1  and  C1_4
REMARK    2  A    between atoms: C2_9  and  C3_10
REMARK       I    between atoms: C3_10  and  N4_12
REMARK       I    between atoms: C4_14  and  N5_15
REMARK       I    between atoms: C4_14  and  N6_19
REMARK    3  A    between atoms: N5_15  and  O2_17
REMARK    4  A    between atoms: N6_19  and  N7_21
ROOT
HETATM    1  C3  UNL     1      36.348  56.695  23.457  1.00  0.00     0.305 C
HETATM    2  O1  UNL     1      35.678  57.433  22.694  1.00  0.00    -0.263 OA
HETATM    3  N4  UNL     1      37.524  56.123  22.953  1.00  0.00    -0.150 N
ATOM      4  H4  UNL     1      37.618  55.107  22.988  1.00  0.00     0.188 HD
HETATM    5  C4  UNL     1      38.497  56.803  22.446  1.00  0.00     0.719 C
HETATM    6  N5  UNL     1      38.380  58.219  22.390  1.00  0.00    -0.097 N
ATOM      7  H5  UNL     1      37.466  58.655  22.265  1.00  0.00     0.213 HD
HETATM    8  N6  UNL     1      39.621  56.088  21.978  1.00  0.00    -0.137 N
ATOM      9  H6  UNL     1      40.498  56.103  22.498  1.00  0.00     0.205 HD
ENDROOT
BRANCH   1  10
HETATM   10  C2  UNL     1      35.941  56.419  24.833  1.00  0.00     0.205 A
HETATM   11  N3  UNL     1      36.377  57.048  25.937  1.00  0.00    -0.266 N
HETATM   12  N2  UNL     1      35.772  56.513  27.004  1.00  0.00    -0.131 N
ATOM     13  H3  UNL     1      37.057  57.808  25.958  1.00  0.00     0.189 HD
HETATM   14  C1  UNL     1      34.945  55.538  26.595  1.00  0.00     0.692 A
ATOM     15  H2  UNL     1      35.916  56.801  27.972  1.00  0.00     0.205 HD
HETATM   16  N8  UNL     1      35.050  55.485  25.265  1.00  0.00    -0.169 N
ATOM     17  H8  UNL     1      34.540  54.840  24.663  1.00  0.00     0.186 HD
BRANCH  14  18
HETATM   18  N1  UNL     1      34.200  54.806  27.343  1.00  0.00    -0.233 N
ATOM     19  H12 UNL     1      33.245  55.004  27.641  1.00  0.00     0.174 HD
ATOM     20  H11 UNL     1      34.453  53.909  27.758  1.00  0.00     0.174 HD
ENDBRANCH  14  18
ENDBRANCH   1  10
BRANCH   6  21
HETATM   21  O2  UNL     1      39.415  58.934  22.497  1.00  0.00    -0.276 OA
ATOM     22  H2  UNL     1      39.326  59.871  22.628  1.00  0.00     0.245 HD
ENDBRANCH   6  21
BRANCH   8  23
HETATM   23  N7  UNL     1      39.512  55.365  20.799  1.00  0.00    -0.331 N
ATOM     24  H72 UNL     1      40.222  54.671  20.566  1.00  0.00     0.177 HD
ATOM     25  H71 UNL     1      38.720  55.544  20.182  1.00  0.00     0.177 HD
ENDBRANCH   8  23
TORSDOF 4
ENDMDL