MODEL 4
REMARK VINA RESULT: -4.557945812      1.874      5.331
REMARK  5 active torsions:
REMARK  status: ('A' for Active; 'I' for Inactive)
REMARK    1  A    between atoms: N1_1  and  C1_5
REMARK    2  A    between atoms: C1_5  and  N2_6
REMARK    3  A    between atoms: C1_5  and  O1_10
REMARK    4  A    between atoms: O1_10  and  N3_11
REMARK    5  A    between atoms: N3_11  and  C2_13
ROOT
HETATM    1  N3  UNL     1      37.828  56.413  22.444  1.00  0.00    -0.092 N
ATOM      2  H3  UNL     1      37.359  55.749  21.828  1.00  0.00     0.213 HD
ENDROOT
BRANCH   1   3
HETATM    3  O1  UNL     1      37.109  56.964  23.449  1.00  0.00    -0.205 OA
BRANCH   3   4
HETATM    4  C1  UNL     1      36.380  56.113  24.311  1.00  0.00     0.543 C
BRANCH   4   5
HETATM    5  N1  UNL     1      36.285  56.685  25.637  1.00  0.00    -0.025 N
ATOM      6  H13 UNL     1      36.867  56.189  26.311  1.00  0.00     0.279 HD
ATOM      7  H12 UNL     1      36.738  57.597  25.693  1.00  0.00     0.279 HD
ATOM      8  H11 UNL     1      35.308  56.724  25.928  1.00  0.00     0.279 HD
ENDBRANCH   4   5
BRANCH   4   9
HETATM    9  N2  UNL     1      36.991  54.805  24.385  1.00  0.00    -0.025 N
ATOM     10  H23 UNL     1      37.745  54.695  23.707  1.00  0.00     0.279 HD
ATOM     11  H22 UNL     1      37.539  54.685  25.236  1.00  0.00     0.279 HD
ATOM     12  H21 UNL     1      36.277  54.083  24.284  1.00  0.00     0.279 HD
ENDBRANCH   4   9
ENDBRANCH   3   4
ENDBRANCH   1   3
BRANCH   1  13
HETATM   13  C2  UNL     1      39.076  56.679  22.215  1.00  0.00     0.710 A
HETATM   14  N4  UNL     1      39.722  56.074  21.202  1.00  0.00    -0.139 N
HETATM   15  C3  UNL     1      41.018  56.336  20.949  1.00  0.00     0.342 A
ATOM     16  H4  UNL     1      39.222  55.405  20.616  1.00  0.00     0.189 HD
HETATM   17  O2  UNL     1      41.621  55.773  20.007  1.00  0.00    -0.246 OA
HETATM   18  N5  UNL     1      41.728  57.211  21.691  1.00  0.00    -0.260 N
HETATM   19  C4  UNL     1      41.087  57.816  22.700  1.00  0.00     0.342 A
ATOM     20  H5  UNL     1      42.709  57.403  21.493  1.00  0.00     0.175 HD
HETATM   21  O3  UNL     1      41.738  58.645  23.415  1.00  0.00    -0.246 OA
HETATM   22  N6  UNL     1      39.792  57.549  22.949  1.00  0.00    -0.139 N
ATOM     23  H6  UNL     1      39.334  58.027  23.725  1.00  0.00     0.189 HD
ENDBRANCH   1  13
TORSDOF 5
ENDMDL