MODEL 3
REMARK VINA RESULT: -4.313236319      5.729      6.573
REMARK  3 active torsions:
REMARK  status: ('A' for Active; 'I' for Inactive)
REMARK    1  A    between atoms: N1_1  and  N2_4
REMARK       I    between atoms: N2_4  and  C1_6
REMARK    2  A    between atoms: C1_6  and  C2_8
REMARK    3  A    between atoms: N4_11  and  N5_12
ROOT
HETATM    1  C2  UNL     1      36.364  57.086  25.008  1.00  0.00     0.147 A
HETATM    2  C3  UNL     1      37.021  58.067  24.249  1.00  0.00     0.177 A
HETATM    3  N3  UNL     1      37.157  59.451  24.565  1.00  0.00    -0.078 NA
HETATM    4  N4  UNL     1      37.522  57.508  23.141  1.00  0.00    -0.185 N
HETATM    5  N6  UNL     1      37.222  56.222  23.150  1.00  0.00    -0.243 N
ATOM      6  H6  UNL     1      37.480  55.553  22.425  1.00  0.00     0.192 HD
HETATM    7  C4  UNL     1      36.513  55.926  24.280  1.00  0.00     0.280 A
HETATM    8  O2  UNL     1      36.089  54.793  24.568  1.00  0.00    -0.266 OA
ENDROOT
BRANCH   1   9
HETATM    9  C1  UNL     1      35.711  57.339  26.260  1.00  0.00     0.278 C
HETATM   10  N2  UNL     1      36.293  56.991  27.486  1.00  0.00    -0.272 N
ATOM     11  H2  UNL     1      37.209  56.543  27.496  1.00  0.00     0.189 HD
HETATM   12  O1  UNL     1      34.576  57.895  26.260  1.00  0.00    -0.266 OA
BRANCH  10  13
HETATM   13  N1  UNL     1      35.637  57.249  28.698  1.00  0.00    -0.342 N
ATOM     14  H12 UNL     1      34.648  57.496  28.673  1.00  0.00     0.176 HD
ATOM     15  H11 UNL     1      36.133  57.192  29.588  1.00  0.00     0.176 HD
ENDBRANCH  10  13
ENDBRANCH   1   9
BRANCH   4  16
HETATM   16  N5  UNL     1      38.251  58.144  22.113  1.00  0.00    -0.323 N
ATOM     17  H52 UNL     1      39.150  58.607  22.250  1.00  0.00     0.179 HD
ATOM     18  H51 UNL     1      37.993  58.227  21.130  1.00  0.00     0.179 HD
ENDBRANCH   4  16
TORSDOF 3
ENDMDL