MODEL 4
REMARK VINA RESULT: -5.948626388      1.261      1.687
REMARK  5 active torsions:
REMARK  status: ('A' for Active; 'I' for Inactive)
REMARK    1  A    between atoms: C2_2  and  C3_3
REMARK    2  A    between atoms: C3_3  and  C4_4
REMARK    3  A    between atoms: C12_15  and  C14_17
REMARK    4  A    between atoms: C14_17  and  O2_19
REMARK    5  A    between atoms: O2_19  and  C15_20
ROOT
HETATM    1  C4  UNL     1     -12.075  13.806  40.802  1.00  0.00    -0.076 C
HETATM    2  C5  UNL     1     -10.778  14.012  40.825  1.00  0.00    -0.061 C
HETATM    3  C6  UNL     1      -9.658  13.198  40.218  1.00  0.00     0.113 C
HETATM    4  C7  UNL     1      -8.756  14.302  39.702  1.00  0.00     0.137 C
HETATM    5  O1  UNL     1      -8.683  14.412  38.516  1.00  0.00    -0.297 OA
HETATM    6  C8  UNL     1      -8.096  15.089  40.761  1.00  0.00     0.084 C
HETATM    7  C9  UNL     1      -9.235  15.915  41.386  1.00  0.00     0.057 C
HETATM    8  C10 UNL     1      -9.014  16.810  40.180  1.00  0.00     0.001 C
HETATM    9  N1  UNL     1      -9.742  17.480  39.441  1.00  0.00    -0.400 N
ATOM     10  H1  UNL     1     -10.720  17.403  39.721  1.00  0.00     0.158 HD
HETATM   11  C11 UNL     1      -9.606  18.301  38.346  1.00  0.00     0.145 C
HETATM   12  C12 UNL     1      -7.588  16.465  40.357  1.00  0.00     0.045 C
HETATM   13  C13 UNL     1      -7.019  17.140  41.620  1.00  0.00     0.026 C
HETATM   14  C19 UNL     1     -10.504  15.251  41.565  1.00  0.00    -0.010 C
HETATM   15  C20 UNL     1     -10.657  14.900  43.060  1.00  0.00     0.021 C
HETATM   16  C21 UNL     1     -11.767  16.051  41.250  1.00  0.00     0.019 C
HETATM   17  C22 UNL     1     -12.783  14.923  41.546  1.00  0.00     0.035 C
ENDROOT
BRANCH  12  18
HETATM   18  C14 UNL     1      -6.637  16.557  39.216  1.00  0.00     0.232 C
HETATM   19 CL1  UNL     1      -5.937  18.283  39.459  1.00  0.00    -0.094 Cl
BRANCH  18  20
HETATM   20  O2  UNL     1      -5.582  15.734  39.382  1.00  0.00    -0.360 OA
BRANCH  20  21
HETATM   21  C15 UNL     1      -4.829  15.191  38.456  1.00  0.00     0.052 C
HETATM   22  C16 UNL     1      -5.288  13.848  37.976  1.00  0.00     0.045 C
HETATM   23  C17 UNL     1      -3.433  14.928  39.085  1.00  0.00     0.045 C
HETATM   24  C18 UNL     1      -4.554  16.031  37.222  1.00  0.00     0.045 C
ENDBRANCH  20  21
ENDBRANCH  18  20
ENDBRANCH  12  18
BRANCH   1  25
HETATM   25  C3  UNL     1     -12.791  12.696  40.159  1.00  0.00     0.034 C
BRANCH  25  26
HETATM   26  C2  UNL     1     -13.055  13.054  38.718  1.00  0.00    -0.000 C
HETATM   27  C1  UNL     1     -14.466  12.674  38.377  1.00  0.00     0.005 C
ENDBRANCH  25  26
ENDBRANCH   1  25
TORSDOF 5
ENDMDL