MODEL 5
REMARK VINA RESULT: -6.810832236      2.422      4.229
REMARK  5 active torsions:
REMARK  status: ('A' for Active; 'I' for Inactive)
REMARK    1  A    between atoms: C2_2  and  C4_4
REMARK    2  A    between atoms: C4_4  and  C5_6
REMARK    3  A    between atoms: C5_6  and  N1_8
REMARK    4  A    between atoms: N1_8  and  C7_10
REMARK    5  A    between atoms: C7_10  and  C8_12
ROOT
HETATM    1  C8  UNL     1     -11.974  15.220  42.455  1.00  0.00     0.119 C
HETATM    2  C9  UNL     1     -12.298  15.148  43.921  1.00  0.00     0.054 C
HETATM    3  O1  UNL     1     -11.099  14.161  42.175  1.00  0.00    -0.343 OA
HETATM    4  C10 UNL     1      -9.817  14.454  42.634  1.00  0.00     0.267 C
HETATM    5  O2  UNL     1      -9.795  15.494  43.578  1.00  0.00    -0.350 OA
HETATM    6  C11 UNL     1     -10.064  16.707  42.928  1.00  0.00     0.067 C
HETATM    7  C12 UNL     1     -10.334  17.811  43.939  1.00  0.00     0.046 C
HETATM    8  C13 UNL     1      -8.758  17.064  42.281  1.00  0.00     0.039 C
HETATM    9  C14 UNL     1      -8.025  15.919  41.658  1.00  0.00     0.013 C
HETATM   10  C15 UNL     1      -8.841  14.664  41.509  1.00  0.00     0.049 C
HETATM   11  C16 UNL     1      -9.443  14.475  40.146  1.00  0.00    -0.040 C
HETATM   12  C17 UNL     1      -8.326  14.809  39.143  1.00  0.00     0.015 C
HETATM   13  C18 UNL     1      -9.676  12.981  39.949  1.00  0.00     0.015 C
HETATM   14  C19 UNL     1     -10.674  15.225  39.843  1.00  0.00     0.010 C
HETATM   15  C20 UNL     1     -10.912  16.485  40.576  1.00  0.00     0.012 C
HETATM   16  C21 UNL     1     -11.229  16.451  42.011  1.00  0.00     0.061 C
ENDROOT
BRANCH   1  17
HETATM   17  C7  UNL     1     -13.275  15.039  41.776  1.00  0.00     0.109 C
HETATM   18  S1  UNL     1     -14.300  16.286  41.649  1.00  0.00    -0.062 SA
BRANCH  17  19
HETATM   19  N1  UNL     1     -13.639  13.768  41.269  1.00  0.00    -0.375 N
ATOM     20  H1  UNL     1     -13.425  12.953  41.845  1.00  0.00     0.160 HD
BRANCH  19  21
HETATM   21  C5  UNL     1     -14.291  13.533  39.998  1.00  0.00     0.112 C
HETATM   22  C6  UNL     1     -13.331  13.095  38.913  1.00  0.00     0.035 C
BRANCH  21  23
HETATM   23  C4  UNL     1     -15.497  12.665  40.095  1.00  0.00     0.195 C
HETATM   24  F1  UNL     1     -15.123  11.336  40.202  1.00  0.00    -0.247 F
BRANCH  23  25
HETATM   25  C2  UNL     1     -16.347  12.965  41.314  1.00  0.00     0.013 C
HETATM   26  C1  UNL     1     -17.231  11.815  41.688  1.00  0.00     0.012 C
HETATM   27  C3  UNL     1     -17.247  14.128  40.925  1.00  0.00     0.012 C
ENDBRANCH  23  25
ENDBRANCH  21  23
ENDBRANCH  19  21
ENDBRANCH  17  19
ENDBRANCH   1  17
TORSDOF 5
ENDMDL