MODEL 1
REMARK VINA RESULT: -7.450722881      0.000      0.000
REMARK  5 active torsions:
REMARK  status: ('A' for Active; 'I' for Inactive)
REMARK    1  A    between atoms: C2_2  and  C3_3
REMARK    2  A    between atoms: C3_3  and  N1_4
REMARK       I    between atoms: N1_4  and  C4_6
REMARK    3  A    between atoms: C4_6  and  C5_8
REMARK    4  A    between atoms: C11_14  and  C12_15
REMARK    5  A    between atoms: C14_18  and  C15_19
ROOT
HETATM    1  C5  UNL     1      -7.864  15.690  39.122  1.00  0.00     0.100 C
HETATM    2  C6  UNL     1      -8.350  14.329  39.433  1.00  0.00     0.040 C
HETATM    3  C7  UNL     1      -9.482  14.333  40.454  1.00  0.00     0.081 C
HETATM    4  C8  UNL     1      -8.878  14.602  41.798  1.00  0.00     0.025 C
HETATM    5  C9  UNL     1      -9.899  14.883  42.829  1.00  0.00     0.004 C
HETATM    6  C10 UNL     1     -11.025  15.744  42.406  1.00  0.00     0.031 C
HETATM    7  C11 UNL     1     -11.543  15.470  41.019  1.00  0.00     0.131 C
HETATM    8  N3  UNL     1     -10.548  15.169  40.058  1.00  0.00    -0.397 N
HETATM    9  C19 UNL     1     -10.326  16.217  39.135  1.00  0.00     0.139 C
HETATM   10  C20 UNL     1      -8.948  16.708  38.916  1.00  0.00     0.113 C
HETATM   11 CL1  UNL     1      -8.616  18.218  39.830  1.00  0.00    -0.122 Cl
ENDROOT
BRANCH   7  12
HETATM   12  C12 UNL     1     -12.729  14.570  41.005  1.00  0.00     0.056 A
HETATM   13  C13 UNL     1     -13.861  14.605  41.806  1.00  0.00     0.171 A
HETATM   14  O2  UNL     1     -14.666  13.639  41.430  1.00  0.00    -0.307 OA
HETATM   15  C14 UNL     1     -14.161  12.961  40.437  1.00  0.00     0.131 A
HETATM   16  N2  UNL     1     -12.972  13.523  40.170  1.00  0.00    -0.340 N
ATOM     17  H2  UNL     1     -12.336  13.207  39.438  1.00  0.00     0.167 HD
BRANCH  15  18
HETATM   18  C15 UNL     1     -14.785  11.802  39.745  1.00  0.00     0.014 C
HETATM   19  C16 UNL     1     -13.848  10.628  39.784  1.00  0.00     0.023 C
HETATM   20  C17 UNL     1     -14.989  12.193  38.308  1.00  0.00     0.023 C
HETATM   21  C18 UNL     1     -16.087  11.373  40.372  1.00  0.00     0.023 C
ENDBRANCH  15  18
ENDBRANCH   7  12
BRANCH   1  22
HETATM   22  C4  UNL     1      -6.919  15.646  37.996  1.00  0.00     0.223 C
HETATM   23  N1  UNL     1      -6.126  14.544  37.603  1.00  0.00    -0.361 N
ATOM     24  H1  UNL     1      -6.168  13.668  38.122  1.00  0.00     0.162 HD
HETATM   25  O1  UNL     1      -6.815  16.718  37.313  1.00  0.00    -0.273 OA
BRANCH  23  26
HETATM   26  C3  UNL     1      -5.246  14.675  36.445  1.00  0.00     0.122 C
BRANCH  26  27
HETATM   27  C2  UNL     1      -5.855  14.061  35.200  1.00  0.00     0.015 C
HETATM   28  C1  UNL     1      -5.116  12.785  34.823  1.00  0.00     0.006 C
ENDBRANCH  26  27
ENDBRANCH  23  26
ENDBRANCH   1  22
TORSDOF 5
ENDMDL