MODEL 1
REMARK VINA RESULT: -6.098675350      0.000      0.000
REMARK  6 active torsions:
REMARK  status: ('A' for Active; 'I' for Inactive)
REMARK    1  A    between atoms: C6_6  and  C7_7
REMARK    2  A    between atoms: C7_7  and  C8_8
REMARK    3  A    between atoms: C8_8  and  O1_9
REMARK    4  A    between atoms: C12_15  and  C14_17
REMARK    5  A    between atoms: C14_17  and  O3_19
REMARK    6  A    between atoms: O3_19  and  C15_20
ROOT
HETATM    1  C1  UNL     1     -10.691  13.353  39.657  1.00  0.00     0.015 C
HETATM    2  C2  UNL     1     -11.790  13.962  39.854  1.00  0.00    -0.084 C
HETATM    3  C3  UNL     1     -12.977  13.287  39.169  1.00  0.00     0.034 C
HETATM    4  C4  UNL     1     -13.359  12.437  40.404  1.00  0.00     0.005 C
HETATM    5  C5  UNL     1     -13.822  13.328  41.462  1.00  0.00     0.013 C
HETATM    6  C6  UNL     1     -13.239  14.698  41.701  1.00  0.00     0.001 C
HETATM    7  C9  UNL     1     -12.634  14.676  43.065  1.00  0.00     0.179 C
HETATM    8  F1  UNL     1     -13.025  15.780  43.802  1.00  0.00    -0.249 F
HETATM    9  C10 UNL     1     -11.097  14.688  43.051  1.00  0.00     0.044 C
HETATM   10  C11 UNL     1     -10.697  15.964  42.408  1.00  0.00     0.015 C
HETATM   11  C12 UNL     1      -9.390  16.564  42.717  1.00  0.00     0.049 C
HETATM   12  C13 UNL     1      -8.174  15.705  42.516  1.00  0.00     0.026 C
HETATM   13  C17 UNL     1      -9.274  17.896  42.005  1.00  0.00     0.020 C
HETATM   14  C18 UNL     1     -10.450  18.460  41.360  1.00  0.00     0.002 C
HETATM   15  C19 UNL     1     -11.633  17.599  41.016  1.00  0.00     0.010 C
HETATM   16  C20 UNL     1     -11.199  16.107  40.995  1.00  0.00    -0.031 C
HETATM   17  C21 UNL     1     -10.158  16.171  39.910  1.00  0.00     0.016 C
HETATM   18  C22 UNL     1     -12.241  15.144  40.629  1.00  0.00     0.033 C
ENDROOT
BRANCH  11  19
HETATM   19  C14 UNL     1      -9.384  16.876  44.205  1.00  0.00     0.267 C
HETATM   20  O2  UNL     1      -8.876  16.133  45.060  1.00  0.00    -0.264 OA
BRANCH  19  21
HETATM   21  O3  UNL     1      -9.977  18.056  44.666  1.00  0.00    -0.321 OA
BRANCH  21  22
HETATM   22  C15 UNL     1     -11.245  18.074  45.296  1.00  0.00     0.174 C
HETATM   23  C16 UNL     1     -12.251  18.913  44.587  1.00  0.00     0.034 C
ENDBRANCH  21  22
ENDBRANCH  19  21
ENDBRANCH  11  19
BRANCH   6  24
HETATM   24  C7  UNL     1     -14.461  15.585  41.633  1.00  0.00     0.039 C
BRANCH  24  25
HETATM   25  C8  UNL     1     -15.788  14.963  41.892  1.00  0.00     0.165 C
BRANCH  25  26
HETATM   26  O1  UNL     1     -16.213  15.349  43.207  1.00  0.00    -0.401 OA
ATOM     27  H1  UNL     1     -16.806  16.087  43.121  1.00  0.00     0.209 HD
ENDBRANCH  25  26
ENDBRANCH  24  25
ENDBRANCH   6  24
TORSDOF 6
ENDMDL