MODEL 3
REMARK VINA RESULT: -7.570851307      3.673      6.664
REMARK  7 active torsions:
REMARK  status: ('A' for Active; 'I' for Inactive)
REMARK    1  A    between atoms: O1_2  and  C2_3
REMARK    2  A    between atoms: C2_3  and  C3_5
REMARK    3  A    between atoms: C3_5  and  C4_6
REMARK    4  A    between atoms: C14_16  and  O3_17
REMARK    5  A    between atoms: C14_16  and  C15_19
REMARK    6  A    between atoms: C15_19  and  C16_20
REMARK    7  A    between atoms: C16_20  and  C18_22
ROOT
HETATM    1  C4  UNL     1     -12.821  11.511  39.327  1.00  0.00     0.004 C
HETATM    2  C5  UNL     1     -12.134  12.647  38.632  1.00  0.00     0.012 C
HETATM    3  C6  UNL     1     -13.174  13.571  39.235  1.00  0.00     0.003 C
HETATM    4  C7  UNL     1     -12.845  14.046  40.634  1.00  0.00     0.020 C
HETATM    5  C8  UNL     1     -11.846  15.152  40.698  1.00  0.00     0.022 C
HETATM    6  C9  UNL     1     -12.462  16.150  41.610  1.00  0.00    -0.005 C
HETATM    7  C10 UNL     1     -12.036  17.519  41.128  1.00  0.00     0.019 C
HETATM    8  C11 UNL     1     -13.955  15.964  41.524  1.00  0.00     0.026 C
HETATM    9  C12 UNL     1     -14.484  16.197  42.922  1.00  0.00     0.013 C
HETATM   10  C13 UNL     1     -13.416  15.532  43.757  1.00  0.00     0.039 C
HETATM   11  C14 UNL     1     -12.159  16.004  43.074  1.00  0.00     0.066 C
HETATM   12  C19 UNL     1     -14.133  14.543  41.194  1.00  0.00    -0.074 C
HETATM   13  C20 UNL     1     -15.094  13.625  41.253  1.00  0.00    -0.022 C
HETATM   14  C21 UNL     1     -14.725  12.270  40.755  1.00  0.00     0.037 C
HETATM   15  C22 UNL     1     -14.069  12.354  39.385  1.00  0.00    -0.033 C
HETATM   16  C23 UNL     1     -15.032  12.154  38.235  1.00  0.00     0.016 C
ENDROOT
BRANCH  11  17
HETATM   17  O3  UNL     1     -11.914  17.325  43.530  1.00  0.00    -0.389 OA
ATOM     18  H3  UNL     1     -12.653  17.531  44.091  1.00  0.00     0.210 HD
ENDBRANCH  11  17
BRANCH  11  19
HETATM   19  C15 UNL     1     -10.989  15.170  43.388  1.00  0.00     0.045 C
BRANCH  19  20
HETATM   20  C16 UNL     1      -9.705  15.923  43.344  1.00  0.00     0.013 C
HETATM   21  C17 UNL     1      -9.139  16.127  44.757  1.00  0.00     0.012 C
BRANCH  20  22
HETATM   22  C18 UNL     1      -8.630  15.395  42.472  1.00  0.00     0.226 C
HETATM   23  F1  UNL     1      -8.954  14.218  41.835  1.00  0.00    -0.255 F
ENDBRANCH  20  22
ENDBRANCH  19  20
ENDBRANCH  11  19
BRANCH   1  24
HETATM   24  C3  UNL     1     -12.934  10.235  38.532  1.00  0.00     0.116 C
BRANCH  24  25
HETATM   25  C2  UNL     1     -11.917  10.289  37.448  1.00  0.00     0.258 C
HETATM   26  O2  UNL     1     -12.222  10.518  36.238  1.00  0.00    -0.265 OA
BRANCH  25  27
HETATM   27  O1  UNL     1     -10.552  10.089  37.696  1.00  0.00    -0.326 OA
HETATM   28  C1  UNL     1     -10.089   9.526  38.905  1.00  0.00     0.213 C
ENDBRANCH  25  27
ENDBRANCH  24  25
ENDBRANCH   1  24
TORSDOF 7
ENDMDL