MODEL 4
REMARK VINA RESULT: -6.480759035      2.643      4.826
REMARK  6 active torsions:
REMARK  status: ('A' for Active; 'I' for Inactive)
REMARK    1  A    between atoms: C2_2  and  C3_3
REMARK    2  A    between atoms: C4_4  and  C5_5
REMARK    3  A    between atoms: C5_5  and  C6_6
REMARK    4  A    between atoms: C6_6  and  C7_7
REMARK    5  A    between atoms: C7_7  and  N1_8
REMARK    6  A    between atoms: C17_19  and  O2_20
ROOT
HETATM    1  N1  UNL     1     -13.766  12.931  39.251  1.00  0.00     0.112 N
HETATM    2  C8  UNL     1     -12.964  11.865  39.833  1.00  0.00     0.300 C
HETATM    3  C9  UNL     1     -12.995  11.953  41.335  1.00  0.00     0.199 C
HETATM    4  O1  UNL     1     -13.550  13.038  41.894  1.00  0.00    -0.374 OA
HETATM    5  C10 UNL     1     -13.687  14.208  41.236  1.00  0.00     0.116 C
HETATM    6  C11 UNL     1     -15.116  14.688  41.400  1.00  0.00     0.021 C
HETATM    7  C12 UNL     1     -16.154  13.668  41.068  1.00  0.00     0.013 C
HETATM    8  C13 UNL     1     -15.173  14.925  42.909  1.00  0.00     0.013 C
HETATM    9  C14 UNL     1     -13.761  15.389  43.237  1.00  0.00     0.003 C
HETATM   10  C15 UNL     1     -13.841  16.695  43.928  1.00  0.00     0.015 C
HETATM   11  C16 UNL     1     -12.735  16.955  44.932  1.00  0.00     0.013 C
HETATM   12  C17 UNL     1     -14.021  17.864  42.985  1.00  0.00     0.122 C
HETATM   13  C18 UNL     1     -12.897  17.853  42.006  1.00  0.00     0.033 C
HETATM   14  C19 UNL     1     -12.902  16.588  41.196  1.00  0.00     0.015 C
HETATM   15  C20 UNL     1     -12.962  15.335  41.991  1.00  0.00    -0.005 C
HETATM   16  C21 UNL     1     -11.548  14.953  42.366  1.00  0.00     0.019 C
HETATM   17  C22 UNL     1     -13.290  14.197  39.780  1.00  0.00     0.353 C
HETATM   18 CL1  UNL     1     -11.518  14.151  39.668  1.00  0.00    -0.089 Cl
ENDROOT
BRANCH   1  19
HETATM   19  C7  UNL     1     -13.831  12.850  37.826  1.00  0.00     0.275 C
BRANCH  19  20
HETATM   20  C6  UNL     1     -15.102  12.352  37.246  1.00  0.00     0.034 C
BRANCH  20  21
HETATM   21  C5  UNL     1     -14.828  11.229  36.279  1.00  0.00     0.028 C
BRANCH  21  22
HETATM   22  C4  UNL     1     -13.412  10.707  36.413  1.00  0.00    -0.031 C
HETATM   23  C3  UNL     1     -13.206   9.415  36.351  1.00  0.00    -0.031 C
BRANCH  23  24
HETATM   24  C2  UNL     1     -11.878   8.807  36.468  1.00  0.00     0.022 C
HETATM   25  C1  UNL     1     -10.927   9.632  37.279  1.00  0.00     0.009 C
ENDBRANCH  23  24
ENDBRANCH  21  22
ENDBRANCH  20  21
ENDBRANCH  19  20
ENDBRANCH   1  19
BRANCH  12  26
HETATM   26  O2  UNL     1     -14.000  19.036  43.741  1.00  0.00    -0.395 OA
ATOM     27  H2  UNL     1     -13.786  19.757  43.160  1.00  0.00     0.210 HD
ENDBRANCH  12  26
TORSDOF 6
ENDMDL