MODEL 5
REMARK VINA RESULT: -7.472099357      3.766      6.701
REMARK  4 active torsions:
REMARK  status: ('A' for Active; 'I' for Inactive)
REMARK       I    between atoms: C2_2  and  N1_4
REMARK    1  A    between atoms: N1_4  and  C3_6
REMARK    2  A    between atoms: C5_8  and  O2_9
REMARK    3  A    between atoms: O2_9  and  C6_10
REMARK    4  A    between atoms: C9_13  and  C10_14
REMARK       I    between atoms: C10_14  and  N2_16
ROOT
HETATM    1  C3  UNL     1     -14.305  16.363  42.460  1.00  0.00     0.059 A
HETATM    2  C4  UNL     1     -15.098  15.248  42.598  1.00  0.00     0.069 A
HETATM    3  C5  UNL     1     -14.879  14.034  41.968  1.00  0.00     0.087 A
HETATM    4  C9  UNL     1     -13.760  13.962  41.132  1.00  0.00     0.067 A
HETATM    5  C19 UNL     1     -12.947  15.055  40.971  1.00  0.00     0.046 A
HETATM    6  C20 UNL     1     -13.189  16.235  41.605  1.00  0.00     0.061 A
HETATM    7 CL1  UNL     1     -12.140  17.636  41.393  1.00  0.00    -0.082 Cl
ENDROOT
BRANCH   4   8
HETATM    8  C10 UNL     1     -13.480  12.718  40.446  1.00  0.00     0.257 C
HETATM    9  O3  UNL     1     -12.551  11.930  40.838  1.00  0.00    -0.267 OA
HETATM   10  N2  UNL     1     -14.211  12.295  39.302  1.00  0.00    -0.343 N
HETATM   11  C11 UNL     1     -15.301  13.060  38.712  1.00  0.00     0.127 C
HETATM   12  C18 UNL     1     -14.100  11.130  38.491  1.00  0.00     0.091 C
HETATM   13  C12 UNL     1     -15.173  12.777  37.209  1.00  0.00     0.026 C
HETATM   14  C13 UNL     1     -14.086  11.760  37.090  1.00  0.00     0.010 C
HETATM   15  C14 UNL     1     -14.368  10.655  36.136  1.00  0.00     0.007 C
HETATM   16  C15 UNL     1     -13.221   9.671  36.209  1.00  0.00     0.001 C
HETATM   17  C16 UNL     1     -12.891   9.227  37.583  1.00  0.00     0.002 C
HETATM   18  C17 UNL     1     -12.844  10.349  38.607  1.00  0.00     0.026 C
ENDBRANCH   4   8
BRANCH   3  19
HETATM   19  O2  UNL     1     -15.634  12.916  42.077  1.00  0.00    -0.346 OA
BRANCH  19  20
HETATM   20  C6  UNL     1     -17.003  12.851  42.029  1.00  0.00     0.120 C
HETATM   21  C7  UNL     1     -17.620  13.949  41.164  1.00  0.00     0.040 C
HETATM   22  C8  UNL     1     -17.496  11.510  41.455  1.00  0.00     0.040 C
ENDBRANCH  19  20
ENDBRANCH   3  19
BRANCH   1  23
HETATM   23  N1  UNL     1     -14.531  17.596  43.103  1.00  0.00    -0.326 N
HETATM   24  C2  UNL     1     -13.962  18.034  44.303  1.00  0.00     0.218 C
HETATM   25  C1  UNL     1     -14.347  19.420  44.828  1.00  0.00     0.117 C
HETATM   26  O1  UNL     1     -13.159  17.376  44.984  1.00  0.00    -0.274 OA
ATOM     27  H1  UNL     1     -15.178  18.237  42.644  1.00  0.00     0.169 HD
ENDBRANCH   1  23
TORSDOF 4
ENDMDL