MODEL 3
REMARK VINA RESULT: -7.167720383      2.429      3.511
REMARK  5 active torsions:
REMARK  status: ('A' for Active; 'I' for Inactive)
REMARK    1  A    between atoms: C7_7  and  O1_8
REMARK    2  A    between atoms: C7_7  and  C8_10
REMARK    3  A    between atoms: C8_10  and  O2_11
REMARK    4  A    between atoms: O2_11  and  C9_12
REMARK    5  A    between atoms: C17_21  and  C18_22
ROOT
HETATM    1  C1  UNL     1     -10.274  18.281  41.594  1.00  0.00     0.010 C
HETATM    2  C2  UNL     1     -11.587  17.853  42.294  1.00  0.00    -0.014 C
HETATM    3  C3  UNL     1     -11.234  17.402  43.613  1.00  0.00     0.005 C
HETATM    4  C4  UNL     1     -12.128  16.619  44.461  1.00  0.00     0.006 C
HETATM    5  C5  UNL     1     -12.982  15.543  43.915  1.00  0.00     0.001 C
HETATM    6  C6  UNL     1     -12.278  14.457  43.200  1.00  0.00     0.046 C
HETATM    7  C7  UNL     1     -11.661  14.732  41.884  1.00  0.00     0.087 C
HETATM    8  C15 UNL     1     -12.362  15.734  41.033  1.00  0.00     0.049 C
HETATM    9  C16 UNL     1     -13.756  15.171  41.037  1.00  0.00    -0.008 C
HETATM   10  C17 UNL     1     -14.596  15.284  42.086  1.00  0.00    -0.015 C
HETATM   11  C19 UNL     1     -14.321  15.972  43.356  1.00  0.00    -0.010 C
HETATM   12  C20 UNL     1     -15.448  15.767  44.333  1.00  0.00     0.021 C
HETATM   13  C21 UNL     1     -14.344  17.446  42.999  1.00  0.00     0.015 C
HETATM   14  C22 UNL     1     -13.907  17.642  41.566  1.00  0.00     0.007 C
HETATM   15  C23 UNL     1     -12.455  17.137  41.361  1.00  0.00    -0.000 C
ENDROOT
BRANCH   7  16
HETATM   16  O1  UNL     1     -10.274  14.781  41.856  1.00  0.00    -0.387 OA
ATOM     17  H1  UNL     1      -9.885  15.648  41.826  1.00  0.00     0.210 HD
ENDBRANCH   7  16
BRANCH   7  18
HETATM   18  C8  UNL     1     -11.856  13.404  41.090  1.00  0.00     0.206 C
BRANCH  18  19
HETATM   19  O2  UNL     1     -10.765  13.146  40.307  1.00  0.00    -0.383 OA
BRANCH  19  20
HETATM   20  C9  UNL     1     -11.117  12.441  39.197  1.00  0.00     0.121 C
HETATM   21  C10 UNL     1     -10.855  10.965  39.477  1.00  0.00     0.035 C
HETATM   22  C11 UNL     1     -11.102  10.146  38.228  1.00  0.00     0.040 C
HETATM   23  C12 UNL     1     -12.611  10.224  37.966  1.00  0.00     0.170 C
HETATM   24  F1  UNL     1     -13.320   9.769  39.055  1.00  0.00    -0.249 F
HETATM   25  C13 UNL     1     -12.917  11.671  37.683  1.00  0.00     0.040 C
HETATM   26  C14 UNL     1     -12.574  12.576  38.824  1.00  0.00     0.035 C
ENDBRANCH  19  20
ENDBRANCH  18  19
ENDBRANCH   7  18
BRANCH  10  27
HETATM   27  C18 UNL     1     -15.860  14.650  41.808  1.00  0.00     0.266 C
HETATM   28  O3  UNL     1     -16.049  13.465  41.531  1.00  0.00    -0.302 OA
ENDBRANCH  10  27
TORSDOF 5
ENDMDL