MODEL 5
REMARK VINA RESULT: -6.462421340      2.748      4.287
REMARK  4 active torsions:
REMARK  status: ('A' for Active; 'I' for Inactive)
REMARK    1  A    between atoms: O1_2  and  C2_3
REMARK    2  A    between atoms: C7_9  and  O2_10
REMARK    3  A    between atoms: C13_16  and  C15_18
REMARK    4  A    between atoms: C15_18  and  O3_19
ROOT
HETATM    1  C2  UNL     1     -10.342  12.125  39.897  1.00  0.00     0.103 A
HETATM    2  C3  UNL     1      -9.224  12.883  39.637  1.00  0.00     0.059 A
HETATM    3  C4  UNL     1      -9.336  14.274  39.718  1.00  0.00     0.020 A
HETATM    4 BR1  UNL     1      -7.794  15.350  39.360  1.00  0.00    -0.050 Br
HETATM    5  C5  UNL     1     -10.530  14.835  40.048  1.00  0.00    -0.031 A
HETATM    6  C6  UNL     1     -11.699  14.097  40.323  1.00  0.00    -0.010 A
HETATM    7  C7  UNL     1     -11.552  12.740  40.232  1.00  0.00     0.108 A
HETATM    8  C9  UNL     1     -12.854  14.884  40.670  1.00  0.00     0.027 C
HETATM    9  C10 UNL     1     -14.143  14.227  40.972  1.00  0.00     0.010 C
HETATM   10  C11 UNL     1     -14.987  15.266  41.744  1.00  0.00     0.002 C
HETATM   11  C12 UNL     1     -14.407  15.298  43.148  1.00  0.00     0.012 C
HETATM   12  C13 UNL     1     -12.909  15.508  43.118  1.00  0.00    -0.018 C
HETATM   13  C14 UNL     1     -12.113  14.359  43.626  1.00  0.00     0.018 C
HETATM   14  C16 UNL     1     -12.526  15.945  41.706  1.00  0.00     0.004 C
HETATM   15  C17 UNL     1     -11.151  16.477  41.611  1.00  0.00     0.011 C
HETATM   16  C18 UNL     1     -10.667  16.308  40.159  1.00  0.00     0.041 C
ENDROOT
BRANCH  12  17
HETATM   17  C15 UNL     1     -12.607  16.696  44.013  1.00  0.00     0.173 C
BRANCH  17  18
HETATM   18  O3  UNL     1     -12.906  16.371  45.349  1.00  0.00    -0.400 OA
ATOM     19  H3  UNL     1     -12.123  16.452  45.880  1.00  0.00     0.209 HD
ENDBRANCH  17  18
ENDBRANCH  12  17
BRANCH   7  20
HETATM   20  O2  UNL     1     -12.587  11.912  40.466  1.00  0.00    -0.353 OA
HETATM   21  C8  UNL     1     -13.370  11.268  39.470  1.00  0.00     0.210 C
ENDBRANCH   7  20
BRANCH   1  22
HETATM   22  O1  UNL     1     -10.237  10.756  39.818  1.00  0.00    -0.353 OA
HETATM   23  C1  UNL     1      -9.983  10.062  38.616  1.00  0.00     0.210 C
ENDBRANCH   1  22
TORSDOF 4
ENDMDL