MODEL 1
REMARK VINA RESULT: -8.513305381      0.000      0.000
REMARK  4 active torsions:
REMARK  status: ('A' for Active; 'I' for Inactive)
REMARK    1  A    between atoms: C2_2  and  N1_3
REMARK       I    between atoms: N1_3  and  C3_5
REMARK    2  A    between atoms: C3_5  and  C4_7
REMARK    3  A    between atoms: C6_11  and  N3_12
REMARK    4  A    between atoms: N3_12  and  C8_14
ROOT
HETATM    1  C4  UNL     1      -7.753  14.928  39.193  1.00  0.00     0.122 A
HETATM    2  N2  UNL     1      -7.927  13.731  39.826  1.00  0.00    -0.358 N
ATOM      3  H2  UNL     1      -7.104  13.164  40.032  1.00  0.00     0.165 HD
HETATM    4  C5  UNL     1      -9.131  13.268  40.190  1.00  0.00     0.117 A
HETATM    5  C6  UNL     1     -10.234  14.073  39.892  1.00  0.00     0.047 A
HETATM    6  C20 UNL     1     -10.096  15.281  39.255  1.00  0.00     0.057 A
HETATM    7  C21 UNL     1      -8.830  15.724  38.894  1.00  0.00     0.068 A
HETATM    8 CL1  UNL     1      -8.624  17.259  38.077  1.00  0.00    -0.082 Cl
ENDROOT
BRANCH   5   9
HETATM    9  N3  UNL     1     -11.509  13.632  40.287  1.00  0.00    -0.374 N
HETATM   10  C7  UNL     1     -12.070  14.335  41.459  1.00  0.00     0.150 C
BRANCH   9  11
HETATM   11  C8  UNL     1     -12.295  12.607  39.676  1.00  0.00     0.034 C
HETATM   12  C9  UNL     1     -12.968  11.726  40.693  1.00  0.00     0.035 C
HETATM   13  C10 UNL     1     -13.773  10.659  39.959  1.00  0.00    -0.011 C
HETATM   14  C11 UNL     1     -12.867   9.802  39.114  1.00  0.00     0.014 C
HETATM   15  C17 UNL     1     -14.852  11.345  39.188  1.00  0.00     0.014 C
HETATM   16  C12 UNL     1     -12.266  10.727  38.063  1.00  0.00    -0.041 C
HETATM   17  C13 UNL     1     -11.369   9.967  37.101  1.00  0.00     0.015 C
HETATM   18  C14 UNL     1     -13.374  11.343  37.271  1.00  0.00     0.018 C
HETATM   19  C19 UNL     1     -11.412  11.715  38.810  1.00  0.00     0.040 C
HETATM   20  C15 UNL     1     -14.215  12.253  38.161  1.00  0.00    -0.041 C
HETATM   21  C16 UNL     1     -15.246  12.924  37.303  1.00  0.00     0.015 C
HETATM   22  C18 UNL     1     -13.287  13.273  38.749  1.00  0.00     0.040 C
ENDBRANCH   9  11
ENDBRANCH   5   9
BRANCH   1  23
HETATM   23  C3  UNL     1      -6.409  15.374  38.872  1.00  0.00     0.269 C
HETATM   24  N1  UNL     1      -5.856  15.050  37.617  1.00  0.00    -0.356 N
ATOM     25  H1  UNL     1      -6.444  14.511  36.980  1.00  0.00     0.162 HD
HETATM   26  O1  UNL     1      -5.771  16.032  39.720  1.00  0.00    -0.266 OA
BRANCH  24  27
HETATM   27  C2  UNL     1      -4.546  15.402  37.144  1.00  0.00     0.118 C
HETATM   28  C1  UNL     1      -3.687  14.160  37.138  1.00  0.00     0.026 C
ENDBRANCH  24  27
ENDBRANCH   1  23
TORSDOF 4
ENDMDL