MODEL 4
REMARK VINA RESULT: -10.089963957      1.681      2.408
REMARK  9 active torsions:
REMARK  status: ('A' for Active; 'I' for Inactive)
REMARK    1  A    between atoms: O1_2  and  C2_3
REMARK    2  A    between atoms: C2_3  and  C3_5
REMARK    3  A    between atoms: C8_12  and  N2_13
REMARK       I    between atoms: N2_13  and  C9_15
REMARK    4  A    between atoms: C9_15  and  C10_17
REMARK    5  A    between atoms: C10_17  and  O4_19
REMARK    6  A    between atoms: O4_19  and  C12_20
REMARK    7  A    between atoms: C12_20  and  C13_22
REMARK    8  A    between atoms: C14_23  and  C15_24
REMARK    9  A    between atoms: C14_23  and  C21_31
ROOT
HETATM    1  O4  UNL     1      23.266  14.307  31.564  1.00  0.00    -0.303 OA
ENDROOT
BRANCH   1   2
HETATM    2  C10 UNL     1      23.556  15.678  31.624  1.00  0.00     0.220 C
HETATM    3  C11 UNL     1      24.275  16.065  32.897  1.00  0.00     0.050 C
BRANCH   2   4
HETATM    4  C9  UNL     1      24.252  16.169  30.409  1.00  0.00     0.251 C
HETATM    5  N2  UNL     1      23.599  16.031  29.156  1.00  0.00    -0.322 N
ATOM      6  H2  UNL     1      22.674  15.602  29.130  1.00  0.00     0.169 HD
HETATM    7  O3  UNL     1      25.386  16.699  30.424  1.00  0.00    -0.270 OA
BRANCH   5   8
HETATM    8  C8  UNL     1      24.184  16.468  27.934  1.00  0.00     0.075 A
HETATM    9  C3  UNL     1      23.954  17.662  27.293  1.00  0.00     0.090 A
HETATM   10  C4  UNL     1      24.729  17.662  26.152  1.00  0.00     0.024 A
HETATM   11  C5  UNL     1      24.779  18.782  25.159  1.00  0.00     0.069 C
HETATM   12  N1  UNL     1      25.407  16.503  26.104  1.00  0.00    -0.361 N
HETATM   13  C6  UNL     1      25.099  15.750  27.175  1.00  0.00     0.033 A
ATOM     14  H1  UNL     1      26.058  16.234  25.366  1.00  0.00     0.165 HD
HETATM   15  C7  UNL     1      25.648  14.387  27.486  1.00  0.00     0.070 C
BRANCH   9  16
HETATM   16  C2  UNL     1      23.069  18.757  27.697  1.00  0.00     0.297 C
HETATM   17  O2  UNL     1      23.175  19.230  28.856  1.00  0.00    -0.259 OA
BRANCH  16  18
HETATM   18  O1  UNL     1      22.119  19.298  26.870  1.00  0.00    -0.322 OA
HETATM   19  C1  UNL     1      22.101  20.641  26.426  1.00  0.00     0.213 C
ENDBRANCH  16  18
ENDBRANCH   9  16
ENDBRANCH   5   8
ENDBRANCH   2   4
ENDBRANCH   1   2
BRANCH   1  20
HETATM   20  C12 UNL     1      22.002  13.766  31.893  1.00  0.00     0.284 C
HETATM   21  O5  UNL     1      21.172  14.638  32.189  1.00  0.00    -0.260 OA
BRANCH  20  22
HETATM   22  C13 UNL     1      21.856  12.325  31.844  1.00  0.00     0.095 C
HETATM   23  C14 UNL     1      21.238  11.497  32.626  1.00  0.00    -0.010 C
BRANCH  23  24
HETATM   24  C15 UNL     1      21.307  10.048  32.291  1.00  0.00    -0.025 A
HETATM   25  C16 UNL     1      20.162   9.288  32.112  1.00  0.00     0.015 A
HETATM   26  C17 UNL     1      20.308   7.920  31.885  1.00  0.00     0.043 A
HETATM   27  C18 UNL     1      21.555   7.319  31.837  1.00  0.00     0.116 A
HETATM   28  F1  UNL     1      21.675   5.989  31.615  1.00  0.00    -0.206 F
HETATM   29  C19 UNL     1      22.679   8.071  32.013  1.00  0.00     0.043 A
HETATM   30  C20 UNL     1      22.536   9.430  32.240  1.00  0.00     0.015 A
ENDBRANCH  23  24
BRANCH  23  31
HETATM   31  C21 UNL     1      20.374  11.880  33.718  1.00  0.00    -0.025 A
HETATM   32  C22 UNL     1      20.575  11.375  35.016  1.00  0.00     0.015 A
HETATM   33  C23 UNL     1      19.736  11.608  36.068  1.00  0.00     0.043 A
HETATM   34  C24 UNL     1      18.605  12.380  35.914  1.00  0.00     0.116 A
HETATM   35  F2  UNL     1      17.780  12.607  36.967  1.00  0.00    -0.206 F
HETATM   36  C25 UNL     1      18.374  12.890  34.663  1.00  0.00     0.043 A
HETATM   37  C26 UNL     1      19.230  12.646  33.600  1.00  0.00     0.015 A
ENDBRANCH  23  31
ENDBRANCH  20  22
ENDBRANCH   1  20
TORSDOF 9
ENDMDL