MODEL 3
REMARK VINA RESULT: -8.014205483      1.232      1.548
REMARK  10 active torsions:
REMARK  status: ('A' for Active; 'I' for Inactive)
REMARK    1  A    between atoms: C2_2  and  N1_3
REMARK    2  A    between atoms: C2_2  and  C21_32
REMARK       I    between atoms: N1_3  and  C3_5
REMARK    3  A    between atoms: C3_5  and  C4_7
REMARK    4  A    between atoms: C4_7  and  O2_8
REMARK    5  A    between atoms: C4_7  and  N2_10
REMARK    6  A    between atoms: N2_10  and  C5_11
REMARK    7  A    between atoms: N2_10  and  C11_18
REMARK    8  A    between atoms: C11_18  and  C12_19
REMARK    9  A    between atoms: C11_18  and  C17_27
REMARK       I    between atoms: C12_19  and  N3_21
REMARK   10  A    between atoms: N3_21  and  C13_23
ROOT
HETATM    1  N2  UNL     1      23.642  12.980  30.636  1.00  0.00    -0.303 N
ENDROOT
BRANCH   1   2
HETATM    2  C4  UNL     1      22.525  13.782  30.279  1.00  0.00     0.213 C
BRANCH   2   3
HETATM    3  C3  UNL     1      21.583  14.448  31.119  1.00  0.00     0.293 C
HETATM    4  N1  UNL     1      20.535  13.699  31.774  1.00  0.00    -0.344 N
ATOM      5  H1  UNL     1      20.476  12.691  31.627  1.00  0.00     0.163 HD
HETATM    6  O1  UNL     1      21.587  15.668  31.345  1.00  0.00    -0.264 OA
BRANCH   4   7
HETATM    7  C2  UNL     1      19.569  14.345  32.634  1.00  0.00     0.138 C
HETATM    8  C1  UNL     1      18.288  14.654  31.894  1.00  0.00     0.039 C
BRANCH   7   9
HETATM    9  C21 UNL     1      19.326  13.427  33.784  1.00  0.00     0.077 A
HETATM   10  C22 UNL     1      20.110  12.351  34.113  1.00  0.00     0.038 A
HETATM   11  C23 UNL     1      19.541  11.779  35.227  1.00  0.00     0.052 A
HETATM   12  C24 UNL     1      18.440  12.533  35.525  1.00  0.00     0.145 A
HETATM   13 CL1  UNL     1      17.335  12.253  36.859  1.00  0.00    -0.057 Cl
HETATM   14  O5  UNL     1      18.362  13.481  34.651  1.00  0.00    -0.301 OA
ENDBRANCH   7   9
ENDBRANCH   4   7
ENDBRANCH   2   3
BRANCH   2  15
HETATM   15  O2  UNL     1      22.288  13.960  29.000  1.00  0.00    -0.342 OA
ATOM     16  H2  UNL     1      22.951  13.572  28.442  1.00  0.00     0.219 HD
ENDBRANCH   2  15
ENDBRANCH   1   2
BRANCH   1  17
HETATM   17  C5  UNL     1      23.364  11.576  30.695  1.00  0.00     0.038 A
HETATM   18  C6  UNL     1      23.502  10.742  29.643  1.00  0.00     0.033 A
HETATM   19  C7  UNL     1      23.222   9.371  29.730  1.00  0.00     0.044 A
HETATM   20  C8  UNL     1      22.794   8.881  30.937  1.00  0.00     0.116 A
HETATM   21  F1  UNL     1      22.507   7.546  31.072  1.00  0.00    -0.206 F
HETATM   22  C9  UNL     1      22.650   9.731  32.022  1.00  0.00     0.044 A
HETATM   23  C10 UNL     1      22.933  11.086  31.909  1.00  0.00     0.033 A
ENDBRANCH   1  17
BRANCH   1  24
HETATM   24  C11 UNL     1      24.949  13.515  30.769  1.00  0.00     0.241 C
BRANCH  24  25
HETATM   25  C12 UNL     1      25.865  13.245  29.606  1.00  0.00     0.248 C
HETATM   26  O3  UNL     1      25.448  13.373  28.432  1.00  0.00    -0.271 OA
HETATM   27  N3  UNL     1      27.208  12.843  29.759  1.00  0.00    -0.351 N
ATOM     28  H3  UNL     1      27.554  12.739  30.713  1.00  0.00     0.163 HD
BRANCH  27  29
HETATM   29  C13 UNL     1      28.120  12.570  28.706  1.00  0.00     0.022 C
HETATM   30  C14 UNL     1      28.458  13.778  27.846  1.00  0.00     0.037 C
HETATM   31  C15 UNL     1      27.683  11.472  27.774  1.00  0.00     0.037 C
HETATM   32  C16 UNL     1      29.446  12.122  29.334  1.00  0.00     0.037 C
ENDBRANCH  27  29
ENDBRANCH  24  25
BRANCH  24  33
HETATM   33  C17 UNL     1      25.001  14.941  31.135  1.00  0.00     0.085 A
HETATM   34  C18 UNL     1      24.939  15.483  32.401  1.00  0.00     0.037 A
HETATM   35  C19 UNL     1      25.024  16.838  32.271  1.00  0.00     0.027 A
HETATM   36  C20 UNL     1      25.135  17.082  30.925  1.00  0.00     0.142 A
HETATM   37  O4  UNL     1      25.121  15.959  30.278  1.00  0.00    -0.324 OA
ENDBRANCH  24  33
ENDBRANCH   1  24
TORSDOF 10
ENDMDL