MODEL 2
REMARK VINA RESULT: -8.027136405      3.689      6.816
REMARK  10 active torsions:
REMARK  status: ('A' for Active; 'I' for Inactive)
REMARK    1  A    between atoms: C1_2  and  C2_4
REMARK    2  A    between atoms: C2_4  and  C3_5
REMARK    3  A    between atoms: C3_5  and  C4_6
REMARK    4  A    between atoms: C4_6  and  N1_7
REMARK    5  A    between atoms: C4_6  and  N2_16
REMARK    6  A    between atoms: N1_7  and  C5_9
REMARK    7  A    between atoms: N2_16  and  C11_18
REMARK    8  A    between atoms: C12_23  and  S1_24
REMARK    9  A    between atoms: S1_24  and  C13_25
REMARK   10  A    between atoms: C13_25  and  C14_26
ROOT
HETATM    1  N2  UNL     1      24.482  10.938  29.913  1.00  0.00    -0.325 N
ATOM      2  H2  UNL     1      25.460  11.073  29.659  1.00  0.00     0.169 HD
ENDROOT
BRANCH   1   3
HETATM    3  C4  UNL     1      24.095   9.635  30.211  1.00  0.00     0.084 C
BRANCH   3   4
HETATM    4  C3  UNL     1      23.922   8.583  29.146  1.00  0.00     0.087 C
BRANCH   4   5
HETATM    5  C2  UNL     1      25.222   7.833  28.936  1.00  0.00     0.120 C
BRANCH   5   6
HETATM    6  C1  UNL     1      25.362   6.645  29.806  1.00  0.00     0.172 C
HETATM    7  O1  UNL     1      25.063   5.530  29.298  1.00  0.00    -0.648 OA
HETATM    8  O2  UNL     1      25.791   6.720  31.105  1.00  0.00    -0.648 OA
ENDBRANCH   5   6
ENDBRANCH   4   5
ENDBRANCH   3   4
BRANCH   3   9
HETATM    9  N1  UNL     1      23.882   9.293  31.436  1.00  0.00    -0.346 N
ATOM     10  H1  UNL     1      24.620   9.375  32.136  1.00  0.00     0.167 HD
BRANCH   9  11
HETATM   11  C5  UNL     1      22.589   8.795  31.795  1.00  0.00     0.033 A
HETATM   12  C6  UNL     1      21.515   9.660  31.812  1.00  0.00     0.032 A
HETATM   13  C7  UNL     1      20.264   9.233  32.147  1.00  0.00     0.044 A
HETATM   14  C8  UNL     1      20.090   7.900  32.472  1.00  0.00     0.116 A
HETATM   15  F1  UNL     1      18.834   7.500  32.802  1.00  0.00    -0.206 F
HETATM   16  C9  UNL     1      21.162   7.024  32.457  1.00  0.00     0.044 A
HETATM   17  C10 UNL     1      22.405   7.481  32.117  1.00  0.00     0.032 A
ENDBRANCH   9  11
ENDBRANCH   3   9
ENDBRANCH   1   3
BRANCH   1  18
HETATM   18  C11 UNL     1      23.740  11.995  29.921  1.00  0.00     0.167 A
HETATM   19  N3  UNL     1      23.204  12.584  28.847  1.00  0.00    -0.278 N
HETATM   20  N4  UNL     1      22.496  13.623  29.018  1.00  0.00    -0.286 N
ATOM     21  H3  UNL     1      23.360  12.206  27.913  1.00  0.00     0.189 HD
HETATM   22  C12 UNL     1      22.292  14.113  30.223  1.00  0.00     0.130 A
ATOM     23  H4  UNL     1      22.079  14.086  28.210  1.00  0.00     0.188 HD
HETATM   24  S2  UNL     1      23.176  13.008  31.183  1.00  0.00    -0.026 SA
BRANCH  22  25
HETATM   25  S1  UNL     1      21.334  15.565  30.724  1.00  0.00    -0.099 SA
BRANCH  25  26
HETATM   26  C13 UNL     1      19.574  15.134  30.646  1.00  0.00     0.120 C
BRANCH  26  27
HETATM   27  C14 UNL     1      19.197  14.555  31.964  1.00  0.00    -0.048 A
HETATM   28  C15 UNL     1      19.676  13.340  32.414  1.00  0.00     0.009 A
HETATM   29  C16 UNL     1      19.309  12.837  33.631  1.00  0.00     0.019 A
HETATM   30  C17 UNL     1      18.450  13.520  34.455  1.00  0.00     0.011 A
HETATM   31 BR1  UNL     1      17.943  12.817  36.149  1.00  0.00    -0.051 Br
HETATM   32  C18 UNL     1      17.969  14.745  34.000  1.00  0.00     0.019 A
HETATM   33  C19 UNL     1      18.322  15.273  32.781  1.00  0.00     0.009 A
ENDBRANCH  26  27
ENDBRANCH  25  26
ENDBRANCH  22  25
ENDBRANCH   1  18
TORSDOF 10
ENDMDL