MODEL 1
REMARK VINA RESULT: -8.879546421      0.000      0.000
REMARK  9 active torsions:
REMARK  status: ('A' for Active; 'I' for Inactive)
REMARK    1  A    between atoms: C1_4  and  C2_5
REMARK    2  A    between atoms: C1_4  and  N2_8
REMARK    3  A    between atoms: N2_8  and  C3_9
REMARK    4  A    between atoms: N2_8  and  S1_27
REMARK    5  A    between atoms: C3_9  and  C4_10
REMARK       I    between atoms: C4_10  and  N3_12
REMARK    6  A    between atoms: N3_12  and  C5_14
REMARK    7  A    between atoms: C10_19  and  O2_20
REMARK    8  A    between atoms: O2_20  and  C11_21
REMARK    9  A    between atoms: S1_27  and  C17_30
ROOT
HETATM    1  C3  UNL     1      24.588  12.688  31.074  1.00  0.00     0.246 C
ENDROOT
BRANCH   1   2
HETATM    2  N2  UNL     1      24.312  13.900  30.353  1.00  0.00    -0.250 N
BRANCH   2   3
HETATM    3  C1  UNL     1      24.575  13.913  28.937  1.00  0.00     0.121 C
HETATM    4  N1  UNL     1      23.683  14.387  28.118  1.00  0.00    -0.386 N
ATOM      5  H12 UNL     1      23.869  14.396  27.115  1.00  0.00     0.157 HD
ATOM      6  H11 UNL     1      22.810  14.739  28.509  1.00  0.00     0.157 HD
BRANCH   3   7
HETATM    7  C2  UNL     1      25.840  13.402  28.370  1.00  0.00     0.245 C
HETATM    8 CL1  UNL     1      25.559  11.821  27.622  1.00  0.00    -0.100 Cl
HETATM    9 CL2  UNL     1      26.350  14.498  27.039  1.00  0.00    -0.100 Cl
ENDBRANCH   3   7
ENDBRANCH   2   3
BRANCH   2  10
HETATM   10  S1  UNL     1      23.702  15.283  31.170  1.00  0.00     0.266 S
HETATM   11  O3  UNL     1      24.368  16.493  30.533  1.00  0.00    -0.200 OA
HETATM   12  O4  UNL     1      24.188  15.264  32.601  1.00  0.00    -0.200 OA
BRANCH  10  13
HETATM   13  C17 UNL     1      21.971  15.430  31.092  1.00  0.00     0.080 A
HETATM   14  C18 UNL     1      21.365  16.531  30.488  1.00  0.00     0.025 A
HETATM   15  C19 UNL     1      19.991  16.636  30.433  1.00  0.00     0.002 A
HETATM   16  C20 UNL     1      19.160  15.674  30.965  1.00  0.00     0.000 A
HETATM   17  C21 UNL     1      19.754  14.583  31.564  1.00  0.00     0.002 A
HETATM   18  C22 UNL     1      21.121  14.477  31.619  1.00  0.00     0.025 A
ENDBRANCH  10  13
ENDBRANCH   2  10
ENDBRANCH   1   2
BRANCH   1  19
HETATM   19  C4  UNL     1      23.458  11.686  30.933  1.00  0.00     0.241 C
HETATM   20  O1  UNL     1      22.800  11.736  29.899  1.00  0.00    -0.271 OA
HETATM   21  N3  UNL     1      23.264  10.796  31.988  1.00  0.00    -0.323 N
ATOM     22  H3  UNL     1      23.891  10.858  32.790  1.00  0.00     0.169 HD
BRANCH  21  23
HETATM   23  C5  UNL     1      22.244   9.806  32.009  1.00  0.00     0.069 A
HETATM   24  C6  UNL     1      22.362   8.576  31.400  1.00  0.00     0.032 A
HETATM   25  C7  UNL     1      21.250   7.725  31.403  1.00  0.00     0.002 A
HETATM   26  C8  UNL     1      20.054   8.072  31.988  1.00  0.00     0.003 A
HETATM   27  C9  UNL     1      19.935   9.300  32.598  1.00  0.00     0.039 A
HETATM   28  C10 UNL     1      21.033  10.168  32.611  1.00  0.00     0.102 A
BRANCH  28  29
HETATM   29  O2  UNL     1      20.920  11.402  33.226  1.00  0.00    -0.309 OA
BRANCH  29  30
HETATM   30  C11 UNL     1      20.120  11.676  34.320  1.00  0.00     0.076 A
HETATM   31  C12 UNL     1      19.085  12.582  34.226  1.00  0.00     0.037 A
HETATM   32  C13 UNL     1      18.258  12.898  35.262  1.00  0.00     0.003 A
HETATM   33  C14 UNL     1      18.434  12.299  36.488  1.00  0.00     0.000 A
HETATM   34  C15 UNL     1      19.458  11.387  36.623  1.00  0.00     0.003 A
HETATM   35  C16 UNL     1      20.283  11.078  35.571  1.00  0.00     0.037 A
ENDBRANCH  29  30
ENDBRANCH  28  29
ENDBRANCH  21  23
ENDBRANCH   1  19
TORSDOF 9
ENDMDL