MODEL 3
REMARK VINA RESULT: -8.968660512      1.592      1.880
REMARK  7 active torsions:
REMARK  status: ('A' for Active; 'I' for Inactive)
REMARK    1  A    between atoms: O1_2  and  C2_3
REMARK    2  A    between atoms: C5_7  and  C6_8
REMARK    3  A    between atoms: C6_8  and  C16_23
REMARK    4  A    between atoms: C7_9  and  C8_10
REMARK    5  A    between atoms: N1_11  and  N2_13
REMARK       I    between atoms: N2_13  and  C9_15
REMARK    6  A    between atoms: C9_15  and  C10_17
REMARK    7  A    between atoms: C21_30  and  C22_31
ROOT
HETATM    1  C6  UNL     1      21.258  12.415  32.951  1.00  0.00     0.009 C
HETATM    2  C7  UNL     1      21.466  13.644  32.648  1.00  0.00     0.034 C
ENDROOT
BRANCH   1   3
HETATM    3  C5  UNL     1      21.638  11.180  32.287  1.00  0.00    -0.019 A
HETATM    4  C4  UNL     1      22.791  10.928  31.608  1.00  0.00     0.057 A
HETATM    5  C3  UNL     1      23.086   9.657  31.133  1.00  0.00     0.151 A
HETATM    6  C2  UNL     1      22.226   8.598  31.325  1.00  0.00     0.123 A
HETATM    7  F1  UNL     1      24.258   9.507  30.472  1.00  0.00    -0.203 F
HETATM    8  C21 UNL     1      21.052   8.813  32.003  1.00  0.00     0.078 A
HETATM    9  C20 UNL     1      20.772  10.078  32.472  1.00  0.00     0.034 A
BRANCH   6  10
HETATM   10  O1  UNL     1      22.558   7.344  30.835  1.00  0.00    -0.352 OA
HETATM   11  C1  UNL     1      23.541   6.511  31.452  1.00  0.00     0.210 C
ENDBRANCH   6  10
BRANCH   8  12
HETATM   12  C22 UNL     1      20.077   7.759  32.243  1.00  0.00     0.212 C
HETATM   13  O4  UNL     1      18.919   7.850  31.770  1.00  0.00    -0.644 OA
HETATM   14  O5  UNL     1      20.364   6.630  32.985  1.00  0.00    -0.644 OA
ENDBRANCH   8  12
ENDBRANCH   1   3
BRANCH   1  15
HETATM   15  C16 UNL     1      20.423  12.161  34.186  1.00  0.00     0.087 A
HETATM   16  C17 UNL     1      19.196  12.701  34.430  1.00  0.00     0.059 A
HETATM   17  C18 UNL     1      18.754  12.220  35.670  1.00  0.00     0.036 A
HETATM   18 BR1  UNL     1      17.106  12.622  36.546  1.00  0.00    -0.049 Br
HETATM   19  C19 UNL     1      19.771  11.400  36.104  1.00  0.00     0.161 A
HETATM   20  O3  UNL     1      20.713  11.407  35.197  1.00  0.00    -0.321 OA
ENDBRANCH   1  15
BRANCH   2  21
HETATM   21  C8  UNL     1      22.141  14.280  31.583  1.00  0.00     0.108 C
HETATM   22  N1  UNL     1      22.014  14.245  30.328  1.00  0.00    -0.309 N
ATOM     23  H1  UNL     1      21.285  13.645  29.942  1.00  0.00     0.186 HD
BRANCH  22  24
HETATM   24  N2  UNL     1      22.797  14.964  29.440  1.00  0.00    -0.266 N
HETATM   25  C9  UNL     1      23.942  14.416  28.817  1.00  0.00     0.270 C
HETATM   26  O2  UNL     1      24.241  13.227  29.098  1.00  0.00    -0.266 OA
ATOM     27  H2  UNL     1      22.537  15.928  29.228  1.00  0.00     0.190 HD
BRANCH  25  28
HETATM   28  C10 UNL     1      24.776  15.168  27.877  1.00  0.00     0.033 A
HETATM   29  C11 UNL     1      25.957  14.691  27.357  1.00  0.00     0.017 A
HETATM   30  C12 UNL     1      26.725  15.429  26.468  1.00  0.00     0.001 A
HETATM   31  C13 UNL     1      26.325  16.685  26.069  1.00  0.00     0.000 A
HETATM   32  C14 UNL     1      25.146  17.182  26.578  1.00  0.00     0.001 A
HETATM   33  C15 UNL     1      24.386  16.447  27.460  1.00  0.00     0.017 A
ENDBRANCH  25  28
ENDBRANCH  22  24
ENDBRANCH   2  21
TORSDOF 7
ENDMDL