MODEL 1
REMARK VINA RESULT: -8.782137656      0.000      0.000
REMARK  12 active torsions:
REMARK  status: ('A' for Active; 'I' for Inactive)
REMARK    1  A    between atoms: C2_2  and  C5_5
REMARK    2  A    between atoms: C5_5  and  C6_6
REMARK    3  A    between atoms: C8_12  and  N3_13
REMARK    4  A    between atoms: N3_13  and  C9_15
REMARK    5  A    between atoms: C9_15  and  C10_16
REMARK    6  A    between atoms: C10_16  and  C11_17
REMARK    7  A    between atoms: C10_16  and  N4_26
REMARK    8  A    between atoms: C11_17  and  C12_18
REMARK    9  A    between atoms: C12_18  and  C13_20
REMARK       I    between atoms: N4_26  and  C19_28
REMARK   10  A    between atoms: C19_28  and  O3_30
REMARK   11  A    between atoms: O3_30  and  C20_31
REMARK   12  A    between atoms: C24_35  and  C25_36
ROOT
HETATM    1  C9  UNL     1      22.428  14.288  31.839  1.00  0.00     0.147 C
ENDROOT
BRANCH   1   2
HETATM    2  N3  UNL     1      22.239  12.931  31.380  1.00  0.00    -0.374 N
ATOM      3  H3  UNL     1      21.314  12.593  31.111  1.00  0.00     0.161 HD
BRANCH   2   4
HETATM    4  C8  UNL     1      23.289  12.147  31.317  1.00  0.00     0.116 A
HETATM    5  N2  UNL     1      24.466  12.702  30.984  1.00  0.00    -0.338 N
HETATM    6  C7  UNL     1      25.547  11.914  30.936  1.00  0.00     0.182 A
ATOM      7  H2  UNL     1      24.535  13.698  30.773  1.00  0.00     0.168 HD
HETATM    8  N1  UNL     1      25.417  10.641  31.216  1.00  0.00    -0.355 N
HETATM    9  C6  UNL     1      24.244  10.005  31.567  1.00  0.00     0.026 A
ATOM     10  H1  UNL     1      26.260  10.068  31.170  1.00  0.00     0.166 HD
HETATM   11  C24 UNL     1      23.133  10.795  31.617  1.00  0.00     0.079 A
BRANCH   9  12
HETATM   12  C5  UNL     1      24.422   8.618  31.926  1.00  0.00     0.066 C
BRANCH  12  13
HETATM   13  C2  UNL     1      24.497   7.630  30.802  1.00  0.00    -0.046 C
HETATM   14  C1  UNL     1      23.481   6.507  31.090  1.00  0.00     0.015 C
HETATM   15  C3  UNL     1      24.232   8.086  29.429  1.00  0.00     0.015 C
HETATM   16  C4  UNL     1      25.854   6.921  30.798  1.00  0.00     0.015 C
ENDBRANCH  12  13
ENDBRANCH   9  12
BRANCH  11  17
HETATM   17  C25 UNL     1      21.820  10.246  31.889  1.00  0.00     0.272 C
HETATM   18  C26 UNL     1      21.834   9.238  33.045  1.00  0.00     0.096 C
HETATM   19  F1  UNL     1      20.733  11.048  31.887  1.00  0.00    -0.201 F
HETATM   20  F2  UNL     1      21.551   9.382  30.781  1.00  0.00    -0.201 F
ENDBRANCH  11  17
ENDBRANCH   2   4
ENDBRANCH   1   2
BRANCH   1  21
HETATM   21  C10 UNL     1      21.367  15.251  31.368  1.00  0.00     0.111 C
BRANCH  21  22
HETATM   22  C11 UNL     1      20.064  14.574  31.229  1.00  0.00     0.110 C
BRANCH  22  23
HETATM   23  C12 UNL     1      19.002  15.097  32.114  1.00  0.00     0.161 C
HETATM   24  O1  UNL     1      18.334  16.129  31.855  1.00  0.00    -0.292 OA
BRANCH  23  25
HETATM   25  C13 UNL     1      18.712  14.389  33.342  1.00  0.00     0.010 A
HETATM   26  C14 UNL     1      19.213  13.143  33.570  1.00  0.00     0.015 A
HETATM   27  C15 UNL     1      18.944  12.457  34.738  1.00  0.00     0.001 A
HETATM   28  C16 UNL     1      18.148  13.069  35.682  1.00  0.00     0.000 A
HETATM   29  C17 UNL     1      17.625  14.323  35.488  1.00  0.00     0.001 A
HETATM   30  C18 UNL     1      17.918  14.984  34.297  1.00  0.00     0.015 A
ENDBRANCH  23  25
ENDBRANCH  22  23
ENDBRANCH  21  22
BRANCH  21  31
HETATM   31  N4  UNL     1      21.828  15.922  30.196  1.00  0.00    -0.330 N
HETATM   32  C19 UNL     1      21.797  17.344  30.179  1.00  0.00     0.361 C
HETATM   33  O2  UNL     1      21.382  18.004  31.183  1.00  0.00    -0.238 OA
ATOM     34  H4  UNL     1      22.171  15.397  29.391  1.00  0.00     0.165 HD
BRANCH  32  35
HETATM   35  O3  UNL     1      22.198  18.110  29.116  1.00  0.00    -0.294 OA
BRANCH  35  36
HETATM   36  C20 UNL     1      23.529  18.385  28.777  1.00  0.00     0.061 C
HETATM   37  C21 UNL     1      23.561  19.836  28.286  1.00  0.00     0.046 C
HETATM   38  C22 UNL     1      24.492  18.330  29.934  1.00  0.00     0.046 C
HETATM   39  C23 UNL     1      24.078  17.530  27.686  1.00  0.00     0.046 C
ENDBRANCH  35  36
ENDBRANCH  32  35
ENDBRANCH  21  31
ENDBRANCH   1  21
TORSDOF 12
ENDMDL