MODEL 4
REMARK VINA RESULT: -9.812314090      2.534      3.247
REMARK  10 active torsions:
REMARK  status: ('A' for Active; 'I' for Inactive)
REMARK    1  A    between atoms: C5_5  and  C6_6
REMARK    2  A    between atoms: C6_6  and  O1_7
REMARK    3  A    between atoms: C6_6  and  C7_9
REMARK    4  A    between atoms: C10_12  and  C11_13
REMARK    5  A    between atoms: C16_18  and  C17_19
REMARK    6  A    between atoms: C17_19  and  N1_20
REMARK    7  A    between atoms: N1_20  and  C18_22
REMARK    8  A    between atoms: C18_22  and  C19_23
REMARK    9  A    between atoms: C22_26  and  N2_27
REMARK   10  A    between atoms: N3_30  and  O2_31
ROOT
HETATM    1  C7  UNL     1      24.567  11.844  29.398  1.00  0.00    -0.024 A
HETATM    2  C8  UNL     1      23.193  11.757  29.469  1.00  0.00     0.011 A
HETATM    3  C9  UNL     1      22.567  10.648  29.993  1.00  0.00     0.014 A
HETATM    4  C10 UNL     1      23.293   9.590  30.462  1.00  0.00    -0.005 A
HETATM    5  C25 UNL     1      24.662   9.649  30.404  1.00  0.00     0.056 A
HETATM    6  C26 UNL     1      25.520   8.562  30.878  1.00  0.00     0.100 C
HETATM    7  N4  UNL     1      26.182   7.691  31.255  1.00  0.00    -0.191 NA
HETATM    8  C27 UNL     1      25.279  10.761  29.880  1.00  0.00     0.033 A
ENDROOT
BRANCH   4   9
HETATM    9  C11 UNL     1      22.721   8.416  31.079  1.00  0.00    -0.016 A
HETATM   10  C12 UNL     1      22.780   7.225  30.368  1.00  0.00     0.013 A
HETATM   11  C13 UNL     1      22.292   6.087  30.957  1.00  0.00     0.001 A
HETATM   12  C14 UNL     1      21.752   6.108  32.219  1.00  0.00     0.001 A
HETATM   13  C15 UNL     1      21.713   7.316  32.885  1.00  0.00     0.010 A
HETATM   14  C16 UNL     1      22.196   8.508  32.337  1.00  0.00    -0.027 A
BRANCH  14  15
HETATM   15  C17 UNL     1      22.024   9.726  33.133  1.00  0.00     0.200 C
BRANCH  15  16
HETATM   16  N1  UNL     1      20.780  10.407  32.991  1.00  0.00    -0.223 N
HETATM   17  F1  UNL     1      19.909  10.018  32.120  1.00  0.00    -0.099 F
BRANCH  16  18
HETATM   18  C18 UNL     1      20.406  11.370  33.927  1.00  0.00     0.133 C
BRANCH  18  19
HETATM   19  C19 UNL     1      20.329  12.693  33.294  1.00  0.00    -0.017 C
HETATM   20  C20 UNL     1      21.450  13.152  32.593  1.00  0.00     0.017 C
HETATM   21  C21 UNL     1      21.551  14.178  31.677  1.00  0.00     0.051 C
HETATM   22  C22 UNL     1      20.505  14.911  31.163  1.00  0.00     0.126 C
HETATM   23  N3  UNL     1      19.219  14.976  31.544  1.00  0.00    -0.220 N
HETATM   24  C23 UNL     1      18.670  14.388  32.623  1.00  0.00     0.126 C
HETATM   25  C24 UNL     1      19.152  13.383  33.442  1.00  0.00     0.032 C
BRANCH  22  26
HETATM   26  N2  UNL     1      20.822  15.648  30.158  1.00  0.00    -0.384 N
ATOM     27  H22 UNL     1      21.652  16.227  30.284  1.00  0.00     0.157 HD
ATOM     28  H21 UNL     1      20.194  15.556  29.359  1.00  0.00     0.157 HD
ENDBRANCH  22  26
BRANCH  23  29
HETATM   29  O2  UNL     1      18.385  15.731  30.728  1.00  0.00    -0.282 OA
ATOM     30  H2  UNL     1      17.453  15.618  30.872  1.00  0.00     0.245 HD
ENDBRANCH  23  29
ENDBRANCH  18  19
ENDBRANCH  16  18
ENDBRANCH  15  16
ENDBRANCH  14  15
ENDBRANCH   4   9
BRANCH   1  31
HETATM   31  C6  UNL     1      25.292  13.016  28.844  1.00  0.00     0.184 C
BRANCH  31  32
HETATM   32  C5  UNL     1      25.107  14.242  29.660  1.00  0.00    -0.025 A
HETATM   33  C4  UNL     1      24.609  15.413  29.124  1.00  0.00     0.010 A
HETATM   34  C3  UNL     1      24.437  16.559  29.892  1.00  0.00     0.007 A
HETATM   35  C2  UNL     1      24.764  16.559  31.230  1.00  0.00    -0.062 A
HETATM   36  C1  UNL     1      24.580  17.787  32.044  1.00  0.00     0.048 C
HETATM   37  C29 UNL     1      25.263  15.400  31.781  1.00  0.00     0.007 A
HETATM   38  C28 UNL     1      25.430  14.259  31.002  1.00  0.00     0.010 A
ENDBRANCH  31  32
BRANCH  31  39
HETATM   39  O1  UNL     1      24.943  13.188  27.516  1.00  0.00    -0.386 OA
ATOM     40  H1  UNL     1      24.076  12.858  27.311  1.00  0.00     0.210 HD
ENDBRANCH  31  39
ENDBRANCH   1  31
TORSDOF 10
ENDMDL