MODEL 5
REMARK VINA RESULT: -8.961678316      2.751      6.741
REMARK  5 active torsions:
REMARK  status: ('A' for Active; 'I' for Inactive)
REMARK    1  A    between atoms: C2_3  and  C3_4
REMARK    2  A    between atoms: C2_3  and  C13_22
REMARK    3  A    between atoms: C2_3  and  C19_30
REMARK       I    between atoms: C3_4  and  N1_6
REMARK       I    between atoms: N1_6  and  C4_8
REMARK       I    between atoms: C4_8  and  N4_19
REMARK    4  A    between atoms: N2_9  and  N3_11
REMARK    5  A    between atoms: N3_11  and  C5_13
ROOT
HETATM    1  C1  UNL     1      22.444  10.050  27.706  1.00  0.00     0.204 C
HETATM    2  O1  UNL     1      23.058  10.300  28.728  1.00  0.00    -0.366 OA
HETATM    3  C2  UNL     1      23.707  10.564  29.812  1.00  0.00     0.200 C
ENDROOT
BRANCH   3   4
HETATM    4  C3  UNL     1      22.996  11.660  30.457  1.00  0.00     0.280 C
HETATM    5  O2  UNL     1      23.083  12.804  29.964  1.00  0.00    -0.268 OA
HETATM    6  N1  UNL     1      22.184  11.576  31.619  1.00  0.00    -0.155 N
HETATM    7  C4  UNL     1      21.514  12.661  32.205  1.00  0.00     0.696 C
ATOM      8  H1  UNL     1      22.080  10.661  32.059  1.00  0.00     0.187 HD
HETATM    9  N2  UNL     1      20.788  12.471  33.281  1.00  0.00    -0.132 N
HETATM   10  N4  UNL     1      21.532  14.004  31.741  1.00  0.00    -0.225 N
ATOM     11  H2  UNL     1      20.735  11.526  33.661  1.00  0.00     0.205 HD
HETATM   12  C11 UNL     1      22.567  14.968  32.067  1.00  0.00     0.168 C
HETATM   13  C12 UNL     1      20.454  14.511  30.882  1.00  0.00     0.168 C
BRANCH   9  14
HETATM   14  N3  UNL     1      20.089  13.468  33.934  1.00  0.00    -0.287 N
ATOM     15  H3  UNL     1      20.254  14.450  33.712  1.00  0.00     0.187 HD
BRANCH  14  16
HETATM   16  C5  UNL     1      19.132  13.092  34.925  1.00  0.00     0.048 A
HETATM   17  C6  UNL     1      19.317  11.955  35.695  1.00  0.00     0.031 A
HETATM   18  C7  UNL     1      18.414  11.554  36.667  1.00  0.00     0.002 A
HETATM   19  C8  UNL     1      17.276  12.296  36.899  1.00  0.00     0.000 A
HETATM   20  C9  UNL     1      17.103  13.436  36.118  1.00  0.00     0.002 A
HETATM   21  C10 UNL     1      17.994  13.828  35.162  1.00  0.00     0.031 A
ENDBRANCH  14  16
ENDBRANCH   9  14
ENDBRANCH   3   4
BRANCH   3  22
HETATM   22  C13 UNL     1      25.061  11.154  29.404  1.00  0.00     0.029 A
HETATM   23  C14 UNL     1      25.471  11.225  28.095  1.00  0.00     0.017 A
HETATM   24  C15 UNL     1      26.699  11.754  27.709  1.00  0.00     0.043 A
HETATM   25  C16 UNL     1      27.555  12.234  28.669  1.00  0.00     0.119 A
HETATM   26  F1  UNL     1      28.772  12.763  28.333  1.00  0.00    -0.206 F
HETATM   27  C17 UNL     1      27.190  12.185  29.995  1.00  0.00     0.085 A
HETATM   28  C18 UNL     1      25.955  11.649  30.335  1.00  0.00     0.129 A
HETATM   29  F2  UNL     1      25.659  11.668  31.626  1.00  0.00    -0.205 F
ENDBRANCH   3  22
BRANCH   3  30
HETATM   30  C19 UNL     1      23.910   9.253  30.405  1.00  0.00     0.002 A
HETATM   31  C20 UNL     1      25.141   8.632  30.279  1.00  0.00     0.012 A
HETATM   32  C21 UNL     1      25.420   7.362  30.745  1.00  0.00     0.002 A
HETATM   33  C22 UNL     1      24.456   6.630  31.376  1.00  0.00     0.012 A
HETATM   34  C23 UNL     1      23.216   7.192  31.526  1.00  0.00    -0.025 A
HETATM   35  C24 UNL     1      22.187   6.484  32.142  1.00  0.00     0.012 A
HETATM   36  C28 UNL     1      22.948   8.482  31.047  1.00  0.00    -0.016 A
HETATM   37  C25 UNL     1      20.928   6.994  32.297  1.00  0.00     0.001 A
HETATM   38  C26 UNL     1      20.690   8.260  31.817  1.00  0.00     0.001 A
HETATM   39  C27 UNL     1      21.697   9.013  31.188  1.00  0.00     0.013 A
ENDBRANCH   3  30
TORSDOF 5
ENDMDL