MODEL 2
REMARK VINA RESULT: -8.143045792      1.213      1.704
REMARK  9 active torsions:
REMARK  status: ('A' for Active; 'I' for Inactive)
REMARK    1  A    between atoms: C2_2  and  N1_3
REMARK    2  A    between atoms: C2_2  and  C11_15
REMARK       I    between atoms: N1_3  and  C3_5
REMARK    3  A    between atoms: C3_5  and  O2_7
REMARK    4  A    between atoms: O2_7  and  C4_8
REMARK    5  A    between atoms: C4_8  and  C5_9
REMARK       I    between atoms: C11_15  and  N2_17
REMARK    6  A    between atoms: N2_17  and  C12_19
REMARK    7  A    between atoms: C15_22  and  S1_23
REMARK    8  A    between atoms: S1_23  and  C16_26
REMARK    9  A    between atoms: C17_27  and  C18_28
ROOT
HETATM    1  C11 UNL     1      24.301  15.802  29.424  1.00  0.00     0.244 C
HETATM    2  O3  UNL     1      25.321  15.751  30.144  1.00  0.00    -0.271 OA
HETATM    3  N2  UNL     1      23.684  14.647  28.944  1.00  0.00    -0.325 N
ATOM      4  H2  UNL     1      22.868  14.795  28.350  1.00  0.00     0.169 HD
ENDROOT
BRANCH   3   5
HETATM    5  C12 UNL     1      24.039  13.299  29.172  1.00  0.00     0.034 A
HETATM    6  C13 UNL     1      23.486  12.509  30.132  1.00  0.00     0.031 A
HETATM    7  C14 UNL     1      23.872  11.171  30.285  1.00  0.00     0.026 A
HETATM    8  C15 UNL     1      24.823  10.613  29.467  1.00  0.00     0.063 A
HETATM    9  C19 UNL     1      25.370  11.420  28.509  1.00  0.00     0.026 A
HETATM   10  C20 UNL     1      25.016  12.733  28.332  1.00  0.00     0.031 A
BRANCH   8  11
HETATM   11  S1  UNL     1      25.322   8.923  29.601  1.00  0.00     0.196 S
HETATM   12  O4  UNL     1      25.987   8.499  28.306  1.00  0.00    -0.218 OA
HETATM   13  O5  UNL     1      26.233   8.727  30.764  1.00  0.00    -0.218 OA
BRANCH  11  14
HETATM   14  C16 UNL     1      23.874   7.951  29.842  1.00  0.00     0.114 C
HETATM   15  C17 UNL     1      23.471   7.696  31.058  1.00  0.00     0.043 C
BRANCH  15  16
HETATM   16  C18 UNL     1      22.238   6.867  31.290  1.00  0.00     0.207 C
HETATM   17 CL1  UNL     1      22.450   5.972  32.835  1.00  0.00    -0.079 Cl
HETATM   18 CL2  UNL     1      22.130   5.669  29.980  1.00  0.00    -0.079 Cl
HETATM   19 CL3  UNL     1      20.822   7.904  31.369  1.00  0.00    -0.079 Cl
ENDBRANCH  15  16
ENDBRANCH  11  14
ENDBRANCH   8  11
ENDBRANCH   3   5
BRANCH   1  20
HETATM   20  C2  UNL     1      23.731  17.152  29.084  1.00  0.00     0.175 C
HETATM   21  C1  UNL     1      24.017  17.316  27.568  1.00  0.00     0.042 C
BRANCH  20  22
HETATM   22  N1  UNL     1      22.317  17.239  29.281  1.00  0.00    -0.324 N
HETATM   23  C3  UNL     1      21.827  17.541  30.583  1.00  0.00     0.361 C
HETATM   24  O1  UNL     1      22.582  17.725  31.544  1.00  0.00    -0.238 OA
ATOM     25  H1  UNL     1      21.672  17.089  28.505  1.00  0.00     0.165 HD
BRANCH  23  26
HETATM   26  O2  UNL     1      20.444  17.628  30.746  1.00  0.00    -0.299 OA
BRANCH  26  27
HETATM   27  C4  UNL     1      19.649  16.603  30.205  1.00  0.00     0.219 C
BRANCH  27  28
HETATM   28  C5  UNL     1      19.579  15.463  31.149  1.00  0.00    -0.034 A
HETATM   29  C6  UNL     1      18.428  15.245  31.894  1.00  0.00     0.009 A
HETATM   30  C7  UNL     1      18.336  14.197  32.759  1.00  0.00     0.001 A
HETATM   31  C8  UNL     1      19.390  13.312  32.925  1.00  0.00     0.000 A
HETATM   32  C9  UNL     1      20.527  13.532  32.186  1.00  0.00     0.001 A
HETATM   33  C10 UNL     1      20.626  14.572  31.325  1.00  0.00     0.009 A
ENDBRANCH  27  28
ENDBRANCH  26  27
ENDBRANCH  23  26
ENDBRANCH  20  22
ENDBRANCH   1  20
TORSDOF 9
ENDMDL