MODEL 2
REMARK VINA RESULT: -8.821441104      0.702      1.180
REMARK  7 active torsions:
REMARK  status: ('A' for Active; 'I' for Inactive)
REMARK       I    between atoms: C2_2  and  N1_4
REMARK    1  A    between atoms: N1_4  and  C3_6
REMARK    2  A    between atoms: C6_9  and  O2_10
REMARK    3  A    between atoms: O2_10  and  C7_11
REMARK    4  A    between atoms: C10_14  and  S1_15
REMARK    5  A    between atoms: S1_15  and  N2_18
REMARK    6  A    between atoms: N2_18  and  C11_20
REMARK    7  A    between atoms: C14_23  and  S2_24
ROOT
HETATM    1  C7  UNL     1      23.327  13.685  30.442  1.00  0.00     0.079 A
HETATM    2  C8  UNL     1      24.555  14.006  30.979  1.00  0.00     0.039 A
HETATM    3  C9  UNL     1      25.686  13.328  30.606  1.00  0.00     0.031 A
HETATM    4  C10 UNL     1      25.675  12.278  29.665  1.00  0.00     0.118 A
HETATM    5  C17 UNL     1      24.457  11.971  29.142  1.00  0.00     0.142 A
HETATM    6  F2  UNL     1      24.326  10.983  28.232  1.00  0.00    -0.204 F
HETATM    7  C18 UNL     1      23.295  12.667  29.525  1.00  0.00     0.081 A
ENDROOT
BRANCH   4   8
HETATM    8  S1  UNL     1      27.171  11.480  29.260  1.00  0.00     0.266 S
HETATM    9  O3  UNL     1      28.339  12.311  29.788  1.00  0.00    -0.200 OA
HETATM   10  O4  UNL     1      27.354  11.467  27.760  1.00  0.00    -0.200 OA
BRANCH   8  11
HETATM   11  N2  UNL     1      27.288   9.863  29.792  1.00  0.00    -0.281 N
ATOM     12  H2  UNL     1      28.225   9.509  29.978  1.00  0.00     0.179 HD
BRANCH  11  13
HETATM   13  C11 UNL     1      26.215   8.964  30.000  1.00  0.00     0.042 A
HETATM   14  C12 UNL     1      25.706   8.061  29.112  1.00  0.00     0.031 A
HETATM   15  C13 UNL     1      24.618   7.237  29.425  1.00  0.00     0.028 A
HETATM   16  C14 UNL     1      23.999   7.294  30.651  1.00  0.00     0.090 A
HETATM   17  C15 UNL     1      24.507   8.203  31.551  1.00  0.00     0.028 A
HETATM   18  C16 UNL     1      25.573   9.014  31.251  1.00  0.00     0.031 A
BRANCH  16  19
HETATM   19  S2  UNL     1      22.640   6.277  31.067  1.00  0.00     0.333 S
HETATM   20  O5  UNL     1      22.290   5.348  29.942  1.00  0.00    -0.189 OA
HETATM   21  O6  UNL     1      21.427   7.108  31.375  1.00  0.00    -0.189 OA
HETATM   22  F1  UNL     1      23.027   5.399  32.431  1.00  0.00    -0.100 F
ENDBRANCH  16  19
ENDBRANCH  11  13
ENDBRANCH   8  11
ENDBRANCH   4   8
BRANCH   1  23
HETATM   23  O2  UNL     1      22.183  14.379  30.827  1.00  0.00    -0.311 OA
BRANCH  23  24
HETATM   24  C6  UNL     1      21.298  13.875  31.775  1.00  0.00     0.076 A
HETATM   25  C5  UNL     1      21.617  12.919  32.678  1.00  0.00     0.039 A
HETATM   26  C4  UNL     1      20.667  12.479  33.584  1.00  0.00     0.032 A
HETATM   27  C3  UNL     1      19.379  12.954  33.639  1.00  0.00     0.034 A
HETATM   28  C20 UNL     1      19.092  13.945  32.684  1.00  0.00     0.032 A
HETATM   29  C19 UNL     1      20.022  14.389  31.783  1.00  0.00     0.039 A
BRANCH  27  30
HETATM   30  N1  UNL     1      18.362  12.550  34.512  1.00  0.00    -0.328 N
HETATM   31  C2  UNL     1      17.914  13.232  35.624  1.00  0.00     0.218 C
HETATM   32  C1  UNL     1      16.789  12.625  36.446  1.00  0.00     0.117 C
HETATM   33  O1  UNL     1      18.374  14.322  36.002  1.00  0.00    -0.274 OA
ATOM     34  H1  UNL     1      17.907  11.661  34.305  1.00  0.00     0.169 HD
ENDBRANCH  27  30
ENDBRANCH  23  24
ENDBRANCH   1  23
TORSDOF 7
ENDMDL