MODEL 2
REMARK VINA RESULT: -5.403841669      2.016      4.754
REMARK  5 active torsions:
REMARK  status: ('A' for Active; 'I' for Inactive)
REMARK    1  A    between atoms: N1_1  and  C1_5
REMARK    2  A    between atoms: C1_5  and  C2_6
REMARK    3  A    between atoms: C2_6  and  C3_7
REMARK    4  A    between atoms: C3_7  and  N2_8
REMARK    5  A    between atoms: C3_7  and  C4_12
ROOT
HETATM    1  C3  UNL     1      65.884  41.356   7.799  1.00  0.00     0.234 C
ENDROOT
BRANCH   1   2
HETATM    2  C2  UNL     1      66.090  41.627   6.371  1.00  0.00     0.066 C
BRANCH   2   3
HETATM    3  C1  UNL     1      66.275  40.458   5.470  1.00  0.00     0.232 C
BRANCH   3   4
HETATM    4  N1  UNL     1      67.097  40.808   4.308  1.00  0.00    -0.079 N
ATOM      5  H13 UNL     1      67.125  40.050   3.627  1.00  0.00     0.274 HD
ATOM      6  H12 UNL     1      66.648  41.521   3.732  1.00  0.00     0.274 HD
ATOM      7  H11 UNL     1      68.035  41.092   4.591  1.00  0.00     0.274 HD
ENDBRANCH   3   4
ENDBRANCH   2   3
ENDBRANCH   1   2
BRANCH   1   8
HETATM    8  N2  UNL     1      67.018  40.505   8.243  1.00  0.00    -0.070 N
ATOM      9  H23 UNL     1      66.930  39.533   7.949  1.00  0.00     0.275 HD
ATOM     10  H22 UNL     1      67.890  40.709   7.753  1.00  0.00     0.275 HD
ATOM     11  H21 UNL     1      67.091  40.615   9.254  1.00  0.00     0.275 HD
ENDBRANCH   1   8
BRANCH   1  12
HETATM   12  C4  UNL     1      65.945  42.524   8.711  1.00  0.00     0.035 A
HETATM   13  C5  UNL     1      66.980  43.133   9.236  1.00  0.00     0.005 A
HETATM   14  C6  UNL     1      66.477  44.243  10.075  1.00  0.00     0.073 A
HETATM   15  C7  UNL     1      65.012  44.122   9.920  1.00  0.00     0.065 A
HETATM   16  N3  UNL     1      64.752  43.150   9.148  1.00  0.00    -0.371 N
ATOM     17  H3  UNL     1      63.812  42.859   8.880  1.00  0.00     0.164 HD
ENDBRANCH   1  12
TORSDOF 5
ENDMDL