MODEL 3
REMARK VINA RESULT: -3.613289648      1.257      4.638
REMARK  7 active torsions:
REMARK  status: ('A' for Active; 'I' for Inactive)
REMARK    1  A    between atoms: C2_2  and  C3_3
REMARK    2  A    between atoms: C2_2  and  C7_15
REMARK    3  A    between atoms: C4_4  and  C5_5
REMARK    4  A    between atoms: C4_4  and  C6_10
REMARK    5  A    between atoms: C5_5  and  N1_6
REMARK    6  A    between atoms: C6_10  and  N2_11
REMARK    7  A    between atoms: C7_15  and  N3_16
ROOT
HETATM    1  C3  UNL     1      65.622  43.276   8.693  1.00  0.00    -0.015 C
HETATM    2  C4  UNL     1      66.002  42.122   8.176  1.00  0.00    -0.033 C
ENDROOT
BRANCH   2   3
HETATM    3  C5  UNL     1      67.110  41.383   8.790  1.00  0.00     0.265 C
BRANCH   3   4
HETATM    4  N1  UNL     1      67.361  40.091   8.213  1.00  0.00    -0.076 N
ATOM      5  H13 UNL     1      67.795  39.474   8.899  1.00  0.00     0.274 HD
ATOM      6  H12 UNL     1      66.483  39.594   8.060  1.00  0.00     0.274 HD
ATOM      7  H11 UNL     1      67.912  40.108   7.354  1.00  0.00     0.274 HD
ENDBRANCH   3   4
ENDBRANCH   2   3
BRANCH   2   8
HETATM    8  C6  UNL     1      65.280  41.604   6.965  1.00  0.00     0.265 C
BRANCH   8   9
HETATM    9  N2  UNL     1      66.125  41.615   5.793  1.00  0.00    -0.076 N
ATOM     10  H23 UNL     1      65.583  41.465   4.942  1.00  0.00     0.274 HD
ATOM     11  H22 UNL     1      66.474  42.553   5.595  1.00  0.00     0.274 HD
ATOM     12  H21 UNL     1      66.888  40.943   5.870  1.00  0.00     0.274 HD
ENDBRANCH   8   9
ENDBRANCH   2   8
BRANCH   1  13
HETATM   13  C2  UNL     1      66.142  43.995   9.844  1.00  0.00     0.030 C
HETATM   14  C1  UNL     1      64.954  44.398  10.726  1.00  0.00     0.016 C
BRANCH  13  15
HETATM   15  C7  UNL     1      66.813  45.289   9.361  1.00  0.00     0.237 C
BRANCH  15  16
HETATM   16  N3  UNL     1      66.412  46.403  10.205  1.00  0.00    -0.079 N
ATOM     17  H33 UNL     1      66.029  46.088  11.097  1.00  0.00     0.274 HD
ATOM     18  H32 UNL     1      67.215  46.920  10.562  1.00  0.00     0.274 HD
ATOM     19  H31 UNL     1      65.762  47.005   9.701  1.00  0.00     0.274 HD
ENDBRANCH  15  16
ENDBRANCH  13  15
ENDBRANCH   1  13
TORSDOF 7
ENDMDL