MODEL 5
REMARK VINA RESULT: 5.577495233      2.989      4.130
REMARK  6 active torsions:
REMARK  status: ('A' for Active; 'I' for Inactive)
REMARK    1  A    between atoms: C2_2  and  O1_3
REMARK    2  A    between atoms: O1_3  and  C3_4
REMARK    3  A    between atoms: C4_5  and  C5_6
REMARK    4  A    between atoms: C8_13  and  S1_14
REMARK    5  A    between atoms: S1_14  and  C9_15
REMARK    6  A    between atoms: C9_15  and  C10_16
ROOT
HETATM    1  S1  UNL     1      66.710  43.363   9.633  1.00  0.00    -0.105 SA
ENDROOT
BRANCH   1   2
HETATM    2  C8  UNL     1      65.556  44.364  10.551  1.00  0.00     0.096 A
HETATM    3  C6  UNL     1      65.412  45.809  10.452  1.00  0.00     0.016 A
HETATM    4  C5  UNL     1      66.110  46.595   9.672  1.00  0.00     0.017 C
HETATM    5  C7  UNL     1      64.350  46.148  11.390  1.00  0.00     0.121 A
HETATM    6  N1  UNL     1      63.955  45.043  11.936  1.00  0.00    -0.310 N
HETATM    7  N2  UNL     1      64.685  43.962  11.428  1.00  0.00    -0.294 N
ATOM      8  H1  UNL     1      63.217  44.970  12.637  1.00  0.00     0.186 HD
ATOM      9  H2  UNL     1      64.553  42.991  11.709  1.00  0.00     0.187 HD
BRANCH   4  10
HETATM   10  C4  UNL     1      65.881  48.026   9.655  1.00  0.00     0.025 C
HETATM   11  C3  UNL     1      65.461  48.602   8.551  1.00  0.00     0.134 C
BRANCH  11  12
HETATM   12  O1  UNL     1      65.235  49.971   8.508  1.00  0.00    -0.363 OA
BRANCH  12  13
HETATM   13  C2  UNL     1      64.832  50.578   9.735  1.00  0.00     0.170 C
HETATM   14  C1  UNL     1      65.972  51.440  10.204  1.00  0.00     0.034 C
ENDBRANCH  12  13
ENDBRANCH  11  12
ENDBRANCH   4  10
ENDBRANCH   1   2
BRANCH   1  15
HETATM   15  C9  UNL     1      65.816  41.893   9.006  1.00  0.00     0.119 C
BRANCH  15  16
HETATM   16  C10 UNL     1      66.086  41.709   7.554  1.00  0.00    -0.046 A
HETATM   17  C11 UNL     1      66.233  40.436   7.002  1.00  0.00     0.010 A
HETATM   18  C12 UNL     1      66.484  40.268   5.653  1.00  0.00     0.032 A
HETATM   19  C13 UNL     1      66.585  41.395   4.868  1.00  0.00     0.063 A
HETATM   20  N3  UNL     1      66.815  41.589   3.559  1.00  0.00    -0.307 N
HETATM   21  C15 UNL     1      66.440  42.661   5.405  1.00  0.00     0.063 A
HETATM   22  C14 UNL     1      66.813  42.920   3.301  1.00  0.00     0.325 A
ATOM     23  H3  UNL     1      66.966  40.853   2.870  1.00  0.00     0.170 HD
HETATM   24  O2  UNL     1      66.998  43.435   2.175  1.00  0.00    -0.247 OA
HETATM   25  N4  UNL     1      66.581  43.590   4.442  1.00  0.00    -0.306 N
ATOM     26  H4  UNL     1      66.523  44.603   4.555  1.00  0.00     0.170 HD
HETATM   27  C16 UNL     1      66.192  42.826   6.744  1.00  0.00     0.039 A
ENDBRANCH  15  16
ENDBRANCH   1  15
TORSDOF 6
ENDMDL