MODEL 1
REMARK VINA RESULT: -3.849289309      0.000      0.000
REMARK  5 active torsions:
REMARK  status: ('A' for Active; 'I' for Inactive)
REMARK    1  A    between atoms: C2_2  and  C3_4
REMARK    2  A    between atoms: C3_4  and  C4_5
REMARK    3  A    between atoms: C4_5  and  N2_6
REMARK    4  A    between atoms: C5_10  and  C7_12
REMARK    5  A    between atoms: C7_12  and  N3_13
ROOT
HETATM    1  C3  UNL     1      69.158  51.406   1.096  1.00  0.00    -0.006 C
HETATM    2  C5  UNL     1      69.299  52.560   1.617  1.00  0.00    -0.049 C
HETATM    3  C6  UNL     1      70.111  53.602   0.847  1.00  0.00     0.046 C
ENDROOT
BRANCH   1   4
HETATM    4  C2  UNL     1      68.449  50.285   1.630  1.00  0.00     0.045 C
HETATM    5  C1  UNL     1      69.015  49.550   2.579  1.00  0.00     0.040 C
HETATM    6  N1  UNL     1      67.169  49.866   1.221  1.00  0.00    -0.103 NA
ENDBRANCH   1   4
BRANCH   1   7
HETATM    7  C4  UNL     1      69.860  51.218  -0.255  1.00  0.00     0.270 C
BRANCH   7   8
HETATM    8  N2  UNL     1      69.245  50.166  -1.030  1.00  0.00    -0.075 N
ATOM      9  H23 UNL     1      69.685  49.263  -0.849  1.00  0.00     0.274 HD
ATOM     10  H22 UNL     1      68.306  49.954  -0.693  1.00  0.00     0.274 HD
ATOM     11  H21 UNL     1      69.244  50.387  -2.025  1.00  0.00     0.274 HD
ENDBRANCH   7   8
ENDBRANCH   1   7
BRANCH   2  12
HETATM   12  C7  UNL     1      68.776  53.094   2.855  1.00  0.00     0.264 C
BRANCH  12  13
HETATM   13  N3  UNL     1      69.712  52.884   3.978  1.00  0.00    -0.076 N
ATOM     14  H33 UNL     1      69.886  51.892   4.137  1.00  0.00     0.274 HD
ATOM     15  H32 UNL     1      70.658  53.175   3.733  1.00  0.00     0.274 HD
ATOM     16  H31 UNL     1      69.390  53.346   4.828  1.00  0.00     0.274 HD
ENDBRANCH  12  13
ENDBRANCH   2  12
TORSDOF 5
ENDMDL