MODEL 5
REMARK VINA RESULT: -3.912732305      1.015      4.134
REMARK  3 active torsions:
REMARK  status: ('A' for Active; 'I' for Inactive)
REMARK    1  A    between atoms: C2_2  and  C3_3
REMARK    2  A    between atoms: C3_3  and  C6_9
REMARK    3  A    between atoms: C4_4  and  C5_5
ROOT
HETATM    1  C3  UNL     1      66.254  41.751   7.445  1.00  0.00    -0.011 C
HETATM    2  C4  UNL     1      66.297  42.405   6.259  1.00  0.00     0.030 C
ENDROOT
BRANCH   1   3
HETATM    3  C2  UNL     1      66.392  40.356   7.427  1.00  0.00     0.003 C
HETATM    4  C1  UNL     1      66.318  39.454   6.508  1.00  0.00     0.012 C
ENDBRANCH   1   3
BRANCH   1   5
HETATM    5  C6  UNL     1      66.069  42.604   8.590  1.00  0.00     0.069 C
HETATM    6  N2  UNL     1      67.265  42.857   9.427  1.00  0.00    -0.101 NA
HETATM    7  C7  UNL     1      65.004  43.203   9.021  1.00  0.00     0.127 C
HETATM    8  N3  UNL     1      65.147  44.010  10.230  1.00  0.00    -0.113 NA
ENDBRANCH   1   5
BRANCH   2   9
HETATM    9  C5  UNL     1      66.468  41.835   4.963  1.00  0.00     0.081 C
HETATM   10  N1  UNL     1      66.671  42.650   3.956  1.00  0.00    -0.408 N
ATOM     11  H12 UNL     1      66.703  43.657   4.112  1.00  0.00     0.155 HD
ATOM     12  H11 UNL     1      66.794  42.242   3.029  1.00  0.00     0.155 HD
ENDBRANCH   2   9
TORSDOF 3
ENDMDL