MODEL 4
REMARK VINA RESULT: -4.660103714      1.703      5.210
REMARK  2 active torsions:
REMARK  status: ('A' for Active; 'I' for Inactive)
REMARK    1  A    between atoms: C3_4  and  C4_5
REMARK    2  A    between atoms: C4_5  and  C5_6
ROOT
HETATM    1  C4  UNL     1      66.091  43.858   9.475  1.00  0.00    -0.021 C
HETATM    2  C7  UNL     1      66.834  44.820   8.793  1.00  0.00     0.111 C
HETATM    3  N3  UNL     1      66.808  46.168   9.149  1.00  0.00    -0.114 NA
ENDROOT
BRANCH   1   4
HETATM    4  C3  UNL     1      66.241  42.561   8.980  1.00  0.00     0.034 C
HETATM    5  C2  UNL     1      66.270  41.902   7.878  1.00  0.00     0.021 C
HETATM    6  C1  UNL     1      66.484  40.373   7.996  1.00  0.00     0.065 C
HETATM    7  N1  UNL     1      66.139  42.330   6.565  1.00  0.00    -0.107 NA
ENDBRANCH   1   4
BRANCH   1   8
HETATM    8  C5  UNL     1      65.331  44.411  10.538  1.00  0.00     0.027 C
HETATM    9  C6  UNL     1      65.467  45.368  11.377  1.00  0.00     0.101 C
HETATM   10  N2  UNL     1      64.399  45.613  12.349  1.00  0.00    -0.115 NA
ENDBRANCH   1   8
TORSDOF 2
ENDMDL