MODEL 1
REMARK VINA RESULT: -6.321068913      0.000      0.000
REMARK  10 active torsions:
REMARK  status: ('A' for Active; 'I' for Inactive)
REMARK    1  A    between atoms: C2_2  and  C3_3
REMARK    2  A    between atoms: C4_4  and  C5_5
REMARK       I    between atoms: C5_5  and  N1_7
REMARK    3  A    between atoms: C7_9  and  N2_10
REMARK    4  A    between atoms: N2_10  and  C8_12
REMARK    5  A    between atoms: C10_16  and  C11_17
REMARK       I    between atoms: C11_17  and  N4_19
REMARK    6  A    between atoms: N4_19  and  C12_21
REMARK    7  A    between atoms: C12_21  and  C13_22
REMARK    8  A    between atoms: C12_21  and  C14_25
REMARK       I    between atoms: C14_25  and  N6_27
REMARK    9  A    between atoms: N6_27  and  C15_28
REMARK   10  A    between atoms: N6_27  and  C18_31
ROOT
HETATM    1  C5  UNL     1      -4.661   3.402  21.829  1.00  0.00     0.225 C
HETATM    2  O1  UNL     1      -5.859   3.563  21.468  1.00  0.00    -0.273 OA
HETATM    3  N1  UNL     1      -3.677   4.126  21.104  1.00  0.00    -0.336 N
HETATM    4  C6  UNL     1      -3.938   5.040  20.013  1.00  0.00     0.152 C
HETATM    5  C7  UNL     1      -2.894   6.098  20.018  1.00  0.00     0.104 C
HETATM    6  C9  UNL     1      -1.835   5.572  20.934  1.00  0.00     0.061 C
HETATM    7  C10 UNL     1      -2.234   4.124  21.246  1.00  0.00     0.181 C
ENDROOT
BRANCH   7   8
HETATM    8  C11 UNL     1      -1.581   3.264  20.237  1.00  0.00     0.241 C
HETATM    9  O2  UNL     1      -0.954   3.814  19.302  1.00  0.00    -0.271 OA
HETATM   10  N4  UNL     1      -1.639   1.857  20.285  1.00  0.00    -0.339 N
ATOM     11  H4  UNL     1      -2.152   1.415  21.047  1.00  0.00     0.163 HD
BRANCH  10  12
HETATM   12  C12 UNL     1      -0.992   1.001  19.283  1.00  0.00     0.266 C
BRANCH  12  13
HETATM   13  C13 UNL     1       0.259   0.500  19.931  1.00  0.00     0.263 C
HETATM   14  N5  UNL     1       0.286  -0.661  20.738  1.00  0.00    -0.060 NA
HETATM   15  O3  UNL     1       1.369   1.123  19.768  1.00  0.00    -0.274 OA
ENDBRANCH  12  13
BRANCH  12  16
HETATM   16  C14 UNL     1      -1.863  -0.150  18.954  1.00  0.00     0.252 C
HETATM   17  O4  UNL     1      -2.806  -0.386  19.763  1.00  0.00    -0.270 OA
HETATM   18  N6  UNL     1      -1.727  -0.970  17.842  1.00  0.00    -0.342 N
BRANCH  18  19
HETATM   19  C15 UNL     1      -2.651  -2.105  17.642  1.00  0.00     0.079 C
HETATM   20  C16 UNL     1      -4.085  -1.612  17.658  1.00  0.00     0.032 C
HETATM   21  C17 UNL     1      -2.484  -3.103  18.742  1.00  0.00     0.032 C
ENDBRANCH  18  19
BRANCH  18  22
HETATM   22  C18 UNL     1      -0.721  -0.752  16.839  1.00  0.00     0.079 C
HETATM   23  C19 UNL     1      -1.347  -1.022  15.442  1.00  0.00     0.032 C
HETATM   24  C20 UNL     1       0.451  -1.677  16.915  1.00  0.00     0.032 C
ENDBRANCH  18  22
ENDBRANCH  12  16
ENDBRANCH  10  12
ENDBRANCH   7   8
BRANCH   1  25
HETATM   25  C4  UNL     1      -4.388   2.504  22.940  1.00  0.00     0.088 C
HETATM   26  C3  UNL     1      -4.064   3.062  24.290  1.00  0.00     0.008 C
HETATM   27  C25 UNL     1      -5.133   2.234  24.933  1.00  0.00    -0.027 A
HETATM   28  C21 UNL     1      -5.639   1.942  23.572  1.00  0.00     0.017 A
HETATM   29  C22 UNL     1      -5.373   0.830  24.518  1.00  0.00    -0.034 A
HETATM   30  C26 UNL     1      -5.992   2.832  26.010  1.00  0.00     0.016 C
HETATM   31  C23 UNL     1      -6.583   0.093  24.984  1.00  0.00     0.016 C
HETATM   32  C24 UNL     1      -4.129  -0.020  24.358  1.00  0.00     0.016 C
BRANCH  26  33
HETATM   33  C2  UNL     1      -4.289   4.530  24.508  1.00  0.00     0.002 C
HETATM   34  C1  UNL     1      -2.969   5.176  24.873  1.00  0.00     0.005 C
ENDBRANCH  26  33
ENDBRANCH   1  25
BRANCH   5  35
HETATM   35  N2  UNL     1      -3.344   7.410  20.369  1.00  0.00    -0.363 N
ATOM     36  H2  UNL     1      -3.964   7.515  21.172  1.00  0.00     0.162 HD
BRANCH  35  37
HETATM   37  C8  UNL     1      -2.966   8.567  19.649  1.00  0.00     0.181 C
HETATM   38  N3  UNL     1      -1.912   8.445  18.703  1.00  0.00    -0.070 NA
HETATM   39  S1  UNL     1      -3.717   9.999  19.897  1.00  0.00    -0.044 SA
ENDBRANCH  35  37
ENDBRANCH   5  35
TORSDOF 10
ENDMDL