MODEL 5
REMARK VINA RESULT: -6.656871822      1.618      3.595
REMARK  13 active torsions:
REMARK  status: ('A' for Active; 'I' for Inactive)
REMARK       I    between atoms: C2_2  and  N1_4
REMARK    1  A    between atoms: N1_4  and  C3_6
REMARK    2  A    between atoms: C3_6  and  C4_7
REMARK    3  A    between atoms: C3_6  and  C8_15
REMARK    4  A    between atoms: C4_7  and  C5_8
REMARK    5  A    between atoms: C5_8  and  C6_9
REMARK    6  A    between atoms: C6_9  and  N2_10
REMARK    7  A    between atoms: C8_15  and  C9_16
REMARK    8  A    between atoms: C9_16  and  C10_17
REMARK    9  A    between atoms: C10_17  and  N5_18
REMARK   10  A    between atoms: C11_20  and  C12_22
REMARK   11  A    between atoms: N8_35  and  C23_36
REMARK   12  A    between atoms: C23_36  and  O3_37
REMARK   13  A    between atoms: C23_36  and  C24_39
ROOT
HETATM    1  C12 UNL     1       0.289   0.663  20.319  1.00  0.00     0.098 C
HETATM    2  C13 UNL     1       0.434   0.742  21.805  1.00  0.00     0.042 C
HETATM    3  C14 UNL     1       0.781  -0.552  22.507  1.00  0.00     0.084 C
HETATM    4  C15 UNL     1       2.057  -0.365  23.290  1.00  0.00     0.032 C
HETATM    5  N7  UNL     1       0.936  -1.492  21.432  1.00  0.00    -0.340 N
HETATM    6  C16 UNL     1       2.019  -1.565  20.563  1.00  0.00     0.249 C
HETATM    7  O2  UNL     1       3.199  -1.256  20.809  1.00  0.00    -0.270 OA
HETATM    8  C17 UNL     1       1.477  -2.108  19.216  1.00  0.00     0.118 C
HETATM    9  C18 UNL     1       2.654  -2.636  18.507  1.00  0.00     0.049 C
HETATM   10  C19 UNL     1       0.638  -3.234  19.858  1.00  0.00     0.067 C
HETATM   11  C20 UNL     1      -0.033  -2.470  20.983  1.00  0.00     0.096 C
HETATM   12  C21 UNL     1      -1.096  -1.508  20.355  1.00  0.00     0.079 C
HETATM   13  C22 UNL     1      -0.292  -0.453  19.635  1.00  0.00     0.005 C
HETATM   14  N8  UNL     1       0.581  -1.189  18.634  1.00  0.00    -0.319 N
ENDROOT
BRANCH   1  15
HETATM   15  C11 UNL     1      -0.417   1.945  19.944  1.00  0.00     0.098 C
HETATM   16  N5  UNL     1      -0.883   2.698  20.846  1.00  0.00    -0.381 N
ATOM     17  H5  UNL     1      -0.749   2.407  21.814  1.00  0.00     0.160 HD
HETATM   18  N6  UNL     1      -0.551   2.260  18.585  1.00  0.00    -0.087 NA
BRANCH  16  19
HETATM   19  C10 UNL     1      -1.588   3.935  20.618  1.00  0.00     0.120 C
BRANCH  19  20
HETATM   20  C9  UNL     1      -1.397   4.883  21.799  1.00  0.00     0.022 C
BRANCH  20  21
HETATM   21  C8  UNL     1      -2.805   5.350  22.158  1.00  0.00     0.027 C
BRANCH  21  22
HETATM   22  C3  UNL     1      -3.599   5.627  20.896  1.00  0.00     0.084 C
BRANCH  22  23
HETATM   23  N1  UNL     1      -3.775   7.045  20.726  1.00  0.00    -0.357 N
HETATM   24  C2  UNL     1      -2.934   7.749  19.833  1.00  0.00     0.213 C
HETATM   25  C1  UNL     1      -3.097   9.228  19.637  1.00  0.00     0.117 C
HETATM   26  O1  UNL     1      -2.022   7.146  19.177  1.00  0.00    -0.274 OA
ATOM     27  H1  UNL     1      -4.501   7.538  21.246  1.00  0.00     0.162 HD
ENDBRANCH  22  23
BRANCH  22  28
HETATM   28  C4  UNL     1      -4.971   5.007  21.064  1.00  0.00     0.027 C
BRANCH  28  29
HETATM   29  C5  UNL     1      -5.303   3.996  20.009  1.00  0.00     0.022 C
BRANCH  29  30
HETATM   30  C6  UNL     1      -5.755   2.732  20.755  1.00  0.00     0.122 C
BRANCH  30  31
HETATM   31  N2  UNL     1      -4.787   2.403  21.765  1.00  0.00    -0.367 N
HETATM   32  C7  UNL     1      -4.022   1.375  21.563  1.00  0.00     0.196 C
HETATM   33  N3  UNL     1      -4.126   0.587  20.383  1.00  0.00    -0.067 NA
HETATM   34  N4  UNL     1      -3.062   1.063  22.583  1.00  0.00    -0.067 NA
ATOM     35  H2  UNL     1      -4.704   2.961  22.615  1.00  0.00     0.161 HD
ENDBRANCH  30  31
ENDBRANCH  29  30
ENDBRANCH  28  29
ENDBRANCH  22  28
ENDBRANCH  21  22
ENDBRANCH  20  21
ENDBRANCH  19  20
ENDBRANCH  16  19
ENDBRANCH   1  15
BRANCH  14  36
HETATM   36  C23 UNL     1       0.335  -0.929  17.273  1.00  0.00     0.126 C
BRANCH  36  37
HETATM   37  O3  UNL     1       0.948   0.202  16.909  1.00  0.00    -0.349 OA
ATOM     38  H3  UNL     1       0.322   0.916  16.892  1.00  0.00     0.219 HD
ENDBRANCH  36  37
BRANCH  36  39
HETATM   39  C24 UNL     1      -0.394  -1.542  16.190  1.00  0.00     0.014 C
HETATM   40  C25 UNL     1      -1.813  -0.867  16.079  1.00  0.00     0.023 C
HETATM   41  C26 UNL     1      -0.725  -2.995  16.325  1.00  0.00     0.023 C
HETATM   42  C27 UNL     1       0.199  -1.288  14.837  1.00  0.00     0.023 C
ENDBRANCH  36  39
ENDBRANCH  14  36
TORSDOF 13
ENDMDL