MODEL 3
REMARK VINA RESULT: -5.895902915      3.258      7.798
REMARK  11 active torsions:
REMARK  status: ('A' for Active; 'I' for Inactive)
REMARK    1  A    between atoms: C2_2  and  C3_3
REMARK    2  A    between atoms: C3_3  and  N1_4
REMARK    3  A    between atoms: C5_6  and  C6_7
REMARK    4  A    between atoms: C6_7  and  C7_8
REMARK    5  A    between atoms: C11_15  and  C12_16
REMARK    6  A    between atoms: C15_21  and  O2_22
REMARK    7  A    between atoms: C16_24  and  O3_25
REMARK    8  A    between atoms: C17_29  and  C18_30
REMARK    9  A    between atoms: C18_30  and  C19_31
REMARK   10  A    between atoms: C19_31  and  N5_32
REMARK   11  A    between atoms: C23_36  and  O4_37
ROOT
HETATM    1  N1  UNL     1      -1.643   5.010  20.825  1.00  0.00    -0.345 N
HETATM    2  C4  UNL     1      -0.550   4.537  21.673  1.00  0.00     0.151 C
HETATM    3  C5  UNL     1      -0.524   3.100  21.990  1.00  0.00     0.102 C
HETATM    4  N2  UNL     1      -0.516   2.263  20.817  1.00  0.00    -0.353 N
ATOM      5  H2  UNL     1      -1.096   2.605  20.051  1.00  0.00     0.163 HD
HETATM    6  C10 UNL     1       0.143   1.077  20.549  1.00  0.00     0.241 C
HETATM    7  O1  UNL     1       1.005   1.138  19.583  1.00  0.00    -0.271 OA
HETATM    8  C11 UNL     1       0.011  -0.247  21.196  1.00  0.00     0.179 C
HETATM    9  N3  UNL     1      -1.267  -0.555  21.744  1.00  0.00    -0.354 N
ATOM     10  H3  UNL     1      -1.337  -0.404  22.751  1.00  0.00     0.162 HD
HETATM   11  C15 UNL     1      -2.450  -1.028  21.151  1.00  0.00     0.188 C
HETATM   12  C16 UNL     1      -3.297  -0.435  20.128  1.00  0.00     0.188 C
HETATM   13  N4  UNL     1      -3.992   0.809  20.171  1.00  0.00    -0.355 N
ATOM     14  H4  UNL     1      -3.756   1.465  19.425  1.00  0.00     0.162 HD
HETATM   15  C17 UNL     1      -4.964   1.271  21.101  1.00  0.00     0.159 C
HETATM   16  C23 UNL     1      -4.475   2.080  22.228  1.00  0.00     0.135 C
HETATM   17  N6  UNL     1      -4.501   3.415  22.545  1.00  0.00    -0.355 N
ATOM     18  H6  UNL     1      -5.144   3.594  23.317  1.00  0.00     0.162 HD
HETATM   19  C24 UNL     1      -3.884   4.621  22.103  1.00  0.00     0.105 C
HETATM   20  C25 UNL     1      -3.247   5.348  23.320  1.00  0.00     0.048 C
HETATM   21  C26 UNL     1      -5.033   5.621  21.749  1.00  0.00     0.048 C
HETATM   22  C27 UNL     1      -3.008   4.645  20.953  1.00  0.00     0.247 C
HETATM   23  O5  UNL     1      -3.504   4.283  19.815  1.00  0.00    -0.271 OA
ENDROOT
BRANCH  15  24
HETATM   24  C18 UNL     1      -6.182   1.884  20.382  1.00  0.00     0.061 C
BRANCH  24  25
HETATM   25  C19 UNL     1      -7.362   1.588  21.305  1.00  0.00     0.238 C
BRANCH  25  26
HETATM   26  N5  UNL     1      -8.205   2.768  21.344  1.00  0.00    -0.079 N
HETATM   27  C20 UNL     1      -7.793   3.760  20.385  1.00  0.00     0.271 C
HETATM   28  C21 UNL     1      -8.125   3.350  22.670  1.00  0.00     0.271 C
HETATM   29  C22 UNL     1      -9.590   2.435  21.074  1.00  0.00     0.271 C
ENDBRANCH  25  26
ENDBRANCH  24  25
ENDBRANCH  15  24
BRANCH  16  30
HETATM   30  O4  UNL     1      -3.882   1.327  23.128  1.00  0.00    -0.348 OA
ATOM     31  H4  UNL     1      -3.737   1.808  23.934  1.00  0.00     0.219 HD
ENDBRANCH  16  30
BRANCH  12  32
HETATM   32  O3  UNL     1      -3.407  -1.168  19.053  1.00  0.00    -0.343 OA
ATOM     33  H3  UNL     1      -4.286  -1.498  18.907  1.00  0.00     0.219 HD
ENDBRANCH  12  32
BRANCH  11  34
HETATM   34  O2  UNL     1      -2.884  -2.188  21.564  1.00  0.00    -0.343 OA
ATOM     35  H2  UNL     1      -3.818  -2.340  21.490  1.00  0.00     0.219 HD
ENDBRANCH  11  34
BRANCH   8  36
HETATM   36  C12 UNL     1       0.615  -1.299  20.292  1.00  0.00     0.009 C
HETATM   37  C13 UNL     1       0.885  -2.589  21.041  1.00  0.00     0.012 C
HETATM   38  C14 UNL     1      -0.071  -1.508  18.995  1.00  0.00     0.012 C
ENDBRANCH   8  36
BRANCH   1  39
HETATM   39  C3  UNL     1      -1.196   5.947  19.771  1.00  0.00     0.152 C
BRANCH  39  40
HETATM   40  C2  UNL     1      -1.539   7.338  20.012  1.00  0.00    -0.017 C
HETATM   41  C1  UNL     1      -2.427   7.951  19.258  1.00  0.00     0.008 C
ENDBRANCH  39  40
ENDBRANCH   1  39
BRANCH   3  42
HETATM   42  C6  UNL     1       0.425   2.751  23.051  1.00  0.00     0.030 C
BRANCH  42  43
HETATM   43  C7  UNL     1       0.345   3.282  24.409  1.00  0.00    -0.021 C
HETATM   44  C8  UNL     1      -0.949   3.274  25.129  1.00  0.00     0.009 C
HETATM   45  C9  UNL     1       1.324   2.431  25.258  1.00  0.00     0.009 C
ENDBRANCH  42  43
ENDBRANCH   3  42
TORSDOF 11
ENDMDL