MODEL 1
REMARK VINA RESULT: -6.644264156      0.000      0.000
REMARK  9 active torsions:
REMARK  status: ('A' for Active; 'I' for Inactive)
REMARK    1  A    between atoms: C2_2  and  C3_3
REMARK    2  A    between atoms: C3_3  and  C5_5
REMARK    3  A    between atoms: C11_17  and  C12_18
REMARK    4  A    between atoms: C12_18  and  N3_19
REMARK    5  A    between atoms: N3_19  and  C13_20
REMARK    6  A    between atoms: C18_25  and  C19_26
REMARK       I    between atoms: N4_28  and  C20_29
REMARK    7  A    between atoms: C22_32  and  C23_33
REMARK    8  A    between atoms: C23_33  and  C25_35
REMARK    9  A    between atoms: C27_37  and  O5_38
ROOT
HETATM    1  C5  UNL     1      -3.027   5.304  20.923  1.00  0.00     0.096 C
HETATM    2  C6  UNL     1      -3.987   5.356  22.054  1.00  0.00     0.128 C
HETATM    3  C7  UNL     1      -5.369   4.945  21.704  1.00  0.00     0.220 C
HETATM    4  O1  UNL     1      -6.201   5.162  22.663  1.00  0.00    -0.274 OA
HETATM    5  N1  UNL     1      -5.865   4.386  20.536  1.00  0.00    -0.352 N
ATOM      6  H1  UNL     1      -6.619   4.920  20.104  1.00  0.00     0.162 HD
HETATM    7  C8  UNL     1      -5.512   3.196  19.829  1.00  0.00     0.225 C
HETATM    8  C9  UNL     1      -5.806   1.923  20.535  1.00  0.00     0.235 C
HETATM    9  O2  UNL     1      -7.053   1.610  20.560  1.00  0.00    -0.272 OA
HETATM   10  N2  UNL     1      -4.885   1.053  21.154  1.00  0.00    -0.358 N
ATOM     11  H2  UNL     1      -4.906   0.087  20.825  1.00  0.00     0.162 HD
HETATM   12  C10 UNL     1      -3.932   1.331  22.172  1.00  0.00     0.150 C
HETATM   13  C11 UNL     1      -2.542   0.708  21.979  1.00  0.00     0.137 C
HETATM   14  N4  UNL     1      -1.714   1.420  22.939  1.00  0.00    -0.306 N
HETATM   15  C20 UNL     1      -1.541   0.676  24.136  1.00  0.00     0.221 C
HETATM   16  C21 UNL     1      -2.147  -0.692  24.358  1.00  0.00     0.117 C
HETATM   17  O4  UNL     1      -0.892   1.069  25.086  1.00  0.00    -0.273 OA
HETATM   18  C22 UNL     1      -1.113   2.671  22.866  1.00  0.00     0.090 C
HETATM   19  C27 UNL     1      -1.199   3.594  21.725  1.00  0.00     0.164 C
HETATM   20  N5  UNL     1      -2.086   4.229  20.908  1.00  0.00    -0.364 N
ATOM     21  H5  UNL     1      -2.074   3.795  19.985  1.00  0.00     0.162 HD
ENDROOT
BRANCH  13  22
HETATM   22  C12 UNL     1      -2.148   0.477  20.607  1.00  0.00     0.265 C
BRANCH  22  23
HETATM   23  N3  UNL     1      -1.386  -0.583  20.131  1.00  0.00    -0.055 N
HETATM   24  C15 UNL     1      -2.049  -1.762  19.634  1.00  0.00     0.238 C
HETATM   25  C16 UNL     1      -2.762  -1.442  18.367  1.00  0.00     0.030 C
HETATM   26  C17 UNL     1      -1.883  -0.336  17.813  1.00  0.00     0.042 C
HETATM   27  C18 UNL     1      -0.772  -0.166  18.834  1.00  0.00     0.251 C
BRANCH  23  28
HETATM   28  C13 UNL     1      -0.273  -1.074  20.887  1.00  0.00     0.234 C
HETATM   29  C14 UNL     1       0.567  -2.127  20.265  1.00  0.00     0.035 C
ENDBRANCH  23  28
BRANCH  27  30
HETATM   30  C19 UNL     1      -0.371   1.230  18.803  1.00  0.00     0.264 C
HETATM   31  O3  UNL     1       0.444   1.517  17.910  1.00  0.00    -0.305 OA
ENDBRANCH  27  30
ENDBRANCH  22  23
ENDBRANCH  13  22
BRANCH  18  32
HETATM   32  C23 UNL     1      -0.738   3.496  24.048  1.00  0.00    -0.053 C
HETATM   33  C24 UNL     1       0.659   3.812  24.364  1.00  0.00     0.046 C
BRANCH  32  34
HETATM   34  C25 UNL     1      -1.702   4.484  24.615  1.00  0.00     0.031 C
HETATM   35  C26 UNL     1      -1.879   4.269  26.131  1.00  0.00     0.010 C
ENDBRANCH  32  34
ENDBRANCH  18  32
BRANCH  19  36
HETATM   36  O5  UNL     1       0.057   3.937  21.356  1.00  0.00    -0.345 OA
ATOM     37  H5  UNL     1       0.022   4.781  20.921  1.00  0.00     0.219 HD
ENDBRANCH  19  36
BRANCH   1  38
HETATM   38  C3  UNL     1      -2.437   6.706  20.689  1.00  0.00     0.004 C
HETATM   39  C4  UNL     1      -3.596   7.599  20.284  1.00  0.00     0.012 C
BRANCH  38  40
HETATM   40  C2  UNL     1      -1.424   6.588  19.583  1.00  0.00     0.002 C
HETATM   41  C1  UNL     1      -1.418   7.816  18.689  1.00  0.00     0.005 C
ENDBRANCH  38  40
ENDBRANCH   1  38
TORSDOF 9
ENDMDL