MODEL 3
REMARK VINA RESULT: -6.696318774      2.680      8.677
REMARK  12 active torsions:
REMARK  status: ('A' for Active; 'I' for Inactive)
REMARK    1  A    between atoms: C2_2  and  C3_3
REMARK    2  A    between atoms: C4_4  and  C5_5
REMARK    3  A    between atoms: C11_16  and  C12_17
REMARK    4  A    between atoms: C12_17  and  C13_18
REMARK    5  A    between atoms: C13_18  and  C14_19
REMARK    6  A    between atoms: C14_19  and  C15_20
REMARK    7  A    between atoms: C15_20  and  N3_21
REMARK    8  A    between atoms: N3_21  and  C18_24
REMARK    9  A    between atoms: C18_24  and  C19_25
REMARK   10  A    between atoms: C19_25  and  C20_26
REMARK   11  A    between atoms: C20_26  and  C21_27
REMARK   12  A    between atoms: C23_31  and  O2_32
ROOT
HETATM    1  C5  UNL     1      -2.795   4.627  21.618  1.00  0.00     0.097 C
HETATM    2  C6  UNL     1      -3.546   3.795  20.619  1.00  0.00     0.041 C
HETATM    3  C7  UNL     1      -4.866   4.406  20.209  1.00  0.00     0.120 C
HETATM    4  N1  UNL     1      -5.416   5.322  21.135  1.00  0.00    -0.401 N
ATOM      5  H1  UNL     1      -5.198   6.309  20.998  1.00  0.00     0.158 HD
HETATM    6  C8  UNL     1      -6.164   5.024  22.131  1.00  0.00     0.075 C
HETATM    7  C9  UNL     1      -6.574   3.642  22.471  1.00  0.00     0.166 C
HETATM    8  N2  UNL     1      -6.778   3.383  23.856  1.00  0.00    -0.355 N
ATOM      9  H2  UNL     1      -7.747   3.278  24.154  1.00  0.00     0.162 HD
HETATM   10  C10 UNL     1      -5.800   3.256  24.868  1.00  0.00     0.240 C
HETATM   11  O1  UNL     1      -5.820   2.255  25.670  1.00  0.00    -0.271 OA
HETATM   12  C11 UNL     1      -4.690   4.215  25.112  1.00  0.00     0.175 C
HETATM   13  N4  UNL     1      -3.402   3.606  25.312  1.00  0.00    -0.357 N
ATOM     14  H4  UNL     1      -3.370   3.001  26.134  1.00  0.00     0.162 HD
HETATM   15  C23 UNL     1      -2.191   3.662  24.630  1.00  0.00     0.152 C
HETATM   16  C24 UNL     1      -1.727   3.069  23.354  1.00  0.00     0.087 C
HETATM   17  C25 UNL     1      -2.204   1.731  23.040  1.00  0.00     0.266 C
HETATM   18  O3  UNL     1      -3.141   1.222  23.658  1.00  0.00    -0.267 OA
HETATM   19  N5  UNL     1      -1.605   0.973  22.018  1.00  0.00    -0.296 N
ATOM     20  H5  UNL     1      -1.699  -0.042  21.994  1.00  0.00     0.177 HD
HETATM   21  S1  UNL     1      -0.674   1.839  20.765  1.00  0.00    -0.049 SA
HETATM   22  C26 UNL     1      -0.568   3.572  21.193  1.00  0.00     0.134 C
HETATM   23  C27 UNL     1      -1.589   4.033  22.216  1.00  0.00    -0.033 C
ENDROOT
BRANCH  12  24
HETATM   24  C12 UNL     1      -5.044   5.008  26.405  1.00  0.00     0.035 C
BRANCH  24  25
HETATM   25  C13 UNL     1      -3.978   6.035  26.676  1.00  0.00     0.004 C
BRANCH  25  26
HETATM   26  C14 UNL     1      -3.495   6.028  28.086  1.00  0.00     0.028 C
BRANCH  26  27
HETATM   27  C15 UNL     1      -2.008   6.026  28.216  1.00  0.00     0.236 C
BRANCH  27  28
HETATM   28  N3  UNL     1      -1.530   5.803  29.544  1.00  0.00    -0.075 N
HETATM   29  C16 UNL     1      -0.723   4.621  29.704  1.00  0.00     0.272 C
HETATM   30  C17 UNL     1      -2.687   5.672  30.438  1.00  0.00     0.272 C
BRANCH  28  31
HETATM   31  C18 UNL     1      -0.770   6.934  30.053  1.00  0.00     0.236 C
BRANCH  31  32
HETATM   32  C19 UNL     1      -1.676   8.040  30.492  1.00  0.00     0.028 C
BRANCH  32  33
HETATM   33  C20 UNL     1      -0.903   8.998  31.408  1.00  0.00     0.001 C
BRANCH  33  34
HETATM   34  C21 UNL     1      -1.099   8.587  32.848  1.00  0.00    -0.005 C
HETATM   35  C22 UNL     1      -0.182   9.384  33.736  1.00  0.00     0.005 C
ENDBRANCH  33  34
ENDBRANCH  32  33
ENDBRANCH  31  32
ENDBRANCH  28  31
ENDBRANCH  27  28
ENDBRANCH  26  27
ENDBRANCH  25  26
ENDBRANCH  24  25
ENDBRANCH  12  24
BRANCH  15  36
HETATM   36  O2  UNL     1      -1.242   4.375  25.203  1.00  0.00    -0.346 OA
ATOM     37  H2  UNL     1      -0.466   4.529  24.678  1.00  0.00     0.219 HD
ENDBRANCH  15  36
BRANCH   1  38
HETATM   38  C4  UNL     1      -2.425   5.888  20.892  1.00  0.00    -0.097 C
HETATM   39  C3  UNL     1      -2.107   6.902  20.318  1.00  0.00    -0.106 C
BRANCH  39  40
HETATM   40  C2  UNL     1      -1.706   8.141  19.646  1.00  0.00     0.089 C
HETATM   41  C1  UNL     1      -2.820   9.158  19.653  1.00  0.00     0.018 C
ENDBRANCH  39  40
ENDBRANCH   1  38
TORSDOF 12
ENDMDL