MODEL 2
REMARK VINA RESULT: -6.666052693      3.601      6.692
REMARK  9 active torsions:
REMARK  status: ('A' for Active; 'I' for Inactive)
REMARK    1  A    between atoms: O1_2  and  C2_3
REMARK    2  A    between atoms: C2_3  and  C3_4
REMARK    3  A    between atoms: C3_4  and  C4_5
REMARK    4  A    between atoms: C4_5  and  N1_6
REMARK    5  A    between atoms: N4_15  and  C8_16
REMARK    6  A    between atoms: C8_16  and  C9_17
REMARK    7  A    between atoms: C9_17  and  C10_18
REMARK    8  A    between atoms: C10_18  and  N5_19
REMARK    9  A    between atoms: C28_41  and  N9_42
ROOT
HETATM    1  N1  UNL     1      -2.917   2.074  20.678  1.00  0.00    -0.241 N
HETATM    2  C5  UNL     1      -4.220   1.627  20.698  1.00  0.00     0.190 A
HETATM    3  C6  UNL     1      -5.252   2.543  20.581  1.00  0.00     0.171 A
HETATM    4  N2  UNL     1      -6.395   1.880  20.578  1.00  0.00    -0.173 N
ATOM      5  H2  UNL     1      -7.322   2.298  20.503  1.00  0.00     0.186 HD
HETATM    6  C7  UNL     1      -6.143   0.590  20.686  1.00  0.00     0.681 A
HETATM    7  N3  UNL     1      -6.957  -0.400  20.708  1.00  0.00    -0.234 N
ATOM      8  H31 UNL     1      -6.763  -1.398  20.792  1.00  0.00     0.174 HD
ATOM      9  H32 UNL     1      -7.966  -0.263  20.648  1.00  0.00     0.174 HD
HETATM   10  N4  UNL     1      -4.759   0.401  20.769  1.00  0.00    -0.163 N
HETATM   11  N7  UNL     1      -5.045   3.869  20.457  1.00  0.00    -0.317 N
HETATM   12  C20 UNL     1      -6.210   4.739  20.390  1.00  0.00     0.159 C
HETATM   13  C21 UNL     1      -3.794   4.302  20.438  1.00  0.00     0.161 A
HETATM   14  C22 UNL     1      -3.573   5.680  20.284  1.00  0.00     0.089 A
HETATM   15  N8  UNL     1      -4.382   6.734  20.150  1.00  0.00    -0.356 N
ATOM     16  H8  UNL     1      -5.403   6.714  20.141  1.00  0.00     0.166 HD
HETATM   17  C23 UNL     1      -3.593   7.844  20.026  1.00  0.00     0.006 A
HETATM   18  C24 UNL     1      -4.124   9.240  19.854  1.00  0.00     0.068 C
HETATM   19  C25 UNL     1      -2.287   7.484  20.081  1.00  0.00     0.038 A
HETATM   20  C26 UNL     1      -2.259   6.096  20.246  1.00  0.00    -0.000 A
HETATM   21  C27 UNL     1      -1.220   5.224  20.350  1.00  0.00     0.064 A
HETATM   22  C28 UNL     1      -1.484   3.860  20.502  1.00  0.00     0.124 A
HETATM   23  N10 UNL     1      -2.741   3.409  20.547  1.00  0.00    -0.214 N
ENDROOT
BRANCH  10  24
HETATM   24  C8  UNL     1      -4.258  -0.888  21.001  1.00  0.00     0.151 C
BRANCH  24  25
HETATM   25  C9  UNL     1      -4.036  -1.517  19.586  1.00  0.00     0.049 C
BRANCH  25  26
HETATM   26  C10 UNL     1      -2.688  -2.168  19.583  1.00  0.00     0.239 C
BRANCH  26  27
HETATM   27  N5  UNL     1      -1.976  -2.108  18.343  1.00  0.00    -0.064 N
HETATM   28  C11 UNL     1      -0.648  -2.684  18.447  1.00  0.00     0.239 C
HETATM   29  C12 UNL     1       0.377  -2.024  17.586  1.00  0.00     0.061 C
HETATM   30  C13 UNL     1       0.196  -2.334  16.115  1.00  0.00     0.187 C
HETATM   31  C14 UNL     1       0.662  -3.703  15.738  1.00  0.00     0.040 C
HETATM   32  N6  UNL     1      -1.193  -2.098  15.749  1.00  0.00    -0.064 N
HETATM   33  C15 UNL     1      -1.241  -2.003  14.287  1.00  0.00     0.273 C
HETATM   34  C16 UNL     1      -1.613  -0.838  16.269  1.00  0.00     0.265 C
HETATM   35  C18 UNL     1      -2.005  -3.206  16.135  1.00  0.00     0.265 C
HETATM   36  C17 UNL     1      -1.974  -0.812  17.713  1.00  0.00     0.265 C
HETATM   37  C19 UNL     1      -2.714  -2.991  17.423  1.00  0.00     0.265 C
ENDBRANCH  26  27
ENDBRANCH  25  26
ENDBRANCH  24  25
ENDBRANCH  10  24
BRANCH   1  38
HETATM   38  C4  UNL     1      -1.855   1.154  20.753  1.00  0.00     0.094 C
BRANCH  38  39
HETATM   39  C3  UNL     1      -1.379   0.512  21.991  1.00  0.00     0.073 C
BRANCH  39  40
HETATM   40  C2  UNL     1      -0.123  -0.321  21.661  1.00  0.00     0.172 C
BRANCH  40  41
HETATM   41  O1  UNL     1       0.438   0.057  20.468  1.00  0.00    -0.396 OA
HETATM   42  C1  UNL     1       1.793  -0.242  20.396  1.00  0.00     0.201 C
ENDBRANCH  40  41
ENDBRANCH  39  40
ENDBRANCH  38  39
ENDBRANCH   1  38
BRANCH  22  43
HETATM   43  N9  UNL     1      -0.478   3.096  20.555  1.00  0.00    -0.384 N
ATOM     44  H92 UNL     1       0.435   3.356  20.182  1.00  0.00     0.157 HD
ATOM     45  H91 UNL     1      -0.615   2.199  21.023  1.00  0.00     0.157 HD
ENDBRANCH  22  43
TORSDOF 9
ENDMDL