MODEL 2
REMARK VINA RESULT: -6.856168952      0.949      1.099
REMARK  13 active torsions:
REMARK  status: ('A' for Active; 'I' for Inactive)
REMARK    1  A    between atoms: C2_2  and  O1_4
REMARK    2  A    between atoms: C2_2  and  C4_6
REMARK    3  A    between atoms: C5_7  and  C6_8
REMARK    4  A    between atoms: C7_9  and  C8_10
REMARK    5  A    between atoms: C9_11  and  C10_12
REMARK    6  A    between atoms: C10_12  and  N1_13
REMARK    7  A    between atoms: N1_13  and  C11_14
REMARK       I    between atoms: N1_13  and  C16_20
REMARK    8  A    between atoms: C11_14  and  C12_15
REMARK    9  A    between atoms: C12_15  and  N2_16
REMARK   10  A    between atoms: C16_20  and  C17_22
REMARK       I    between atoms: C17_22  and  N3_24
REMARK   11  A    between atoms: N3_24  and  C18_26
REMARK   12  A    between atoms: C25_33  and  C26_34
REMARK   13  A    between atoms: C26_34  and  O4_35
ROOT
HETATM    1  N1  UNL     1      -1.151   3.297  23.448  1.00  0.00    -0.339 N
HETATM    2  C16 UNL     1      -0.383   2.308  22.850  1.00  0.00     0.312 C
HETATM    3  O2  UNL     1       0.557   1.751  23.522  1.00  0.00    -0.262 OA
ENDROOT
BRANCH   2   4
HETATM    4  C17 UNL     1      -0.579   1.844  21.475  1.00  0.00     0.313 C
HETATM    5  O3  UNL     1      -1.698   1.714  20.967  1.00  0.00    -0.262 OA
HETATM    6  N3  UNL     1       0.545   1.529  20.687  1.00  0.00    -0.329 N
ATOM      7  H3  UNL     1       1.436   1.686  21.157  1.00  0.00     0.168 HD
BRANCH   6   8
HETATM    8  C18 UNL     1       0.670   1.050  19.406  1.00  0.00     0.097 C
HETATM    9  C19 UNL     1       0.431  -0.234  18.832  1.00  0.00    -0.028 C
HETATM   10  C20 UNL     1       1.195  -1.458  19.293  1.00  0.00    -0.014 C
HETATM   11  C28 UNL     1      -0.754  -1.048  18.603  1.00  0.00     0.059 C
HETATM   12  C21 UNL     1       2.626  -1.454  18.802  1.00  0.00     0.020 C
HETATM   13  C22 UNL     1       1.150  -1.854  20.707  1.00  0.00     0.020 C
HETATM   14  C23 UNL     1       0.208  -2.236  18.451  1.00  0.00     0.031 C
HETATM   15  C24 UNL     1       0.538  -2.679  17.112  1.00  0.00     0.024 C
HETATM   16  C25 UNL     1       0.231  -1.860  15.923  1.00  0.00     0.102 C
HETATM   17  C27 UNL     1      -1.035  -1.157  16.073  1.00  0.00     0.224 C
HETATM   18  O5  UNL     1      -1.743  -0.862  15.049  1.00  0.00    -0.273 OA
HETATM   19  N4  UNL     1      -1.483  -0.799  17.354  1.00  0.00    -0.347 N
ATOM     20  H4  UNL     1      -2.386  -0.331  17.422  1.00  0.00     0.163 HD
HETATM   21  C29 UNL     1      -1.794  -1.319  19.650  1.00  0.00     0.044 C
BRANCH  16  22
HETATM   22  C26 UNL     1       0.061  -2.809  14.724  1.00  0.00     0.178 C
BRANCH  22  23
HETATM   23  O4  UNL     1       0.191  -2.126  13.529  1.00  0.00    -0.400 OA
ATOM     24  H4  UNL     1       0.350  -2.726  12.809  1.00  0.00     0.209 HD
ENDBRANCH  22  23
ENDBRANCH  16  22
ENDBRANCH   6   8
ENDBRANCH   2   4
BRANCH   1  25
HETATM   25  C10 UNL     1      -0.768   3.606  24.865  1.00  0.00     0.154 C
BRANCH  25  26
HETATM   26  C9  UNL     1      -1.930   4.310  25.431  1.00  0.00     0.002 C
HETATM   27  C8  UNL     1      -1.846   4.865  26.622  1.00  0.00     0.063 C
BRANCH  27  28
HETATM   28  C7  UNL     1      -3.004   5.540  27.132  1.00  0.00    -0.065 C
HETATM   29  C6  UNL     1      -3.975   6.115  27.582  1.00  0.00    -0.010 C
BRANCH  29  30
HETATM   30  C5  UNL     1      -5.102   6.783  28.129  1.00  0.00    -0.012 C
HETATM   31  C4  UNL     1      -6.057   7.339  28.611  1.00  0.00    -0.055 C
BRANCH  31  32
HETATM   32  C2  UNL     1      -7.205   8.032  29.213  1.00  0.00     0.114 C
HETATM   33  C1  UNL     1      -7.307   7.772  30.702  1.00  0.00     0.060 C
HETATM   34  C3  UNL     1      -7.060   9.533  29.005  1.00  0.00     0.060 C
BRANCH  32  35
HETATM   35  O1  UNL     1      -8.367   7.587  28.590  1.00  0.00    -0.378 OA
ATOM     36  H1  UNL     1      -8.134   7.017  27.867  1.00  0.00     0.211 HD
ENDBRANCH  32  35
ENDBRANCH  31  32
ENDBRANCH  29  30
ENDBRANCH  27  28
ENDBRANCH  25  26
ENDBRANCH   1  25
BRANCH   1  37
HETATM   37  C11 UNL     1      -2.234   4.028  22.862  1.00  0.00     0.154 C
BRANCH  37  38
HETATM   38  C12 UNL     1      -1.667   5.122  21.994  1.00  0.00     0.255 C
BRANCH  38  39
HETATM   39  N2  UNL     1      -2.456   5.326  20.788  1.00  0.00    -0.077 N
HETATM   40  C13 UNL     1      -1.608   4.995  19.666  1.00  0.00     0.271 C
HETATM   41  C14 UNL     1      -3.627   4.474  20.799  1.00  0.00     0.271 C
HETATM   42  C15 UNL     1      -2.917   6.696  20.671  1.00  0.00     0.271 C
ENDBRANCH  38  39
ENDBRANCH  37  38
ENDBRANCH   1  37
TORSDOF 13
ENDMDL