MODEL 1
REMARK VINA RESULT: -7.463909369      0.000      0.000
REMARK  11 active torsions:
REMARK  status: ('A' for Active; 'I' for Inactive)
REMARK    1  A    between atoms: C3_3  and  N1_4
REMARK    2  A    between atoms: N2_7  and  C6_8
REMARK    3  A    between atoms: C6_8  and  C7_9
REMARK    4  A    between atoms: C7_9  and  C8_10
REMARK       I    between atoms: C8_10  and  N3_12
REMARK       I    between atoms: N4_18  and  C13_19
REMARK    5  A    between atoms: N6_21  and  C14_23
REMARK    6  A    between atoms: C17_26  and  C18_27
REMARK    7  A    between atoms: C19_28  and  C20_29
REMARK    8  A    between atoms: C20_29  and  C21_30
REMARK    9  A    between atoms: C21_30  and  C22_31
REMARK   10  A    between atoms: C22_31  and  N7_32
REMARK   11  A    between atoms: C23_36  and  C24_37
ROOT
HETATM    1  C1  UNL     1      -1.289   7.951  32.049  1.00  0.00     0.013 C
HETATM    2  C2  UNL     1      -2.142   7.248  31.583  1.00  0.00    -0.089 C
HETATM    3  C3  UNL     1      -3.185   6.382  31.041  1.00  0.00     0.330 C
ENDROOT
BRANCH   3   4
HETATM    4  N1  UNL     1      -2.771   5.614  29.919  1.00  0.00    -0.052 N
HETATM    5  C4  UNL     1      -3.903   4.992  29.221  1.00  0.00     0.266 C
HETATM    6  C5  UNL     1      -3.368   3.829  28.426  1.00  0.00     0.265 C
HETATM    7  N2  UNL     1      -2.011   4.174  27.960  1.00  0.00    -0.062 N
HETATM    8  C25 UNL     1      -2.007   5.557  27.630  1.00  0.00     0.265 C
HETATM    9  C27 UNL     1      -1.193   3.998  29.200  1.00  0.00     0.265 C
HETATM   10  C26 UNL     1      -1.921   6.329  28.980  1.00  0.00     0.266 C
HETATM   11  C28 UNL     1      -1.921   4.505  30.413  1.00  0.00     0.266 C
BRANCH   7  12
HETATM   12  C6  UNL     1      -1.505   3.229  27.046  1.00  0.00     0.247 C
BRANCH  12  13
HETATM   13  C7  UNL     1      -0.439   3.550  26.100  1.00  0.00     0.131 C
BRANCH  13  14
HETATM   14  C8  UNL     1      -0.629   3.341  24.665  1.00  0.00     0.222 C
HETATM   15  O1  UNL     1       0.200   2.718  23.959  1.00  0.00    -0.273 OA
HETATM   16  N3  UNL     1      -1.764   3.831  23.967  1.00  0.00    -0.333 N
HETATM   17  C9  UNL     1      -2.911   4.614  24.524  1.00  0.00     0.130 C
HETATM   18  C11 UNL     1      -2.397   3.925  22.736  1.00  0.00     0.133 C
HETATM   19  C10 UNL     1      -3.113   5.230  23.146  1.00  0.00     0.062 C
HETATM   20  C12 UNL     1      -3.494   2.953  22.397  1.00  0.00     0.256 C
HETATM   21  C23 UNL     1      -1.701   4.018  21.433  1.00  0.00     0.151 C
HETATM   22  O2  UNL     1      -3.871   1.961  23.053  1.00  0.00    -0.270 OA
HETATM   23  N4  UNL     1      -3.980   3.450  21.156  1.00  0.00    -0.280 N
HETATM   24  C13 UNL     1      -5.316   3.381  20.714  1.00  0.00     0.194 C
HETATM   25  C17 UNL     1      -2.881   4.047  20.433  1.00  0.00     0.135 C
HETATM   26  N5  UNL     1      -5.711   3.906  19.430  1.00  0.00    -0.063 NA
HETATM   27  N6  UNL     1      -6.270   2.847  21.416  1.00  0.00    -0.360 N
ATOM     28  H6  UNL     1      -6.048   2.459  22.332  1.00  0.00     0.162 HD
BRANCH  27  29
HETATM   29  C14 UNL     1      -7.637   2.785  20.947  1.00  0.00     0.076 C
HETATM   30  C15 UNL     1      -8.538   3.449  21.972  1.00  0.00     0.032 C
HETATM   31  C16 UNL     1      -8.040   1.334  20.758  1.00  0.00     0.032 C
ENDBRANCH  27  29
BRANCH  25  32
HETATM   32  C18 UNL     1      -3.101   5.427  19.986  1.00  0.00    -0.004 C
HETATM   33  C19 UNL     1      -2.118   6.289  19.768  1.00  0.00    -0.029 C
BRANCH  33  34
HETATM   34  C20 UNL     1      -2.349   7.682  19.316  1.00  0.00     0.028 C
BRANCH  34  35
HETATM   35  C21 UNL     1      -3.733   8.199  19.616  1.00  0.00     0.031 C
BRANCH  35  36
HETATM   36  C22 UNL     1      -3.771   9.660  19.891  1.00  0.00     0.230 C
BRANCH  36  37
HETATM   37  N7  UNL     1      -2.888  10.451  19.067  1.00  0.00    -0.079 N
ATOM     38  H73 UNL     1      -2.049   9.919  18.835  1.00  0.00     0.274 HD
ATOM     39  H72 UNL     1      -3.284  10.569  18.135  1.00  0.00     0.274 HD
ATOM     40  H71 UNL     1      -2.635  11.356  19.463  1.00  0.00     0.274 HD
ENDBRANCH  36  37
ENDBRANCH  35  36
ENDBRANCH  34  35
ENDBRANCH  33  34
ENDBRANCH  25  32
BRANCH  21  41
HETATM   41  C24 UNL     1      -0.937   2.819  21.084  1.00  0.00     0.182 C
HETATM   42  O3  UNL     1       0.319   2.821  21.129  1.00  0.00    -0.648 OA
HETATM   43  O4  UNL     1      -1.562   1.645  20.692  1.00  0.00    -0.648 OA
ENDBRANCH  21  41
ENDBRANCH  13  14
ENDBRANCH  12  13
ENDBRANCH   7  12
ENDBRANCH   3   4
TORSDOF 11
ENDMDL