MODEL 4
REMARK VINA RESULT: -6.733460710      1.737      2.110
REMARK  9 active torsions:
REMARK  status: ('A' for Active; 'I' for Inactive)
REMARK    1  A    between atoms: N1_4  and  C4_5
REMARK    2  A    between atoms: C4_5  and  C5_6
REMARK    3  A    between atoms: C6_7  and  C7_8
REMARK    4  A    between atoms: C7_8  and  N2_9
REMARK    5  A    between atoms: N2_9  and  C9_11
REMARK    6  A    between atoms: C9_11  and  C10_12
REMARK    7  A    between atoms: C10_12  and  C11_13
REMARK    8  A    between atoms: C15_22  and  N5_23
REMARK       I    between atoms: N5_23  and  C16_25
REMARK       I    between atoms: C16_25  and  N7_29
REMARK    9  A    between atoms: N7_29  and  C18_31
ROOT
HETATM    1  C1  UNL     1      -1.704  -0.419  26.965  1.00  0.00     0.018 C
HETATM    2  C2  UNL     1      -1.332   0.561  26.186  1.00  0.00    -0.039 C
HETATM    3  C3  UNL     1      -1.549   0.626  24.716  1.00  0.00     0.162 C
HETATM    4  N1  UNL     1      -0.360   1.329  24.277  1.00  0.00    -0.336 N
HETATM    5  C14 UNL     1       0.363   1.857  25.381  1.00  0.00     0.248 C
HETATM    6  O1  UNL     1       1.549   2.266  25.397  1.00  0.00    -0.271 OA
HETATM    7  C15 UNL     1      -0.630   1.809  26.521  1.00  0.00     0.222 C
ENDROOT
BRANCH   4   8
HETATM    8  C4  UNL     1       0.100   1.514  22.903  1.00  0.00     0.220 C
BRANCH   8   9
HETATM    9  C5  UNL     1      -0.456   2.775  22.387  1.00  0.00    -0.081 C
HETATM   10  C6  UNL     1      -0.930   3.794  21.964  1.00  0.00    -0.060 C
BRANCH  10  11
HETATM   11  C7  UNL     1      -1.520   5.013  21.476  1.00  0.00     0.154 C
BRANCH  11  12
HETATM   12  N2  UNL     1      -2.744   5.392  22.059  1.00  0.00    -0.367 N
HETATM   13  C8  UNL     1      -3.004   4.987  23.391  1.00  0.00     0.155 C
BRANCH  12  14
HETATM   14  C9  UNL     1      -3.827   5.757  21.240  1.00  0.00     0.069 C
BRANCH  14  15
HETATM   15  C10 UNL     1      -3.406   6.297  19.918  1.00  0.00     0.103 C
BRANCH  15  16
HETATM   16  C11 UNL     1      -3.259   7.751  19.857  1.00  0.00     0.030 A
HETATM   17  C12 UNL     1      -2.095   8.446  19.529  1.00  0.00     0.114 A
HETATM   18  N3  UNL     1      -2.382   9.754  19.579  1.00  0.00    -0.360 N
HETATM   19  C13 UNL     1      -3.657   9.918  19.919  1.00  0.00     0.180 A
ATOM     20  H3  UNL     1      -1.724  10.508  19.386  1.00  0.00     0.166 HD
HETATM   21  N4  UNL     1      -4.185   8.695  20.088  1.00  0.00    -0.354 N
ATOM     22  H4  UNL     1      -5.152   8.510  20.353  1.00  0.00     0.166 HD
ENDBRANCH  15  16
ENDBRANCH  14  15
ENDBRANCH  12  14
ENDBRANCH  11  12
ENDBRANCH  10  11
ENDBRANCH   8   9
ENDBRANCH   4   8
BRANCH   7  23
HETATM   23  N5  UNL     1       0.015   1.870  27.781  1.00  0.00    -0.209 N
HETATM   24  C16 UNL     1      -0.720   2.077  28.970  1.00  0.00     0.670 C
HETATM   25  N6  UNL     1      -0.281   1.553  30.087  1.00  0.00    -0.231 N
HETATM   26  N7  UNL     1      -1.923   2.831  29.036  1.00  0.00    -0.220 N
HETATM   27  C17 UNL     1      -0.937   1.694  31.351  1.00  0.00     0.165 C
ATOM     28  H6  UNL     1       0.583   1.012  30.055  1.00  0.00     0.177 HD
ATOM     29  H7  UNL     1      -2.817   2.444  28.736  1.00  0.00     0.178 HD
ATOM     30  H5  UNL     1       1.028   1.763  27.832  1.00  0.00     0.179 HD
BRANCH  26  31
HETATM   31  C18 UNL     1      -1.809   4.186  29.554  1.00  0.00     0.127 C
HETATM   32  C19 UNL     1      -1.445   5.115  28.426  1.00  0.00     0.055 C
HETATM   33  C20 UNL     1      -1.929   6.449  28.952  1.00  0.00     0.238 C
HETATM   34  N8  UNL     1      -2.939   6.191  29.933  1.00  0.00    -0.073 N
HETATM   35  C21 UNL     1      -4.162   6.887  29.584  1.00  0.00     0.272 C
HETATM   36  C22 UNL     1      -2.505   6.738  31.217  1.00  0.00     0.272 C
HETATM   37  C23 UNL     1      -3.127   4.754  30.009  1.00  0.00     0.262 C
ENDBRANCH  26  31
ENDBRANCH   7  23
TORSDOF 9
ENDMDL