MODEL 3
REMARK VINA RESULT: -5.824764402      2.315      5.562
REMARK  14 active torsions:
REMARK  status: ('A' for Active; 'I' for Inactive)
REMARK    1  A    between atoms: C3_3  and  C4_4
REMARK    2  A    between atoms: C4_4  and  C5_5
REMARK    3  A    between atoms: C6_6  and  C7_7
REMARK    4  A    between atoms: C7_7  and  N1_8
REMARK    5  A    between atoms: N1_8  and  C8_10
REMARK    6  A    between atoms: C8_10  and  O1_11
REMARK    7  A    between atoms: C8_10  and  N2_13
REMARK    8  A    between atoms: N3_16  and  C11_17
REMARK    9  A    between atoms: C15_21  and  O2_22
REMARK   10  A    between atoms: C15_21  and  C16_24
REMARK   11  A    between atoms: C16_24  and  C17_25
REMARK   12  A    between atoms: N4_27  and  N5_29
REMARK   13  A    between atoms: N5_29  and  N6_31
REMARK   14  A    between atoms: C19_34  and  N7_35
ROOT
HETATM    1  C1  UNL     1      -0.685   7.117  29.544  1.00  0.00     0.112 C
HETATM    2  C2  UNL     1      -0.721   5.653  29.553  1.00  0.00    -0.111 C
HETATM    3  C3  UNL     1      -0.765   4.448  29.544  1.00  0.00    -0.103 C
ENDROOT
BRANCH   3   4
HETATM    4  C4  UNL     1      -0.839   2.969  29.518  1.00  0.00     0.120 C
BRANCH   4   5
HETATM    5  C5  UNL     1       0.074   2.412  28.484  1.00  0.00    -0.017 C
HETATM    6  C6  UNL     1      -0.182   2.415  27.184  1.00  0.00    -0.010 C
BRANCH   6   7
HETATM    7  C7  UNL     1       0.780   1.844  26.242  1.00  0.00     0.150 C
BRANCH   7   8
HETATM    8  N1  UNL     1       0.312   1.889  24.848  1.00  0.00    -0.353 N
ATOM      9  H1  UNL     1       0.814   2.483  24.187  1.00  0.00     0.163 HD
BRANCH   8  10
HETATM   10  C8  UNL     1      -0.780   1.162  24.388  1.00  0.00     0.215 C
BRANCH  10  11
HETATM   11  O1  UNL     1      -0.515  -0.104  24.245  1.00  0.00    -0.333 OA
ATOM     12  H1  UNL     1      -1.209  -0.576  23.800  1.00  0.00     0.220 HD
ENDBRANCH  10  11
BRANCH  10  13
HETATM   13  N2  UNL     1      -2.049   1.575  24.073  1.00  0.00    -0.336 N
HETATM   14  C9  UNL     1      -3.076   1.240  25.153  1.00  0.00     0.146 C
HETATM   15  C10 UNL     1      -3.407   2.551  25.800  1.00  0.00     0.137 C
HETATM   16  N3  UNL     1      -3.329   3.606  24.825  1.00  0.00    -0.403 N
HETATM   17  C13 UNL     1      -3.747   3.219  23.551  1.00  0.00     0.140 C
HETATM   18  C14 UNL     1      -2.672   2.232  22.993  1.00  0.00     0.155 C
HETATM   19  C19 UNL     1      -3.397   4.102  22.373  1.00  0.00     0.255 C
HETATM   20  C15 UNL     1      -2.137   3.404  22.269  1.00  0.00     0.150 C
BRANCH  16  21
HETATM   21  C11 UNL     1      -3.749   4.865  25.369  1.00  0.00     0.113 C
HETATM   22  C12 UNL     1      -2.967   5.345  26.553  1.00  0.00     0.026 C
ENDBRANCH  16  21
BRANCH  20  23
HETATM   23  O2  UNL     1      -1.195   4.002  23.206  1.00  0.00    -0.379 OA
ATOM     24  H2  UNL     1      -0.674   3.269  23.512  1.00  0.00     0.211 HD
ENDBRANCH  20  23
BRANCH  20  25
HETATM   25  C16 UNL     1      -1.383   3.172  21.043  1.00  0.00     0.043 C
HETATM   26  N4  UNL     1      -0.701   4.103  20.499  1.00  0.00    -0.292 N
ATOM     27  H4  UNL     1      -0.220   3.816  19.646  1.00  0.00     0.188 HD
BRANCH  25  28
HETATM   28  C17 UNL     1      -1.348   1.883  20.312  1.00  0.00     0.053 C
HETATM   29  C18 UNL     1       0.026   1.239  20.582  1.00  0.00     0.011 C
ENDBRANCH  25  28
BRANCH  26  30
HETATM   30  N5  UNL     1      -0.493   5.398  20.835  1.00  0.00    -0.249 N
ATOM     31  H5  UNL     1      -0.488   5.689  21.814  1.00  0.00     0.207 HD
BRANCH  30  32
HETATM   32  N6  UNL     1      -0.302   6.254  19.897  1.00  0.00    -0.331 N
ATOM     33  H62 UNL     1       0.067   5.945  18.997  1.00  0.00     0.178 HD
ATOM     34  H61 UNL     1      -0.527   7.233  20.075  1.00  0.00     0.178 HD
ENDBRANCH  30  32
ENDBRANCH  26  30
ENDBRANCH  20  25
BRANCH  19  35
HETATM   35  N7  UNL     1      -4.375   4.298  21.381  1.00  0.00    -0.069 N
HETATM   36  C20 UNL     1      -4.104   5.428  20.522  1.00  0.00     0.272 C
HETATM   37  C21 UNL     1      -4.831   3.205  20.603  1.00  0.00     0.272 C
HETATM   38  C22 UNL     1      -5.605   4.740  22.113  1.00  0.00     0.272 C
ENDBRANCH  19  35
ENDBRANCH  10  13
ENDBRANCH   8  10
ENDBRANCH   7   8
ENDBRANCH   6   7
ENDBRANCH   4   5
ENDBRANCH   3   4
TORSDOF 14
ENDMDL