MODEL 5
REMARK VINA RESULT: -5.877461124      3.251      5.587
REMARK  7 active torsions:
REMARK  status: ('A' for Active; 'I' for Inactive)
REMARK    1  A    between atoms: C2_2  and  C3_3
REMARK    2  A    between atoms: C5_5  and  N1_6
REMARK    3  A    between atoms: C11_16  and  C12_17
REMARK       I    between atoms: C12_17  and  N3_19
REMARK    4  A    between atoms: N3_19  and  C13_21
REMARK    5  A    between atoms: C13_21  and  C14_22
REMARK    6  A    between atoms: C14_22  and  N4_23
REMARK    7  A    between atoms: C19_28  and  C20_29
REMARK       I    between atoms: C20_29  and  N5_31
ROOT
HETATM    1  C3  UNL     1      -2.417   4.474  21.753  1.00  0.00     0.000 C
HETATM    2  C4  UNL     1      -2.861   3.050  22.018  1.00  0.00     0.031 C
HETATM    3  C5  UNL     1      -4.412   2.977  22.106  1.00  0.00     0.103 C
HETATM    4  C11 UNL     1      -4.862   3.130  20.701  1.00  0.00     0.101 C
HETATM    5  C18 UNL     1      -4.413   4.497  20.232  1.00  0.00     0.030 C
HETATM    6  C19 UNL     1      -2.989   4.853  20.414  1.00  0.00     0.083 C
ENDROOT
BRANCH   3   7
HETATM    7  N1  UNL     1      -4.754   1.758  22.777  1.00  0.00    -0.314 N
HETATM    8  C6  UNL     1      -4.585   0.398  22.329  1.00  0.00     0.283 C
HETATM    9  O1  UNL     1      -4.597   0.030  21.128  1.00  0.00    -0.265 OA
HETATM   10  C7  UNL     1      -4.400  -0.436  23.540  1.00  0.00     0.167 C
HETATM   11  S1  UNL     1      -4.166  -2.042  23.614  1.00  0.00    -0.055 SA
HETATM   12  N2  UNL     1      -4.470   0.476  24.617  1.00  0.00    -0.350 N
HETATM   13  C8  UNL     1      -5.307   1.581  24.108  1.00  0.00     0.102 C
ATOM     14  H2  UNL     1      -4.040   0.390  25.538  1.00  0.00     0.163 HD
HETATM   15  C9  UNL     1      -5.225   2.799  24.965  1.00  0.00     0.063 C
HETATM   16  C10 UNL     1      -6.705   0.957  24.090  1.00  0.00     0.063 C
ENDBRANCH   3   7
BRANCH   4  17
HETATM   17  C12 UNL     1      -6.328   3.141  20.483  1.00  0.00     0.223 C
HETATM   18  O2  UNL     1      -7.033   4.143  20.663  1.00  0.00    -0.273 OA
HETATM   19  N3  UNL     1      -6.954   1.951  20.048  1.00  0.00    -0.359 N
ATOM     20  H3  UNL     1      -6.361   1.133  19.907  1.00  0.00     0.162 HD
BRANCH  19  21
HETATM   21  C13 UNL     1      -8.351   1.802  19.792  1.00  0.00     0.150 C
BRANCH  21  22
HETATM   22  C14 UNL     1      -8.778   2.085  18.396  1.00  0.00     0.255 C
BRANCH  22  23
HETATM   23  N4  UNL     1      -9.980   2.865  18.260  1.00  0.00    -0.077 N
HETATM   24  C15 UNL     1     -11.088   2.219  18.928  1.00  0.00     0.271 C
HETATM   25  C16 UNL     1     -10.358   2.954  16.837  1.00  0.00     0.271 C
HETATM   26  C17 UNL     1      -9.882   4.214  18.725  1.00  0.00     0.271 C
ENDBRANCH  22  23
ENDBRANCH  21  22
ENDBRANCH  19  21
ENDBRANCH   4  17
BRANCH   1  27
HETATM   27  C2  UNL     1      -0.897   4.409  21.709  1.00  0.00     0.001 C
HETATM   28  C1  UNL     1      -0.253   3.548  22.728  1.00  0.00     0.005 C
ENDBRANCH   1  27
BRANCH   6  29
HETATM   29  C20 UNL     1      -2.957   6.362  20.346  1.00  0.00     0.221 C
HETATM   30  O3  UNL     1      -3.724   6.995  21.088  1.00  0.00    -0.273 OA
HETATM   31  N5  UNL     1      -2.084   7.055  19.472  1.00  0.00    -0.365 N
HETATM   32  C21 UNL     1      -2.082   8.497  19.439  1.00  0.00     0.149 C
ATOM     33  H5  UNL     1      -1.453   6.532  18.864  1.00  0.00     0.161 HD
ENDBRANCH   6  29
TORSDOF 7
ENDMDL