MODEL 5
REMARK VINA RESULT: -5.950027887      2.272      8.561
REMARK  9 active torsions:
REMARK  status: ('A' for Active; 'I' for Inactive)
REMARK    1  A    between atoms: C2_2  and  N1_5
REMARK       I    between atoms: N1_5  and  C5_7
REMARK    2  A    between atoms: C5_7  and  C6_9
REMARK    3  A    between atoms: C8_11  and  C9_12
REMARK    4  A    between atoms: C9_12  and  N2_13
REMARK       I    between atoms: N3_17  and  C13_18
REMARK    5  A    between atoms: C13_18  and  C14_20
REMARK    6  A    between atoms: C14_20  and  N4_21
REMARK       I    between atoms: N4_21  and  C15_23
REMARK    7  A    between atoms: C15_23  and  C16_25
REMARK    8  A    between atoms: C16_25  and  N5_26
REMARK       I    between atoms: N5_26  and  C17_28
REMARK    9  A    between atoms: C17_28  and  C18_30
ROOT
HETATM    1  C6  UNL     1      -1.050   3.934  23.563  1.00  0.00     0.181 C
HETATM    2  C7  UNL     1      -2.437   4.520  23.703  1.00  0.00     0.062 C
HETATM    3  C8  UNL     1      -2.944   3.566  22.680  1.00  0.00     0.116 C
HETATM    4  N3  UNL     1      -1.558   3.266  22.370  1.00  0.00    -0.331 N
HETATM    5  C13 UNL     1      -0.849   2.592  21.342  1.00  0.00     0.238 C
HETATM    6  O2  UNL     1       0.425   2.487  21.365  1.00  0.00    -0.272 OA
ENDROOT
BRANCH   1   7
HETATM    7  C5  UNL     1      -0.638   3.002  24.638  1.00  0.00     0.241 C
HETATM    8  N1  UNL     1       0.236   1.934  24.320  1.00  0.00    -0.351 N
ATOM      9  H1  UNL     1       0.561   1.832  23.358  1.00  0.00     0.163 HD
HETATM   10  O1  UNL     1      -1.076   3.189  25.793  1.00  0.00    -0.271 OA
BRANCH   8  11
HETATM   11  C2  UNL     1       0.686   0.977  25.317  1.00  0.00     0.022 C
HETATM   12  C1  UNL     1       1.550   1.702  26.319  1.00  0.00     0.037 C
HETATM   13  C3  UNL     1      -0.459   0.302  26.027  1.00  0.00     0.037 C
HETATM   14  C4  UNL     1       1.538  -0.056  24.596  1.00  0.00     0.037 C
ENDBRANCH   8  11
ENDBRANCH   1   7
BRANCH   3  15
HETATM   15  C9  UNL     1      -3.691   4.036  21.520  1.00  0.00     0.261 C
BRANCH  15  16
HETATM   16  N2  UNL     1      -5.087   3.718  21.448  1.00  0.00    -0.077 N
HETATM   17  C10 UNL     1      -5.259   2.426  22.105  1.00  0.00     0.271 C
HETATM   18  C11 UNL     1      -5.950   4.639  22.108  1.00  0.00     0.271 C
HETATM   19  C12 UNL     1      -5.469   3.497  20.047  1.00  0.00     0.271 C
ENDBRANCH  15  16
ENDBRANCH   3  15
BRANCH   5  20
HETATM   20  C14 UNL     1      -1.527   1.973  20.191  1.00  0.00     0.225 C
BRANCH  20  21
HETATM   21  N4  UNL     1      -0.933   0.669  19.854  1.00  0.00    -0.351 N
HETATM   22  C15 UNL     1       0.006   0.577  18.836  1.00  0.00     0.235 C
HETATM   23  O3  UNL     1       0.322   1.658  18.219  1.00  0.00    -0.272 OA
ATOM     24  H4  UNL     1      -1.211  -0.167  20.368  1.00  0.00     0.163 HD
BRANCH  22  25
HETATM   25  C16 UNL     1       0.680  -0.630  18.386  1.00  0.00     0.225 C
BRANCH  25  26
HETATM   26  N5  UNL     1       0.411  -0.931  17.011  1.00  0.00    -0.352 N
HETATM   27  C17 UNL     1      -0.052  -2.265  16.687  1.00  0.00     0.225 C
HETATM   28  O4  UNL     1      -0.202  -3.098  17.591  1.00  0.00    -0.273 OA
ATOM     29  H5  UNL     1       0.540  -0.228  16.283  1.00  0.00     0.162 HD
BRANCH  27  30
HETATM   30  C18 UNL     1      -0.332  -2.584  15.273  1.00  0.00     0.030 C
HETATM   31  C19 UNL     1      -0.006  -1.359  14.437  1.00  0.00     0.024 C
HETATM   32  C20 UNL     1      -1.785  -2.956  15.064  1.00  0.00     0.024 C
HETATM   33  C21 UNL     1       0.508  -3.767  14.878  1.00  0.00     0.024 C
ENDBRANCH  27  30
ENDBRANCH  25  26
ENDBRANCH  22  25
ENDBRANCH  20  21
ENDBRANCH   5  20
TORSDOF 9
ENDMDL