MODEL 2
REMARK VINA RESULT: -5.803639575      3.638      7.223
REMARK  7 active torsions:
REMARK  status: ('A' for Active; 'I' for Inactive)
REMARK    1  A    between atoms: C3_3  and  C4_4
REMARK    2  A    between atoms: C5_5  and  N1_6
REMARK    3  A    between atoms: N2_16  and  C13_17
REMARK    4  A    between atoms: N2_16  and  C14_22
REMARK    5  A    between atoms: C13_17  and  N3_18
REMARK    6  A    between atoms: C14_22  and  C15_23
REMARK    7  A    between atoms: C15_23  and  N4_24
ROOT
HETATM    1  C4  UNL     1       0.916   1.981  27.349  1.00  0.00     0.142 C
HETATM    2  C5  UNL     1       1.862   0.870  27.665  1.00  0.00     0.214 C
HETATM    3  C7  UNL     1       1.678  -0.128  26.544  1.00  0.00     0.061 C
HETATM    4  C8  UNL     1       1.115   0.698  25.373  1.00  0.00     0.097 C
HETATM    5  C9  UNL     1       0.197  -0.161  24.585  1.00  0.00     0.036 C
HETATM    6  C10 UNL     1       1.057  -1.037  23.671  1.00  0.00     0.014 C
HETATM    7  C11 UNL     1      -0.887   0.517  23.849  1.00  0.00     0.205 C
HETATM    8  C12 UNL     1      -2.200  -0.191  24.183  1.00  0.00     0.041 C
HETATM    9  N2  UNL     1      -0.984   1.961  23.991  1.00  0.00     0.043 N
HETATM   10  C22 UNL     1      -0.797   2.226  25.400  1.00  0.00     0.420 C
HETATM   11  O2  UNL     1      -1.604   2.902  26.083  1.00  0.00    -0.239 OA
HETATM   12  N5  UNL     1       0.335   1.714  26.062  1.00  0.00    -0.312 N
ENDROOT
BRANCH   9  13
HETATM   13  C13 UNL     1       0.070   2.616  23.301  1.00  0.00     0.478 C
BRANCH  13  14
HETATM   14  N3  UNL     1       0.446   3.914  23.894  1.00  0.00    -0.054 N
ATOM     15  H33 UNL     1      -0.125   4.114  24.715  1.00  0.00     0.276 HD
ATOM     16  H32 UNL     1       1.364   3.858  24.334  1.00  0.00     0.276 HD
ATOM     17  H31 UNL     1       0.410   4.690  23.232  1.00  0.00     0.276 HD
ENDBRANCH  13  14
ENDBRANCH   9  13
BRANCH   9  18
HETATM   18  C14 UNL     1      -2.321   2.314  23.597  1.00  0.00     0.280 C
BRANCH  18  19
HETATM   19  C15 UNL     1      -2.567   2.669  22.191  1.00  0.00     0.265 C
BRANCH  19  20
HETATM   20  N4  UNL     1      -3.260   3.931  21.993  1.00  0.00    -0.068 N
HETATM   21  C16 UNL     1      -4.492   4.063  22.664  1.00  0.00     0.272 C
HETATM   22  C17 UNL     1      -3.527   3.976  20.545  1.00  0.00     0.238 C
HETATM   23  C18 UNL     1      -4.524   5.007  20.167  1.00  0.00     0.040 C
HETATM   24  C19 UNL     1      -3.959   6.415  20.184  1.00  0.00     0.110 C
HETATM   25  S1  UNL     1      -2.200   6.317  19.950  1.00  0.00     0.016 S
HETATM   26  O1  UNL     1      -1.596   7.861  19.792  1.00  0.00    -0.258 OA
HETATM   27  C20 UNL     1      -1.430   5.412  21.268  1.00  0.00     0.136 C
HETATM   28  C21 UNL     1      -2.411   5.052  22.350  1.00  0.00     0.249 C
ENDBRANCH  19  20
ENDBRANCH  18  19
ENDBRANCH   9  18
BRANCH   1  29
HETATM   29  C3  UNL     1      -0.131   1.988  28.436  1.00  0.00    -0.004 C
HETATM   30  C2  UNL     1      -0.305   3.058  29.171  1.00  0.00    -0.033 C
HETATM   31  C1  UNL     1      -1.341   3.053  30.240  1.00  0.00     0.036 C
ENDBRANCH   1  29
BRANCH   2  32
HETATM   32  N1  UNL     1       1.536   0.182  28.905  1.00  0.00    -0.072 N
HETATM   33  C6  UNL     1       2.306  -1.068  28.892  1.00  0.00     0.267 C
ATOM     34  H12 UNL     1       1.695   0.748  29.738  1.00  0.00     0.277 HD
ATOM     35  H11 UNL     1       0.535   0.040  29.040  1.00  0.00     0.277 HD
ENDBRANCH   2  32
TORSDOF 7
ENDMDL