MODEL 1
REMARK VINA RESULT: -5.830715164      0.000      0.000
REMARK  6 active torsions:
REMARK  status: ('A' for Active; 'I' for Inactive)
REMARK    1  A    between atoms: C3_3  and  C5_5
REMARK    2  A    between atoms: C7_8  and  C8_9
REMARK       I    between atoms: C8_9  and  N2_11
REMARK       I    between atoms: N2_11  and  C9_13
REMARK    3  A    between atoms: C16_22  and  C17_23
REMARK    4  A    between atoms: C17_23  and  C18_24
REMARK    5  A    between atoms: C17_23  and  N5_29
REMARK    6  A    between atoms: C18_24  and  N4_25
ROOT
HETATM    1  C5  UNL     1      -4.778   3.560  22.152  1.00  0.00     0.098 C
HETATM    2  N1  UNL     1      -3.539   3.029  22.018  1.00  0.00    -0.351 N
HETATM    3  C6  UNL     1      -2.836   3.487  20.854  1.00  0.00     0.107 C
HETATM    4  C7  UNL     1      -1.898   4.655  21.167  1.00  0.00     0.102 C
HETATM    5  C10 UNL     1      -0.581   4.053  21.592  1.00  0.00     0.022 C
HETATM    6  C11 UNL     1      -0.743   2.622  21.317  1.00  0.00     0.007 C
HETATM    7  C12 UNL     1      -1.874   2.481  20.315  1.00  0.00     0.016 C
HETATM    8  C13 UNL     1      -2.115   1.153  20.933  1.00  0.00     0.023 C
HETATM    9  C14 UNL     1      -1.594   1.765  22.245  1.00  0.00     0.006 C
HETATM   10  C15 UNL     1      -0.687   0.856  22.983  1.00  0.00     0.022 C
HETATM   11  C16 UNL     1      -2.649   2.555  22.979  1.00  0.00     0.057 C
ENDROOT
BRANCH  11  12
HETATM   12  C17 UNL     1      -3.023   2.188  24.350  1.00  0.00     0.182 C
BRANCH  12  13
HETATM   13  C18 UNL     1      -4.161   1.348  24.711  1.00  0.00     0.240 C
BRANCH  13  14
HETATM   14  N4  UNL     1      -4.412   0.008  24.631  1.00  0.00    -0.056 N
HETATM   15  C19 UNL     1      -4.335  -0.700  23.386  1.00  0.00     0.277 C
HETATM   16  C20 UNL     1      -5.444  -0.616  25.409  1.00  0.00     0.277 C
HETATM   17  C21 UNL     1      -3.182  -0.611  25.326  1.00  0.00     0.277 C
ENDBRANCH  13  14
ENDBRANCH  12  13
BRANCH  12  18
HETATM   18  N5  UNL     1      -2.721   3.168  25.408  1.00  0.00    -0.045 N
HETATM   19  C22 UNL     1      -2.492   4.499  25.010  1.00  0.00     0.278 C
HETATM   20  C23 UNL     1      -3.694   3.179  26.481  1.00  0.00     0.278 C
HETATM   21  C24 UNL     1      -1.469   2.810  26.126  1.00  0.00     0.278 C
ENDBRANCH  12  18
ENDBRANCH  11  12
BRANCH   1  22
HETATM   22  C3  UNL     1      -5.868   3.065  21.258  1.00  0.00    -0.051 C
HETATM   23  C2  UNL     1      -6.798   3.959  20.867  1.00  0.00    -0.023 C
HETATM   24  C1  UNL     1      -7.889   3.546  19.975  1.00  0.00     0.036 C
HETATM   25  C4  UNL     1      -6.018   1.693  20.745  1.00  0.00     0.049 C
ENDBRANCH   1  22
BRANCH   4  26
HETATM   26  C8  UNL     1      -1.667   5.405  19.910  1.00  0.00     0.231 C
HETATM   27  O1  UNL     1      -0.740   4.996  19.117  1.00  0.00    -0.273 OA
HETATM   28  N2  UNL     1      -2.374   6.550  19.485  1.00  0.00    -0.281 N
HETATM   29  C9  UNL     1      -3.454   7.183  20.118  1.00  0.00     0.335 C
ATOM     30  H2  UNL     1      -2.061   6.969  18.610  1.00  0.00     0.173 HD
HETATM   31  N3  UNL     1      -4.067   6.806  21.326  1.00  0.00    -0.040 NA
HETATM   32  O2  UNL     1      -3.954   8.221  19.555  1.00  0.00    -0.251 OA
ENDBRANCH   4  26
TORSDOF 6
ENDMDL