MODEL 1
REMARK VINA RESULT: -7.687432112      0.000      0.000
REMARK  14 active torsions:
REMARK  status: ('A' for Active; 'I' for Inactive)
REMARK    1  A    between atoms: C4_10  and  C5_11
REMARK    2  A    between atoms: C5_11  and  C6_12
REMARK    3  A    between atoms: C6_12  and  C7_13
REMARK    4  A    between atoms: C7_13  and  N3_14
REMARK    5  A    between atoms: N3_14  and  C8_15
REMARK       I    between atoms: N3_14  and  C20_35
REMARK    6  A    between atoms: C8_15  and  C9_16
REMARK    7  A    between atoms: C9_16  and  C10_17
REMARK    8  A    between atoms: C10_17  and  C11_18
REMARK    9  A    between atoms: C11_18  and  N4_19
REMARK       I    between atoms: N4_19  and  C12_21
REMARK       I    between atoms: C12_21  and  N7_26
REMARK   10  A    between atoms: N7_26  and  C14_28
REMARK   11  A    between atoms: C14_28  and  C15_29
REMARK   12  A    between atoms: C15_29  and  N8_30
REMARK   13  A    between atoms: C20_35  and  C21_37
REMARK   14  A    between atoms: C21_37  and  C22_38
ROOT
HETATM    1  N4  UNL     1      23.831   8.438  20.820  1.00  0.00    -0.226 N
ATOM      2  H4  UNL     1      24.591   9.089  21.016  1.00  0.00     0.177 HD
HETATM    3  C12 UNL     1      22.486   8.879  20.989  1.00  0.00     0.682 C
HETATM    4  N5  UNL     1      21.631   8.039  21.445  1.00  0.00    -0.126 N
ATOM      5  H5  UNL     1      21.919   7.089  21.676  1.00  0.00     0.197 HD
HETATM    6  C13 UNL     1      20.306   8.432  21.622  1.00  0.00     0.196 C
HETATM    7  N6  UNL     1      19.221   8.750  21.768  1.00  0.00    -0.171 NA
HETATM    8  N7  UNL     1      22.071  10.191  20.673  1.00  0.00    -0.224 N
ATOM      9  H7  UNL     1      21.150  10.306  20.249  1.00  0.00     0.177 HD
ENDROOT
BRANCH   1  10
HETATM   10  C11 UNL     1      24.151   7.098  20.380  1.00  0.00     0.138 C
BRANCH  10  11
HETATM   11  C10 UNL     1      25.005   7.107  19.136  1.00  0.00     0.022 C
BRANCH  11  12
HETATM   12  C9  UNL     1      24.287   6.363  18.029  1.00  0.00     0.021 C
BRANCH  12  13
HETATM   13  C8  UNL     1      23.027   5.760  18.602  1.00  0.00     0.126 C
BRANCH  13  14
HETATM   14  N3  UNL     1      22.433   4.778  17.679  1.00  0.00    -0.352 N
HETATM   15  C20 UNL     1      21.080   4.902  17.342  1.00  0.00     0.225 C
HETATM   16  O1  UNL     1      20.500   4.173  16.506  1.00  0.00    -0.273 OA
BRANCH  14  17
HETATM   17  C7  UNL     1      23.316   3.771  17.194  1.00  0.00     0.126 C
BRANCH  17  18
HETATM   18  C6  UNL     1      23.713   2.700  18.123  1.00  0.00     0.025 C
BRANCH  18  19
HETATM   19  C5  UNL     1      22.776   1.864  18.855  1.00  0.00     0.050 C
BRANCH  19  20
HETATM   20  C4  UNL     1      21.639   1.263  18.068  1.00  0.00     0.008 A
HETATM   21  C2  UNL     1      20.301   1.331  18.417  1.00  0.00     0.020 A
HETATM   22  C1  UNL     1      19.884   2.025  19.707  1.00  0.00     0.069 C
HETATM   23  N1  UNL     1      19.434   0.794  17.604  1.00  0.00    -0.340 N
HETATM   24  C3  UNL     1      19.883   0.211  16.491  1.00  0.00     0.142 A
ATOM     25  H1  UNL     1      18.437   0.817  17.815  1.00  0.00     0.168 HD
HETATM   26  N2  UNL     1      19.153  -0.375  15.564  1.00  0.00    -0.380 N
HETATM   27  S1  UNL     1      21.564   0.428  16.591  1.00  0.00    -0.057 SA
ATOM     28  H22 UNL     1      18.143  -0.505  15.504  1.00  0.00     0.158 HD
ATOM     29  H21 UNL     1      19.496  -0.820  14.713  1.00  0.00     0.158 HD
ENDBRANCH  19  20
ENDBRANCH  18  19
ENDBRANCH  17  18
ENDBRANCH  14  17
BRANCH  15  30
HETATM   30  C21 UNL     1      20.199   5.942  17.974  1.00  0.00     0.161 C
BRANCH  30  31
HETATM   31  C22 UNL     1      18.949   5.376  18.484  1.00  0.00     0.034 A
HETATM   32  C23 UNL     1      18.429   5.531  19.746  1.00  0.00     0.114 A
HETATM   33  N9  UNL     1      17.266   4.862  19.827  1.00  0.00    -0.360 N
HETATM   34  C24 UNL     1      17.042   4.284  18.631  1.00  0.00     0.180 A
ATOM     35  H9  UNL     1      16.662   4.803  20.646  1.00  0.00     0.166 HD
HETATM   36  N10 UNL     1      18.057   4.594  17.822  1.00  0.00    -0.354 N
ATOM     37  H10 UNL     1      18.149   4.290  16.852  1.00  0.00     0.166 HD
ENDBRANCH  30  31
ENDBRANCH  15  30
ENDBRANCH  13  14
ENDBRANCH  12  13
ENDBRANCH  11  12
ENDBRANCH  10  11
ENDBRANCH   1  10
BRANCH   8  38
HETATM   38  C14 UNL     1      22.853  11.384  20.904  1.00  0.00     0.168 C
BRANCH  38  39
HETATM   39  C15 UNL     1      22.744  11.862  22.334  1.00  0.00     0.292 C
BRANCH  39  40
HETATM   40  N8  UNL     1      23.687  12.876  22.667  1.00  0.00     0.090 N
HETATM   41  C16 UNL     1      23.194  13.633  23.788  1.00  0.00     0.272 C
HETATM   42  C17 UNL     1      23.848  13.036  25.011  1.00  0.00     0.032 C
HETATM   43  C18 UNL     1      25.008  12.201  24.532  1.00  0.00     0.032 C
HETATM   44  C19 UNL     1      24.981  12.452  23.060  1.00  0.00     0.272 C
ENDBRANCH  39  40
ENDBRANCH  38  39
ENDBRANCH   8  38
TORSDOF 14
ENDMDL