MODEL 3
REMARK VINA RESULT: -7.514765024      2.165      6.282
REMARK  19 active torsions:
REMARK  status: ('A' for Active; 'I' for Inactive)
REMARK    1  A    between atoms: N1_2  and  C2_3
REMARK    2  A    between atoms: N1_2  and  C9_10
REMARK    3  A    between atoms: C2_3  and  C3_4
REMARK    4  A    between atoms: C12_13  and  C13_14
REMARK       I    between atoms: C13_14  and  N2_16
REMARK    5  A    between atoms: N2_16  and  C14_17
REMARK    6  A    between atoms: C14_17  and  C15_18
REMARK    7  A    between atoms: C15_18  and  C16_19
REMARK    8  A    between atoms: C16_19  and  C17_20
REMARK    9  A    between atoms: C17_20  and  C18_21
REMARK   10  A    between atoms: C18_21  and  C19_22
REMARK   11  A    between atoms: C19_22  and  C20_23
REMARK   12  A    between atoms: C20_23  and  C21_24
REMARK   13  A    between atoms: C21_24  and  O2_25
REMARK   14  A    between atoms: O2_25  and  C22_26
REMARK   15  A    between atoms: C24_28  and  C25_29
REMARK   16  A    between atoms: C25_29  and  N3_30
REMARK   17  A    between atoms: C26_34  and  O3_35
REMARK   18  A    between atoms: C27_37  and  O4_38
REMARK   19  A    between atoms: C28_40  and  N4_41
ROOT
HETATM    1  C18 UNL     1      24.133   6.661  20.107  1.00  0.00     0.000 C
ENDROOT
BRANCH   1   2
HETATM    2  C17 UNL     1      23.290   6.014  19.097  1.00  0.00     0.000 C
BRANCH   2   3
HETATM    3  C16 UNL     1      23.631   4.707  18.526  1.00  0.00     0.002 C
BRANCH   3   4
HETATM    4  C15 UNL     1      23.907   3.565  19.441  1.00  0.00     0.033 C
BRANCH   4   5
HETATM    5  C14 UNL     1      23.983   2.307  18.467  1.00  0.00     0.222 C
BRANCH   5   6
HETATM    6  N2  UNL     1      22.922   2.045  17.883  1.00  0.00    -0.411 NA
HETATM    7  C13 UNL     1      21.666   1.736  17.191  1.00  0.00     0.321 C
HETATM    8  O1  UNL     1      21.442   0.910  16.349  1.00  0.00    -0.251 OA
BRANCH   7   9
HETATM    9  C12 UNL     1      20.593   2.642  17.704  1.00  0.00     0.046 A
HETATM   10  C11 UNL     1      19.859   2.348  18.794  1.00  0.00     0.020 A
HETATM   11  C10 UNL     1      18.829   3.192  19.251  1.00  0.00     0.030 A
HETATM   12  C9  UNL     1      18.588   4.362  18.534  1.00  0.00     0.030 A
HETATM   13  C30 UNL     1      19.331   4.668  17.427  1.00  0.00     0.030 A
HETATM   14  C29 UNL     1      20.344   3.802  17.003  1.00  0.00     0.020 A
BRANCH  12  15
HETATM   15  N1  UNL     1      17.571   5.238  18.999  1.00  0.00    -0.381 N
HETATM   16  C1  UNL     1      16.170   4.868  18.944  1.00  0.00     0.150 C
BRANCH  15  17
HETATM   17  C2  UNL     1      17.873   6.539  19.573  1.00  0.00     0.161 C
BRANCH  17  18
HETATM   18  C3  UNL     1      16.849   6.843  20.580  1.00  0.00    -0.040 A
HETATM   19  C4  UNL     1      16.840   6.222  21.793  1.00  0.00     0.009 A
HETATM   20  C5  UNL     1      15.924   6.433  22.780  1.00  0.00     0.001 A
HETATM   21  C6  UNL     1      14.901   7.357  22.550  1.00  0.00     0.000 A
HETATM   22  C7  UNL     1      14.859   8.010  21.352  1.00  0.00     0.001 A
HETATM   23  C8  UNL     1      15.817   7.767  20.364  1.00  0.00     0.009 A
ENDBRANCH  17  18
ENDBRANCH  15  17
ENDBRANCH  12  15
ENDBRANCH   7   9
ENDBRANCH   5   6
ENDBRANCH   4   5
ENDBRANCH   3   4
ENDBRANCH   2   3
ENDBRANCH   1   2
BRANCH   1  24
HETATM   24  C19 UNL     1      25.263   7.527  19.650  1.00  0.00     0.002 C
BRANCH  24  25
HETATM   25  C20 UNL     1      24.689   8.888  19.318  1.00  0.00     0.026 C
BRANCH  25  26
HETATM   26  C21 UNL     1      23.628   9.368  20.254  1.00  0.00     0.168 C
BRANCH  26  27
HETATM   27  O2  UNL     1      23.490  10.724  20.247  1.00  0.00    -0.384 OA
BRANCH  27  28
HETATM   28  C22 UNL     1      22.949  11.311  21.347  1.00  0.00     0.154 C
HETATM   29  C23 UNL     1      22.979  10.274  22.475  1.00  0.00     0.043 C
HETATM   30  C24 UNL     1      22.168  10.697  23.645  1.00  0.00     0.045 C
HETATM   31  C26 UNL     1      22.011  12.201  23.714  1.00  0.00     0.154 C
HETATM   32  C27 UNL     1      23.240  12.924  23.229  1.00  0.00     0.180 C
HETATM   33  C28 UNL     1      23.678  12.514  21.840  1.00  0.00     0.243 C
BRANCH  30  34
HETATM   34  C25 UNL     1      20.836   9.996  23.741  1.00  0.00     0.236 C
BRANCH  34  35
HETATM   35  N3  UNL     1      20.328   9.543  22.464  1.00  0.00    -0.079 N
ATOM     36  H33 UNL     1      19.478   8.993  22.590  1.00  0.00     0.274 HD
ATOM     37  H32 UNL     1      19.948  10.324  21.929  1.00  0.00     0.274 HD
ATOM     38  H31 UNL     1      21.013   9.028  21.912  1.00  0.00     0.274 HD
ENDBRANCH  34  35
ENDBRANCH  30  34
BRANCH  31  39
HETATM   39  O3  UNL     1      20.841  12.606  23.089  1.00  0.00    -0.393 OA
ATOM     40  H3  UNL     1      20.805  13.552  23.015  1.00  0.00     0.210 HD
ENDBRANCH  31  39
BRANCH  32  41
HETATM   41  O4  UNL     1      22.947  14.284  23.234  1.00  0.00    -0.391 OA
ATOM     42  H4  UNL     1      23.769  14.750  23.124  1.00  0.00     0.210 HD
ENDBRANCH  32  41
BRANCH  33  43
HETATM   43  N4  UNL     1      25.082  12.251  21.827  1.00  0.00    -0.070 N
ATOM     44  H43 UNL     1      25.444  12.037  22.756  1.00  0.00     0.274 HD
ATOM     45  H42 UNL     1      25.306  11.364  21.376  1.00  0.00     0.274 HD
ATOM     46  H41 UNL     1      25.567  13.038  21.395  1.00  0.00     0.274 HD
ENDBRANCH  33  43
ENDBRANCH  27  28
ENDBRANCH  26  27
ENDBRANCH  25  26
ENDBRANCH  24  25
ENDBRANCH   1  24
TORSDOF 19
ENDMDL