MODEL 1
REMARK VINA RESULT: -7.632070331      0.000      0.000
REMARK  16 active torsions:
REMARK  status: ('A' for Active; 'I' for Inactive)
REMARK    1  A    between atoms: N1_1  and  S1_4
REMARK    2  A    between atoms: S1_4  and  C1_7
REMARK    3  A    between atoms: C4_10  and  C5_11
REMARK    4  A    between atoms: C5_11  and  C6_12
REMARK    5  A    between atoms: C6_12  and  N2_13
REMARK    6  A    between atoms: N2_13  and  C7_15
REMARK    7  A    between atoms: C7_15  and  C8_16
REMARK    8  A    between atoms: C8_16  and  C9_17
REMARK    9  A    between atoms: C9_17  and  C10_18
REMARK   10  A    between atoms: C10_18  and  C11_19
REMARK   11  A    between atoms: C11_19  and  C12_20
REMARK   12  A    between atoms: C12_20  and  N3_21
REMARK   13  A    between atoms: N3_21  and  C13_23
REMARK   14  A    between atoms: C13_23  and  C14_24
REMARK       I    between atoms: C14_24  and  N4_26
REMARK   15  A    between atoms: N4_26  and  C15_28
REMARK   16  A    between atoms: C19_32  and  N5_33
ROOT
HETATM    1  C12 UNL     1      18.828   9.042  22.992  1.00  0.00     0.119 C
ENDROOT
BRANCH   1   2
HETATM    2  C11 UNL     1      18.454   7.594  23.367  1.00  0.00     0.020 C
BRANCH   2   3
HETATM    3  C10 UNL     1      17.266   7.683  24.283  1.00  0.00     0.002 C
BRANCH   3   4
HETATM    4  C9  UNL     1      17.013   6.478  25.096  1.00  0.00     0.002 C
BRANCH   4   5
HETATM    5  C8  UNL     1      15.727   6.372  25.815  1.00  0.00     0.019 C
BRANCH   5   6
HETATM    6  C7  UNL     1      15.014   7.715  26.023  1.00  0.00     0.113 C
BRANCH   6   7
HETATM    7  N2  UNL     1      13.669   7.617  25.554  1.00  0.00    -0.421 N
ATOM      8  H2  UNL     1      12.964   8.303  25.824  1.00  0.00     0.153 HD
BRANCH   7   9
HETATM    9  C6  UNL     1      13.351   6.536  24.703  1.00  0.00     0.118 C
BRANCH   9  10
HETATM   10  C5  UNL     1      12.997   6.926  23.278  1.00  0.00     0.057 C
BRANCH  10  11
HETATM   11  C4  UNL     1      14.198   6.734  22.382  1.00  0.00    -0.057 A
HETATM   12  C3  UNL     1      14.827   5.517  22.288  1.00  0.00     0.009 A
HETATM   13  C2  UNL     1      15.910   5.327  21.451  1.00  0.00     0.026 A
HETATM   14  C1  UNL     1      16.389   6.365  20.682  1.00  0.00     0.079 A
HETATM   15  C26 UNL     1      15.740   7.592  20.791  1.00  0.00     0.026 A
HETATM   16  C25 UNL     1      14.663   7.780  21.624  1.00  0.00     0.009 A
BRANCH  14  17
HETATM   17  S1  UNL     1      17.763   6.141  19.610  1.00  0.00     0.256 S
HETATM   18  O1  UNL     1      18.227   7.441  19.028  1.00  0.00    -0.201 OA
HETATM   19  O2  UNL     1      17.295   5.223  18.510  1.00  0.00    -0.201 OA
BRANCH  17  20
HETATM   20  N1  UNL     1      18.996   5.337  20.498  1.00  0.00    -0.324 N
ATOM     21  H12 UNL     1      19.565   5.806  21.204  1.00  0.00     0.169 HD
ATOM     22  H11 UNL     1      19.088   4.355  20.240  1.00  0.00     0.169 HD
ENDBRANCH  17  20
ENDBRANCH  14  17
ENDBRANCH  10  11
ENDBRANCH   9  10
ENDBRANCH   7   9
ENDBRANCH   6   7
ENDBRANCH   5   6
ENDBRANCH   4   5
ENDBRANCH   3   4
ENDBRANCH   2   3
ENDBRANCH   1   2
BRANCH   1  23
HETATM   23  N3  UNL     1      19.899   9.549  23.780  1.00  0.00    -0.394 N
ATOM     24  H3  UNL     1      19.878   9.587  24.799  1.00  0.00     0.159 HD
BRANCH  23  25
HETATM   25  C13 UNL     1      20.989   9.993  23.010  1.00  0.00     0.158 C
BRANCH  25  26
HETATM   26  C14 UNL     1      21.839   9.023  22.313  1.00  0.00     0.260 C
HETATM   27  O3  UNL     1      22.191   8.028  23.057  1.00  0.00    -0.267 OA
HETATM   28  N4  UNL     1      22.244   9.129  20.977  1.00  0.00    -0.322 N
ATOM     29  H4  UNL     1      21.901   9.954  20.484  1.00  0.00     0.169 HD
BRANCH  28  30
HETATM   30  C15 UNL     1      23.052   8.269  20.213  1.00  0.00     0.037 A
HETATM   31  C16 UNL     1      24.428   8.552  20.107  1.00  0.00     0.029 A
HETATM   32  C17 UNL     1      25.244   7.744  19.369  1.00  0.00     0.004 A
HETATM   33  C18 UNL     1      24.724   6.638  18.721  1.00  0.00     0.029 A
HETATM   34  C19 UNL     1      23.390   6.321  18.795  1.00  0.00     0.032 A
HETATM   35  C24 UNL     1      22.578   7.167  19.557  1.00  0.00     0.058 A
BRANCH  34  36
HETATM   36  N5  UNL     1      22.849   5.187  18.139  1.00  0.00    -0.378 N
HETATM   37  C20 UNL     1      21.439   4.856  18.108  1.00  0.00     0.150 C
HETATM   38  C21 UNL     1      21.081   4.091  16.841  1.00  0.00     0.252 C
HETATM   39  N6  UNL     1      21.842   2.882  16.685  1.00  0.00    -0.072 N
HETATM   40  C22 UNL     1      23.092   2.906  17.407  1.00  0.00     0.252 C
ATOM     41  H62 UNL     1      21.286   2.066  16.945  1.00  0.00     0.277 HD
ATOM     42  H61 UNL     1      21.994   2.673  15.699  1.00  0.00     0.277 HD
HETATM   43  C23 UNL     1      23.735   4.273  17.444  1.00  0.00     0.150 C
ENDBRANCH  34  36
ENDBRANCH  28  30
ENDBRANCH  25  26
ENDBRANCH  23  25
ENDBRANCH   1  23
TORSDOF 16
ENDMDL