MODEL 2
REMARK VINA RESULT: -8.023500260      1.357      3.511
REMARK  18 active torsions:
REMARK  status: ('A' for Active; 'I' for Inactive)
REMARK    1  A    between atoms: N1_1  and  C1_5
REMARK    2  A    between atoms: C1_5  and  C2_6
REMARK    3  A    between atoms: C1_5  and  C3_9
REMARK    4  A    between atoms: C1_5  and  C13_31
REMARK    5  A    between atoms: C2_6  and  O1_7
REMARK    6  A    between atoms: C3_9  and  O2_10
REMARK    7  A    between atoms: O2_10  and  C4_11
REMARK    8  A    between atoms: C7_14  and  C8_15
REMARK    9  A    between atoms: C8_15  and  N2_16
REMARK   10  A    between atoms: N2_16  and  C9_19
REMARK   11  A    between atoms: C9_19  and  C10_20
REMARK   12  A    between atoms: C10_20  and  N3_21
REMARK   13  A    between atoms: N3_21  and  S1_23
REMARK   14  A    between atoms: S1_23  and  N4_24
REMARK   15  A    between atoms: C13_31  and  C14_32
REMARK   16  A    between atoms: C14_32  and  C15_33
REMARK   17  A    between atoms: C14_32  and  C22_40
REMARK   18  A    between atoms: C15_33  and  C16_34
ROOT
HETATM    1  C1  UNL     1      22.710  11.547  22.713  1.00  0.00     0.166 C
ENDROOT
BRANCH   1   2
HETATM    2  N1  UNL     1      21.387  12.029  22.799  1.00  0.00    -0.066 N
ATOM      3  H13 UNL     1      20.719  11.462  22.279  1.00  0.00     0.275 HD
ATOM      4  H12 UNL     1      20.973  11.902  23.723  1.00  0.00     0.275 HD
ATOM      5  H11 UNL     1      21.406  13.004  22.498  1.00  0.00     0.275 HD
ENDBRANCH   1   2
BRANCH   1   6
HETATM    6  C2  UNL     1      23.226  11.904  21.312  1.00  0.00     0.205 C
BRANCH   6   7
HETATM    7  O1  UNL     1      22.223  11.956  20.378  1.00  0.00    -0.398 OA
ATOM      8  H1  UNL     1      22.517  11.698  19.513  1.00  0.00     0.209 HD
ENDBRANCH   6   7
ENDBRANCH   1   6
BRANCH   1   9
HETATM    9  C3  UNL     1      22.771  10.006  22.802  1.00  0.00     0.216 C
BRANCH   9  10
HETATM   10  O2  UNL     1      23.191   9.337  21.792  1.00  0.00    -0.349 OA
BRANCH  10  11
HETATM   11  C4  UNL     1      23.616   8.658  20.769  1.00  0.00     0.068 A
HETATM   12  C5  UNL     1      23.748   7.260  20.806  1.00  0.00     0.037 A
HETATM   13  C6  UNL     1      24.194   6.560  19.729  1.00  0.00     0.011 A
HETATM   14  C7  UNL     1      24.546   7.156  18.542  1.00  0.00    -0.033 A
HETATM   15  C11 UNL     1      24.421   8.527  18.494  1.00  0.00     0.011 A
HETATM   16  C12 UNL     1      23.979   9.255  19.547  1.00  0.00     0.037 A
BRANCH  14  17
HETATM   17  C8  UNL     1      25.032   6.381  17.375  1.00  0.00     0.270 C
BRANCH  17  18
HETATM   18  N2  UNL     1      23.926   5.968  16.534  1.00  0.00    -0.070 N
ATOM     19  H22 UNL     1      23.142   6.621  16.538  1.00  0.00     0.277 HD
ATOM     20  H21 UNL     1      24.127   6.027  15.535  1.00  0.00     0.277 HD
BRANCH  18  21
HETATM   21  C9  UNL     1      23.571   4.614  16.986  1.00  0.00     0.253 C
BRANCH  21  22
HETATM   22  C10 UNL     1      22.089   4.617  17.256  1.00  0.00     0.161 C
BRANCH  22  23
HETATM   23  N3  UNL     1      21.476   5.604  16.398  1.00  0.00    -0.301 N
ATOM     24  H3  UNL     1      21.704   5.769  15.418  1.00  0.00     0.173 HD
BRANCH  23  25
HETATM   25  S1  UNL     1      20.289   6.458  17.320  1.00  0.00     0.312 S
HETATM   26  O3  UNL     1      19.088   5.557  17.486  1.00  0.00    -0.183 OA
HETATM   27  O4  UNL     1      20.862   6.770  18.651  1.00  0.00    -0.183 OA
BRANCH  25  28
HETATM   28  N4  UNL     1      19.828   7.859  16.429  1.00  0.00    -0.312 N
ATOM     29  H42 UNL     1      19.967   8.822  16.736  1.00  0.00     0.170 HD
ATOM     30  H41 UNL     1      19.399   7.552  15.556  1.00  0.00     0.170 HD
ENDBRANCH  25  28
ENDBRANCH  23  25
ENDBRANCH  22  23
ENDBRANCH  21  22
ENDBRANCH  18  21
ENDBRANCH  17  18
ENDBRANCH  14  17
ENDBRANCH  10  11
ENDBRANCH   9  10
ENDBRANCH   1   9
BRANCH   1  31
HETATM   31  C13 UNL     1      23.661  12.171  23.673  1.00  0.00     0.053 C
BRANCH  31  32
HETATM   32  C14 UNL     1      23.485  11.917  25.110  1.00  0.00     0.032 C
BRANCH  32  33
HETATM   33  C15 UNL     1      24.807  11.591  25.756  1.00  0.00     0.048 C
BRANCH  33  34
HETATM   34  C16 UNL     1      25.918  12.506  25.554  1.00  0.00    -0.058 A
HETATM   35  C17 UNL     1      25.959  13.803  26.020  1.00  0.00     0.007 A
HETATM   36  C18 UNL     1      27.037  14.629  25.813  1.00  0.00     0.001 A
HETATM   37  C19 UNL     1      28.116  14.124  25.107  1.00  0.00     0.000 A
HETATM   38  C20 UNL     1      28.112  12.833  24.624  1.00  0.00     0.001 A
HETATM   39  C21 UNL     1      27.018  12.047  24.854  1.00  0.00     0.007 A
ENDBRANCH  33  34
ENDBRANCH  32  33
BRANCH  32  40
HETATM   40  C22 UNL     1      22.829  13.001  25.899  1.00  0.00    -0.013 A
HETATM   41  C23 UNL     1      22.283  14.200  25.521  1.00  0.00     0.015 A
HETATM   42  C24 UNL     1      21.778  14.984  26.471  1.00  0.00     0.008 A
HETATM   43  C25 UNL     1      21.832  14.550  27.764  1.00  0.00     0.050 A
HETATM   44  S2  UNL     1      22.600  13.036  27.613  1.00  0.00    -0.106 SA
ENDBRANCH  32  40
ENDBRANCH  31  32
ENDBRANCH   1  31
TORSDOF 18
ENDMDL