MODEL 5
REMARK VINA RESULT: -7.904092421      1.509      2.003
REMARK  19 active torsions:
REMARK  status: ('A' for Active; 'I' for Inactive)
REMARK    1  A    between atoms: C3_4  and  C4_5
REMARK    2  A    between atoms: C4_5  and  N2_6
REMARK    3  A    between atoms: C5_8  and  N3_9
REMARK    4  A    between atoms: C5_8  and  C20_26
REMARK    5  A    between atoms: N3_9  and  C6_11
REMARK    6  A    between atoms: C6_11  and  C7_12
REMARK    7  A    between atoms: C7_12  and  O1_13
REMARK    8  A    between atoms: O1_13  and  C8_14
REMARK    9  A    between atoms: C12_18  and  C13_19
REMARK   10  A    between atoms: C20_26  and  C21_27
REMARK   11  A    between atoms: C20_26  and  C28_34
REMARK   12  A    between atoms: C21_27  and  C22_28
REMARK   13  A    between atoms: C28_34  and  O2_35
REMARK   14  A    between atoms: C28_34  and  N4_37
REMARK   15  A    between atoms: N4_37  and  C29_39
REMARK   16  A    between atoms: C29_39  and  C30_40
REMARK   17  A    between atoms: C30_40  and  O3_41
REMARK   18  A    between atoms: C30_40  and  C31_43
REMARK   19  A    between atoms: C31_43  and  O4_44
ROOT
HETATM    1  N1  UNL     1      16.867   7.398  27.617  1.00  0.00    -0.192 NA
HETATM    2  C1  UNL     1      17.083   8.043  26.657  1.00  0.00     0.087 C
HETATM    3  C2  UNL     1      17.366   8.823  25.490  1.00  0.00     0.095 C
HETATM    4  C3  UNL     1      17.877   8.290  24.398  1.00  0.00     0.028 C
ENDROOT
BRANCH   4   5
HETATM    5  C4  UNL     1      18.196   9.033  23.158  1.00  0.00     0.090 C
BRANCH   5   6
HETATM    6  N2  UNL     1      19.541   9.217  22.848  1.00  0.00    -0.355 N
HETATM    7  C5  UNL     1      20.394   8.690  22.109  1.00  0.00     0.085 C
ATOM      8  H2  UNL     1      19.938   9.999  23.370  1.00  0.00     0.166 HD
BRANCH   7   9
HETATM    9  N3  UNL     1      20.180   7.580  21.249  1.00  0.00    -0.377 N
ATOM     10  H3  UNL     1      20.162   6.642  21.648  1.00  0.00     0.160 HD
BRANCH   9  11
HETATM   11  C6  UNL     1      19.986   7.738  19.841  1.00  0.00     0.147 C
BRANCH  11  12
HETATM   12  C7  UNL     1      18.874   6.827  19.326  1.00  0.00     0.195 C
BRANCH  12  13
HETATM   13  O1  UNL     1      17.616   7.506  19.438  1.00  0.00    -0.350 OA
BRANCH  13  14
HETATM   14  C8  UNL     1      16.703   7.246  20.446  1.00  0.00     0.069 A
HETATM   15  C9  UNL     1      15.607   8.094  20.522  1.00  0.00     0.037 A
HETATM   16  C10 UNL     1      14.672   7.874  21.508  1.00  0.00     0.004 A
HETATM   17  C11 UNL     1      14.818   6.823  22.416  1.00  0.00     0.012 A
HETATM   18  C12 UNL     1      15.904   5.976  22.346  1.00  0.00    -0.023 A
HETATM   19  C19 UNL     1      16.831   6.210  21.352  1.00  0.00     0.049 A
BRANCH  18  20
HETATM   20  C13 UNL     1      16.048   4.873  23.307  1.00  0.00    -0.026 A
HETATM   21  C14 UNL     1      16.287   3.610  22.842  1.00  0.00     0.012 A
HETATM   22  C15 UNL     1      16.426   2.569  23.709  1.00  0.00     0.001 A
HETATM   23  C16 UNL     1      16.328   2.773  25.055  1.00  0.00     0.000 A
HETATM   24  C17 UNL     1      16.088   4.032  25.566  1.00  0.00     0.001 A
HETATM   25  C18 UNL     1      15.951   5.075  24.664  1.00  0.00     0.012 A
ENDBRANCH  18  20
ENDBRANCH  13  14
ENDBRANCH  12  13
ENDBRANCH  11  12
ENDBRANCH   9  11
ENDBRANCH   7   9
BRANCH   7  26
HETATM   26  C20 UNL     1      21.757   9.261  22.084  1.00  0.00     0.105 C
BRANCH  26  27
HETATM   27  C21 UNL     1      22.902   8.336  22.163  1.00  0.00     0.055 C
BRANCH  27  28
HETATM   28  C22 UNL     1      23.602   8.026  20.894  1.00  0.00    -0.057 A
HETATM   29  C23 UNL     1      23.946   6.777  20.451  1.00  0.00     0.007 A
HETATM   30  C24 UNL     1      24.569   6.589  19.236  1.00  0.00     0.001 A
HETATM   31  C25 UNL     1      24.886   7.623  18.398  1.00  0.00     0.000 A
HETATM   32  C26 UNL     1      24.543   8.888  18.840  1.00  0.00     0.001 A
HETATM   33  C27 UNL     1      23.925   9.099  20.039  1.00  0.00     0.007 A
ENDBRANCH  27  28
ENDBRANCH  26  27
BRANCH  26  34
HETATM   34  C28 UNL     1      21.887  10.421  23.075  1.00  0.00     0.225 C
BRANCH  34  35
HETATM   35  O2  UNL     1      21.274  11.575  22.593  1.00  0.00    -0.376 OA
ATOM     36  H2  UNL     1      21.473  11.718  21.675  1.00  0.00     0.212 HD
ENDBRANCH  34  35
BRANCH  34  37
HETATM   37  N4  UNL     1      23.250  10.713  23.367  1.00  0.00    -0.394 N
ATOM     38  H4  UNL     1      24.013  10.127  23.029  1.00  0.00     0.155 HD
BRANCH  37  39
HETATM   39  C29 UNL     1      23.481  11.869  24.160  1.00  0.00     0.150 C
BRANCH  39  40
HETATM   40  C30 UNL     1      24.042  12.996  23.319  1.00  0.00     0.159 C
BRANCH  40  41
HETATM   41  O3  UNL     1      23.104  14.012  23.149  1.00  0.00    -0.392 OA
ATOM     42  H3  UNL     1      22.349  13.704  22.662  1.00  0.00     0.210 HD
ENDBRANCH  40  41
BRANCH  40  43
HETATM   43  C31 UNL     1      24.468  12.521  21.935  1.00  0.00     0.197 C
BRANCH  43  44
HETATM   44  O4  UNL     1      23.505  12.809  20.978  1.00  0.00    -0.398 OA
ATOM     45  H4  UNL     1      23.238  12.030  20.505  1.00  0.00     0.209 HD
ENDBRANCH  43  44
ENDBRANCH  40  43
ENDBRANCH  39  40
ENDBRANCH  37  39
ENDBRANCH  34  37
ENDBRANCH  26  34
ENDBRANCH   7  26
ENDBRANCH   5   6
ENDBRANCH   4   5
TORSDOF 19
ENDMDL