MODEL 5
REMARK VINA RESULT: -7.831862984      4.140      8.075
REMARK  19 active torsions:
REMARK  status: ('A' for Active; 'I' for Inactive)
REMARK    1  A    between atoms: C2_2  and  C3_3
REMARK    2  A    between atoms: C3_3  and  C4_4
REMARK    3  A    between atoms: C4_4  and  C5_5
REMARK    4  A    between atoms: C5_5  and  C6_6
REMARK    5  A    between atoms: C6_6  and  C7_7
REMARK    6  A    between atoms: C7_7  and  N1_8
REMARK    7  A    between atoms: N1_8  and  C8_10
REMARK    8  A    between atoms: C9_13  and  N3_14
REMARK    9  A    between atoms: N3_14  and  C10_16
REMARK   10  A    between atoms: C10_16  and  C11_17
REMARK   11  A    between atoms: C14_20  and  C15_21
REMARK   12  A    between atoms: C15_21  and  C17_24
REMARK   13  A    between atoms: C17_24  and  O1_25
REMARK   14  A    between atoms: O1_25  and  C18_26
REMARK   15  A    between atoms: C18_26  and  C19_27
REMARK   16  A    between atoms: C19_27  and  O2_28
REMARK   17  A    between atoms: C22_32  and  C23_33
REMARK   18  A    between atoms: C23_33  and  C24_34
REMARK   19  A    between atoms: C24_34  and  C25_35
ROOT
HETATM    1  C15 UNL     1      22.898   3.707  17.914  1.00  0.00     0.056 C
HETATM    2  C16 UNL     1      21.567   3.675  17.296  1.00  0.00     0.098 C
HETATM    3  N4  UNL     1      20.523   3.665  16.801  1.00  0.00    -0.192 NA
ENDROOT
BRANCH   1   4
HETATM    4  C14 UNL     1      23.354   4.886  18.295  1.00  0.00    -0.017 A
HETATM    5  C13 UNL     1      23.247   5.986  17.442  1.00  0.00     0.013 A
HETATM    6  C12 UNL     1      23.699   7.239  17.776  1.00  0.00     0.013 A
HETATM    7  C11 UNL     1      24.291   7.465  18.992  1.00  0.00    -0.021 A
HETATM    8  C21 UNL     1      24.419   6.412  19.866  1.00  0.00     0.013 A
HETATM    9  C20 UNL     1      23.949   5.141  19.504  1.00  0.00     0.013 A
BRANCH   7  10
HETATM   10  C10 UNL     1      24.716   8.666  19.296  1.00  0.00     0.101 C
BRANCH  10  11
HETATM   11  N3  UNL     1      23.872   9.785  19.526  1.00  0.00    -0.350 N
ATOM     12  H3  UNL     1      23.506  10.305  18.729  1.00  0.00     0.166 HD
BRANCH  11  13
HETATM   13  C9  UNL     1      23.528  10.196  20.839  1.00  0.00     0.132 A
HETATM   14  N2  UNL     1      24.200  11.292  21.324  1.00  0.00    -0.176 N
HETATM   15  C8  UNL     1      23.979  11.685  22.572  1.00  0.00     0.686 A
ATOM     16  H2  UNL     1      24.861  11.796  20.733  1.00  0.00     0.186 HD
HETATM   17  N7  UNL     1      23.093  10.988  23.328  1.00  0.00    -0.155 N
HETATM   18  C28 UNL     1      22.427   9.927  22.889  1.00  0.00     0.269 A
ATOM     19  H7  UNL     1      22.931  11.297  24.286  1.00  0.00     0.187 HD
HETATM   20  C22 UNL     1      22.629   9.477  21.577  1.00  0.00     0.055 A
HETATM   21  O3  UNL     1      21.605   9.278  23.587  1.00  0.00    -0.267 OA
BRANCH  15  22
HETATM   22  N1  UNL     1      24.549  12.677  23.091  1.00  0.00    -0.205 N
ATOM     23  H1  UNL     1      24.293  13.597  22.731  1.00  0.00     0.183 HD
BRANCH  22  24
HETATM   24  C7  UNL     1      25.509  12.642  24.122  1.00  0.00     0.079 C
BRANCH  24  25
HETATM   25  C6  UNL     1      25.150  13.526  25.302  1.00  0.00     0.045 C
BRANCH  25  26
HETATM   26  C5  UNL     1      26.423  13.964  25.971  1.00  0.00     0.005 C
BRANCH  26  27
HETATM   27  C4  UNL     1      27.618  13.234  25.429  1.00  0.00     0.000 C
BRANCH  27  28
HETATM   28  C3  UNL     1      28.696  14.226  25.045  1.00  0.00    -0.000 C
BRANCH  28  29
HETATM   29  C2  UNL     1      30.029  13.827  25.666  1.00  0.00    -0.005 C
HETATM   30  C1  UNL     1      29.783  12.741  26.663  1.00  0.00     0.005 C
ENDBRANCH  28  29
ENDBRANCH  27  28
ENDBRANCH  26  27
ENDBRANCH  25  26
ENDBRANCH  24  25
ENDBRANCH  22  24
ENDBRANCH  15  22
BRANCH  20  31
HETATM   31  C23 UNL     1      21.824   8.345  21.069  1.00  0.00     0.053 C
BRANCH  31  32
HETATM   32  C24 UNL     1      20.383   8.590  20.854  1.00  0.00     0.046 C
BRANCH  32  33
HETATM   33  C25 UNL     1      19.647   7.659  19.996  1.00  0.00    -0.024 A
HETATM   34  C26 UNL     1      20.179   6.806  19.024  1.00  0.00     0.115 A
HETATM   35  N5  UNL     1      19.156   6.165  18.480  1.00  0.00    -0.312 N
HETATM   36  N6  UNL     1      18.015   6.523  19.010  1.00  0.00    -0.312 N
ATOM     37  H5  UNL     1      19.247   5.473  17.736  1.00  0.00     0.186 HD
HETATM   38  C27 UNL     1      18.265   7.440  19.946  1.00  0.00     0.115 A
ATOM     39  H6  UNL     1      17.096   6.163  18.753  1.00  0.00     0.186 HD
ENDBRANCH  32  33
ENDBRANCH  31  32
ENDBRANCH  20  31
ENDBRANCH  11  13
ENDBRANCH  10  11
ENDBRANCH   7  10
ENDBRANCH   1   4
BRANCH   1  40
HETATM   40  C17 UNL     1      23.539   2.407  18.061  1.00  0.00     0.218 C
BRANCH  40  41
HETATM   41  O1  UNL     1      23.007   1.318  17.518  1.00  0.00    -0.384 OA
BRANCH  41  42
HETATM   42  C18 UNL     1      22.190   0.445  18.088  1.00  0.00     0.194 C
BRANCH  42  43
HETATM   43  C19 UNL     1      21.555  -0.613  17.237  1.00  0.00     0.190 C
BRANCH  43  44
HETATM   44  O2  UNL     1      22.591  -1.489  16.802  1.00  0.00    -0.399 OA
ATOM     45  H2  UNL     1      22.201  -2.345  16.670  1.00  0.00     0.209 HD
ENDBRANCH  43  44
ENDBRANCH  42  43
ENDBRANCH  41  42
ENDBRANCH  40  41
ENDBRANCH   1  40
TORSDOF 19
ENDMDL