MODEL 2
REMARK VINA RESULT: -7.817984561      4.755      9.115
REMARK  16 active torsions:
REMARK  status: ('A' for Active; 'I' for Inactive)
REMARK       I    between atoms: C1_2  and  N1_3
REMARK       I    between atoms: C1_2  and  N6_34
REMARK    1  A    between atoms: N1_3  and  C2_5
REMARK    2  A    between atoms: C2_5  and  C3_6
REMARK    3  A    between atoms: C3_6  and  C4_7
REMARK    4  A    between atoms: C4_7  and  C5_8
REMARK    5  A    between atoms: C5_8  and  N2_9
REMARK    6  A    between atoms: N2_9  and  C6_10
REMARK    7  A    between atoms: C11_17  and  C12_18
REMARK    8  A    between atoms: C12_18  and  N4_19
REMARK    9  A    between atoms: N4_19  and  C13_22
REMARK   10  A    between atoms: C13_22  and  C14_23
REMARK   11  A    between atoms: C14_23  and  C15_24
REMARK   12  A    between atoms: C15_24  and  N5_25
REMARK   13  A    between atoms: N6_34  and  C22_36
REMARK   14  A    between atoms: C22_36  and  C23_37
REMARK   15  A    between atoms: C23_37  and  C24_38
REMARK   16  A    between atoms: C24_38  and  C25_39
ROOT
HETATM    1  C6  UNL     1      20.783   8.363  21.317  1.00  0.00     0.308 A
HETATM    2  N3  UNL     1      20.118   8.248  22.506  1.00  0.00    -0.309 N
ATOM      3  H3  UNL     1      20.613   8.416  23.381  1.00  0.00     0.170 HD
HETATM    4  C7  UNL     1      18.830   7.918  22.528  1.00  0.00     0.053 A
HETATM    5  C8  UNL     1      18.203   7.807  23.742  1.00  0.00     0.030 A
HETATM    6  C9  UNL     1      16.877   7.462  23.780  1.00  0.00     0.003 A
HETATM    7  C10 UNL     1      16.194   7.232  22.614  1.00  0.00     0.010 A
HETATM    8  C11 UNL     1      16.803   7.337  21.347  1.00  0.00    -0.014 A
HETATM    9  C20 UNL     1      18.129   7.684  21.355  1.00  0.00     0.074 A
HETATM   10  C21 UNL     1      18.852   7.813  20.203  1.00  0.00     0.304 A
HETATM   11  O2  UNL     1      18.272   7.610  19.105  1.00  0.00    -0.259 OA
HETATM   12  O3  UNL     1      20.106   8.134  20.179  1.00  0.00    -0.230 OA
ENDROOT
BRANCH   1  13
HETATM   13  N2  UNL     1      21.959   8.664  21.293  1.00  0.00    -0.382 NA
BRANCH  13  14
HETATM   14  C5  UNL     1      23.190   9.153  21.405  1.00  0.00     0.159 C
BRANCH  14  15
HETATM   15  C4  UNL     1      23.945   9.212  20.078  1.00  0.00     0.061 C
BRANCH  15  16
HETATM   16  C3  UNL     1      23.915   7.926  19.319  1.00  0.00     0.026 C
BRANCH  16  17
HETATM   17  C2  UNL     1      24.828   6.887  19.902  1.00  0.00     0.125 C
BRANCH  17  18
HETATM   18  N1  UNL     1      24.130   5.694  20.261  1.00  0.00    -0.343 N
HETATM   19  C1  UNL     1      23.758   4.693  19.347  1.00  0.00     0.316 C
HETATM   20  O1  UNL     1      23.995   4.765  18.112  1.00  0.00    -0.247 OA
HETATM   21  N6  UNL     1      23.084   3.534  19.812  1.00  0.00    -0.343 N
ATOM     22  H6  UNL     1      22.897   3.461  20.812  1.00  0.00     0.164 HD
ATOM     23  H1  UNL     1      23.886   5.560  21.242  1.00  0.00     0.164 HD
BRANCH  21  24
HETATM   24  C22 UNL     1      22.650   2.462  18.966  1.00  0.00     0.125 C
BRANCH  24  25
HETATM   25  C23 UNL     1      21.201   2.556  18.597  1.00  0.00     0.026 C
BRANCH  25  26
HETATM   26  C24 UNL     1      21.059   2.905  17.136  1.00  0.00     0.060 C
BRANCH  26  27
HETATM   27  C25 UNL     1      20.665   4.299  16.940  1.00  0.00     0.025 A
HETATM   28  C26 UNL     1      19.446   4.920  17.031  1.00  0.00     0.113 A
HETATM   29  N7  UNL     1      19.586   6.235  16.761  1.00  0.00    -0.360 N
HETATM   30  C27 UNL     1      20.890   6.461  16.496  1.00  0.00     0.180 A
ATOM     31  H7  UNL     1      18.842   6.931  16.759  1.00  0.00     0.166 HD
HETATM   32  N8  UNL     1      21.529   5.297  16.605  1.00  0.00    -0.355 N
ATOM     33  H8  UNL     1      22.531   5.170  16.459  1.00  0.00     0.166 HD
ENDBRANCH  26  27
ENDBRANCH  25  26
ENDBRANCH  24  25
ENDBRANCH  21  24
ENDBRANCH  17  18
ENDBRANCH  16  17
ENDBRANCH  15  16
ENDBRANCH  14  15
ENDBRANCH  13  14
ENDBRANCH   1  13
BRANCH   8  34
HETATM   34  C12 UNL     1      16.030   7.112  20.130  1.00  0.00     0.271 C
BRANCH  34  35
HETATM   35  N4  UNL     1      15.088   5.996  20.278  1.00  0.00    -0.071 N
ATOM     36  H42 UNL     1      15.411   5.325  20.974  1.00  0.00     0.277 HD
ATOM     37  H41 UNL     1      14.226   6.294  20.733  1.00  0.00     0.277 HD
BRANCH  35  38
HETATM   38  C13 UNL     1      14.824   5.358  19.014  1.00  0.00     0.234 C
BRANCH  38  39
HETATM   39  C14 UNL     1      16.088   4.638  18.603  1.00  0.00     0.057 C
BRANCH  39  40
HETATM   40  C15 UNL     1      16.226   3.280  19.200  1.00  0.00     0.274 C
BRANCH  40  41
HETATM   41  N5  UNL     1      17.574   2.982  19.568  1.00  0.00     0.088 N
HETATM   42  C16 UNL     1      18.166   4.059  20.349  1.00  0.00     0.272 C
HETATM   43  C17 UNL     1      17.755   3.730  21.775  1.00  0.00     0.032 C
HETATM   44  C18 UNL     1      17.382   2.261  21.778  1.00  0.00     0.032 C
HETATM   45  C19 UNL     1      17.720   1.792  20.376  1.00  0.00     0.272 C
ENDBRANCH  40  41
ENDBRANCH  39  40
ENDBRANCH  38  39
ENDBRANCH  35  38
ENDBRANCH  34  35
ENDBRANCH   8  34
TORSDOF 16
ENDMDL