MODEL 4
REMARK VINA RESULT: -7.918709380      2.833      4.716
REMARK  16 active torsions:
REMARK  status: ('A' for Active; 'I' for Inactive)
REMARK    1  A    between atoms: N1_2  and  C3_4
REMARK    2  A    between atoms: N1_2  and  C13_28
REMARK    3  A    between atoms: C3_4  and  C4_5
REMARK    4  A    between atoms: C4_5  and  C5_6
REMARK    5  A    between atoms: C5_6  and  N2_7
REMARK    6  A    between atoms: N2_7  and  C6_10
REMARK    7  A    between atoms: C6_10  and  C7_11
REMARK    8  A    between atoms: C7_11  and  N3_12
REMARK    9  A    between atoms: N3_12  and  C8_13
REMARK   10  A    between atoms: N3_12  and  C9_15
REMARK   11  A    between atoms: C11_20  and  N6_21
REMARK   12  A    between atoms: C13_28  and  C14_29
REMARK   13  A    between atoms: C17_32  and  O3_33
REMARK   14  A    between atoms: O3_33  and  C18_34
REMARK   15  A    between atoms: C18_34  and  C19_35
REMARK   16  A    between atoms: C22_38  and  C23_39
ROOT
HETATM    1  C3  UNL     1      22.328   6.399  18.529  1.00  0.00     0.238 C
ENDROOT
BRANCH   1   2
HETATM    2  N1  UNL     1      23.596   5.808  18.751  1.00  0.00    -0.071 N
HETATM    3  C1  UNL     1      24.528   6.084  17.634  1.00  0.00     0.272 C
HETATM    4  C2  UNL     1      23.611   4.386  18.923  1.00  0.00     0.272 C
BRANCH   2   5
HETATM    5  C13 UNL     1      24.261   6.428  19.892  1.00  0.00     0.275 C
BRANCH   5   6
HETATM    6  C14 UNL     1      23.841   7.768  20.255  1.00  0.00    -0.032 A
HETATM    7  C15 UNL     1      24.461   8.874  19.682  1.00  0.00     0.011 A
HETATM    8  C16 UNL     1      24.083  10.160  20.034  1.00  0.00     0.037 A
HETATM    9  C17 UNL     1      23.089  10.403  20.954  1.00  0.00     0.069 A
HETATM   10  C26 UNL     1      22.469   9.316  21.528  1.00  0.00     0.037 A
HETATM   11  C27 UNL     1      22.849   8.018  21.174  1.00  0.00     0.011 A
BRANCH   9  12
HETATM   12  O3  UNL     1      22.685  11.675  21.335  1.00  0.00    -0.347 OA
BRANCH  12  13
HETATM   13  C18 UNL     1      23.677  12.615  21.698  1.00  0.00     0.214 C
BRANCH  13  14
HETATM   14  C19 UNL     1      23.998  12.371  23.145  1.00  0.00    -0.034 A
HETATM   15  C20 UNL     1      23.015  12.272  24.099  1.00  0.00     0.010 A
HETATM   16  C21 UNL     1      23.324  12.036  25.444  1.00  0.00     0.013 A
HETATM   17  C22 UNL     1      24.644  11.897  25.846  1.00  0.00    -0.021 A
HETATM   18  C24 UNL     1      25.612  12.001  24.872  1.00  0.00     0.013 A
HETATM   19  C25 UNL     1      25.309  12.236  23.534  1.00  0.00     0.010 A
BRANCH  17  20
HETATM   20  C23 UNL     1      24.949  11.654  27.248  1.00  0.00     0.091 C
HETATM   21  N8  UNL     1      26.151  11.571  27.687  1.00  0.00    -0.407 N
ATOM     22  H82 UNL     1      26.911  11.680  27.015  1.00  0.00     0.155 HD
ATOM     23  H81 UNL     1      26.365  11.401  28.670  1.00  0.00     0.155 HD
ENDBRANCH  17  20
ENDBRANCH  13  14
ENDBRANCH  12  13
ENDBRANCH   9  12
ENDBRANCH   5   6
ENDBRANCH   2   5
ENDBRANCH   1   2
BRANCH   1  24
HETATM   24  C4  UNL     1      21.132   5.542  18.437  1.00  0.00     0.055 C
BRANCH  24  25
HETATM   25  C5  UNL     1      19.913   6.081  17.789  1.00  0.00     0.234 C
BRANCH  25  26
HETATM   26  N2  UNL     1      18.930   6.586  18.691  1.00  0.00    -0.074 N
ATOM     27  H22 UNL     1      19.373   7.099  19.454  1.00  0.00     0.277 HD
ATOM     28  H21 UNL     1      18.401   7.343  18.258  1.00  0.00     0.277 HD
BRANCH  26  29
HETATM   29  C6  UNL     1      18.055   5.597  19.201  1.00  0.00     0.252 C
BRANCH  29  30
HETATM   30  C7  UNL     1      17.984   5.600  20.698  1.00  0.00     0.159 C
BRANCH  30  31
HETATM   31  N3  UNL     1      17.236   6.780  21.158  1.00  0.00    -0.316 N
BRANCH  31  32
HETATM   32  C8  UNL     1      16.044   7.097  20.461  1.00  0.00     0.356 C
HETATM   33  O1  UNL     1      15.854   8.239  19.969  1.00  0.00    -0.283 OA
ENDBRANCH  31  32
BRANCH  31  34
HETATM   34  C9  UNL     1      17.673   7.579  22.227  1.00  0.00     0.148 A
HETATM   35  C10 UNL     1      17.157   7.425  23.491  1.00  0.00     0.164 A
HETATM   36  N4  UNL     1      16.172   6.447  23.722  1.00  0.00    -0.080 NA
HETATM   37  N5  UNL     1      17.644   8.243  24.453  1.00  0.00    -0.177 N
HETATM   38  C11 UNL     1      18.586   9.164  24.200  1.00  0.00     0.680 A
ATOM     39  H5  UNL     1      17.283   8.156  25.403  1.00  0.00     0.185 HD
HETATM   40  N7  UNL     1      19.094   9.314  22.943  1.00  0.00    -0.154 N
HETATM   41  C12 UNL     1      18.655   8.534  21.942  1.00  0.00     0.290 A
ATOM     42  H7  UNL     1      19.809  10.019  22.763  1.00  0.00     0.187 HD
HETATM   43  O2  UNL     1      19.094   8.631  20.755  1.00  0.00    -0.265 OA
BRANCH  38  44
HETATM   44  N6  UNL     1      19.056   9.951  25.110  1.00  0.00    -0.234 N
ATOM     45  H62 UNL     1      20.067  10.090  25.115  1.00  0.00     0.174 HD
ATOM     46  H61 UNL     1      18.463  10.416  25.797  1.00  0.00     0.174 HD
ENDBRANCH  38  44
ENDBRANCH  31  34
ENDBRANCH  30  31
ENDBRANCH  29  30
ENDBRANCH  26  29
ENDBRANCH  25  26
ENDBRANCH  24  25
ENDBRANCH   1  24
TORSDOF 16
ENDMDL