MODEL 2
REMARK VINA RESULT: -7.116188792      1.928      2.905
REMARK  17 active torsions:
REMARK  status: ('A' for Active; 'I' for Inactive)
REMARK    1  A    between atoms: N1_1  and  C1_5
REMARK    2  A    between atoms: C1_5  and  C2_6
REMARK    3  A    between atoms: C2_6  and  C3_7
REMARK    4  A    between atoms: C3_7  and  N2_8
REMARK    5  A    between atoms: N2_8  and  C4_11
REMARK    6  A    between atoms: C4_11  and  C5_12
REMARK    7  A    between atoms: C5_12  and  C6_13
REMARK    8  A    between atoms: C6_13  and  C7_14
REMARK    9  A    between atoms: C7_14  and  C8_15
REMARK   10  A    between atoms: C8_15  and  C9_16
REMARK   11  A    between atoms: C9_16  and  N3_17
REMARK   12  A    between atoms: N4_24  and  C15_25
REMARK   13  A    between atoms: C15_25  and  C16_26
REMARK   14  A    between atoms: C16_26  and  O2_27
REMARK   15  A    between atoms: C16_26  and  C17_29
REMARK   16  A    between atoms: C17_29  and  O3_30
REMARK   17  A    between atoms: O3_30  and  C18_31
ROOT
HETATM    1  N3  UNL     1      16.924   5.486  19.686  1.00  0.00    -0.295 N
HETATM    2  C10 UNL     1      18.224   5.805  20.066  1.00  0.00     0.228 C
HETATM    3  O1  UNL     1      18.381   6.358  21.184  1.00  0.00    -0.273 OA
HETATM    4  C11 UNL     1      19.425   5.540  19.250  1.00  0.00     0.134 C
HETATM    5  C12 UNL     1      19.277   4.533  18.175  1.00  0.00     0.044 C
HETATM    6  C13 UNL     1      19.860   5.092  16.891  1.00  0.00     0.061 C
HETATM    7  C14 UNL     1      21.266   5.482  17.174  1.00  0.00     0.275 C
HETATM    8  N4  UNL     1      21.973   4.729  18.138  1.00  0.00     0.091 N
HETATM    9  C24 UNL     1      21.506   3.427  18.458  1.00  0.00     0.275 C
HETATM   10  C25 UNL     1      20.025   3.248  18.428  1.00  0.00     0.061 C
HETATM   11  N6  UNL     1      17.912   4.151  17.864  1.00  0.00    -0.357 N
ATOM     12  H6  UNL     1      17.770   3.489  17.101  1.00  0.00     0.162 HD
HETATM   13  C26 UNL     1      16.763   4.626  18.541  1.00  0.00     0.177 C
HETATM   14  S1  UNL     1      15.274   4.199  18.025  1.00  0.00    -0.041 SA
ENDROOT
BRANCH   1  15
HETATM   15  C9  UNL     1      15.693   5.927  20.305  1.00  0.00     0.134 C
BRANCH  15  16
HETATM   16  C8  UNL     1      15.371   7.342  20.081  1.00  0.00     0.020 C
BRANCH  16  17
HETATM   17  C7  UNL     1      14.961   7.992  21.415  1.00  0.00     0.002 C
BRANCH  17  18
HETATM   18  C6  UNL     1      15.181   7.083  22.563  1.00  0.00     0.002 C
BRANCH  18  19
HETATM   19  C5  UNL     1      14.095   6.862  23.521  1.00  0.00     0.027 C
BRANCH  19  20
HETATM   20  C4  UNL     1      12.839   6.259  23.061  1.00  0.00     0.232 C
BRANCH  20  21
HETATM   21  N2  UNL     1      12.072   5.612  24.067  1.00  0.00    -0.075 N
ATOM     22  H22 UNL     1      12.270   4.612  24.109  1.00  0.00     0.277 HD
ATOM     23  H21 UNL     1      11.085   5.563  23.817  1.00  0.00     0.277 HD
BRANCH  21  24
HETATM   24  C3  UNL     1      12.272   6.268  25.387  1.00  0.00     0.233 C
BRANCH  24  25
HETATM   25  C2  UNL     1      10.987   6.411  26.133  1.00  0.00     0.055 C
BRANCH  25  26
HETATM   26  C1  UNL     1      11.140   6.062  27.601  1.00  0.00     0.231 C
BRANCH  26  27
HETATM   27  N1  UNL     1      11.950   7.042  28.291  1.00  0.00    -0.079 N
ATOM     28  H13 UNL     1      11.529   7.971  28.251  1.00  0.00     0.274 HD
ATOM     29  H12 UNL     1      11.927   6.903  29.301  1.00  0.00     0.274 HD
ATOM     30  H11 UNL     1      12.906   7.047  27.936  1.00  0.00     0.274 HD
ENDBRANCH  26  27
ENDBRANCH  25  26
ENDBRANCH  24  25
ENDBRANCH  21  24
ENDBRANCH  20  21
ENDBRANCH  19  20
ENDBRANCH  18  19
ENDBRANCH  17  18
ENDBRANCH  16  17
ENDBRANCH  15  16
ENDBRANCH   1  15
BRANCH   8  31
HETATM   31  C15 UNL     1      23.373   4.673  17.761  1.00  0.00     0.306 C
BRANCH  31  32
HETATM   32  C16 UNL     1      23.777   5.897  16.966  1.00  0.00     0.170 C
BRANCH  32  33
HETATM   33  O2  UNL     1      24.293   5.452  15.716  1.00  0.00    -0.392 OA
ATOM     34  H2  UNL     1      25.207   5.227  15.843  1.00  0.00     0.210 HD
ENDBRANCH  32  33
BRANCH  32  35
HETATM   35  C17 UNL     1      24.887   6.659  17.621  1.00  0.00     0.209 C
BRANCH  35  36
HETATM   36  O3  UNL     1      24.805   6.926  18.949  1.00  0.00    -0.349 OA
BRANCH  36  37
HETATM   37  C18 UNL     1      24.169   7.902  19.680  1.00  0.00     0.069 A
HETATM   38  C19 UNL     1      24.414   9.245  19.540  1.00  0.00     0.038 A
HETATM   39  C20 UNL     1      23.720  10.141  20.320  1.00  0.00     0.029 A
HETATM   40  C21 UNL     1      22.774   9.761  21.253  1.00  0.00     0.046 A
HETATM   41  N5  UNL     1      22.065  10.678  22.053  1.00  0.00    -0.102 NA
HETATM   42  C22 UNL     1      22.541   8.410  21.382  1.00  0.00     0.029 A
HETATM   43  C23 UNL     1      23.212   7.497  20.622  1.00  0.00     0.038 A
ENDBRANCH  36  37
ENDBRANCH  35  36
ENDBRANCH  32  35
ENDBRANCH  31  32
ENDBRANCH   8  31
TORSDOF 17
ENDMDL