MODEL 2
REMARK VINA RESULT: -7.967903403      1.784      2.802
REMARK  16 active torsions:
REMARK  status: ('A' for Active; 'I' for Inactive)
REMARK       I    between atoms: C1_4  and  N2_5
REMARK       I    between atoms: C1_4  and  N8_40
REMARK    1  A    between atoms: N2_5  and  C2_7
REMARK    2  A    between atoms: C2_7  and  C3_8
REMARK    3  A    between atoms: C3_8  and  C4_9
REMARK    4  A    between atoms: C4_9  and  C5_10
REMARK    5  A    between atoms: C5_10  and  C6_11
REMARK    6  A    between atoms: C6_11  and  C7_12
REMARK    7  A    between atoms: C7_12  and  C8_13
REMARK    8  A    between atoms: C8_13  and  C9_14
REMARK       I    between atoms: C9_14  and  N3_16
REMARK    9  A    between atoms: N4_19  and  C12_20
REMARK   10  A    between atoms: C12_20  and  C13_21
REMARK   11  A    between atoms: C13_21  and  C14_22
REMARK   12  A    between atoms: C14_22  and  N5_23
REMARK   13  A    between atoms: N5_23  and  N6_24
REMARK   14  A    between atoms: N5_23  and  C15_27
REMARK   15  A    between atoms: C15_27  and  C16_28
REMARK   16  A    between atoms: N8_40  and  N9_42
ROOT
HETATM    1  C9  UNL     1      16.964   6.499  19.932  1.00  0.00     0.219 C
HETATM    2  O1  UNL     1      17.346   7.545  19.288  1.00  0.00    -0.273 OA
HETATM    3  N3  UNL     1      17.718   5.316  19.677  1.00  0.00    -0.349 N
HETATM    4  C10 UNL     1      18.743   5.282  18.689  1.00  0.00     0.156 C
HETATM    5  C11 UNL     1      19.796   4.263  18.944  1.00  0.00     0.292 C
HETATM    6  N4  UNL     1      19.377   3.091  19.612  1.00  0.00     0.091 N
HETATM    7  C24 UNL     1      17.920   2.940  19.736  1.00  0.00     0.292 C
HETATM    8  C25 UNL     1      17.454   4.148  20.512  1.00  0.00     0.156 C
ENDROOT
BRANCH   1   9
HETATM    9  C8  UNL     1      15.833   6.584  20.839  1.00  0.00     0.103 C
BRANCH   9  10
HETATM   10  C7  UNL     1      15.937   7.526  21.961  1.00  0.00     0.009 C
BRANCH  10  11
HETATM   11  C6  UNL     1      17.068   7.493  22.892  1.00  0.00     0.000 C
BRANCH  11  12
HETATM   12  C5  UNL     1      18.002   8.686  22.771  1.00  0.00     0.000 C
BRANCH  12  13
HETATM   13  C4  UNL     1      19.416   8.205  22.747  1.00  0.00     0.002 C
BRANCH  13  14
HETATM   14  C3  UNL     1      20.000   8.167  21.374  1.00  0.00     0.020 C
BRANCH  14  15
HETATM   15  C2  UNL     1      21.477   8.585  21.522  1.00  0.00     0.138 C
BRANCH  15  16
HETATM   16  N2  UNL     1      21.693   9.777  20.744  1.00  0.00    -0.225 N
HETATM   17  C1  UNL     1      22.558  10.770  21.218  1.00  0.00     0.691 C
HETATM   18  N1  UNL     1      22.602  12.004  20.756  1.00  0.00    -0.233 N
HETATM   19  N8  UNL     1      23.461  10.486  22.263  1.00  0.00    -0.072 N
ATOM     20  H12 UNL     1      21.948  12.209  20.000  1.00  0.00     0.174 HD
ATOM     21  H11 UNL     1      23.232  12.728  21.102  1.00  0.00     0.174 HD
ATOM     22  H8  UNL     1      24.205   9.799  22.143  1.00  0.00     0.212 HD
ATOM     23  H2  UNL     1      21.217   9.897  19.851  1.00  0.00     0.177 HD
BRANCH  19  24
HETATM   24  N9  UNL     1      23.305  11.171  23.455  1.00  0.00    -0.024 N
HETATM   25  O2  UNL     1      22.261  11.834  23.679  1.00  0.00    -0.516 OA
HETATM   26  O3  UNL     1      24.274  11.170  24.441  1.00  0.00    -0.516 OA
ENDBRANCH  19  24
ENDBRANCH  15  16
ENDBRANCH  14  15
ENDBRANCH  13  14
ENDBRANCH  12  13
ENDBRANCH  11  12
ENDBRANCH  10  11
ENDBRANCH   9  10
ENDBRANCH   1   9
BRANCH   6  27
HETATM   27  C12 UNL     1      19.931   1.905  19.038  1.00  0.00     0.277 C
BRANCH  27  28
HETATM   28  C13 UNL     1      21.343   1.602  19.622  1.00  0.00     0.076 C
BRANCH  28  29
HETATM   29  C14 UNL     1      22.188   1.324  18.442  1.00  0.00     0.084 C
BRANCH  29  30
HETATM   30  N5  UNL     1      23.299   2.126  18.182  1.00  0.00    -0.309 N
BRANCH  30  31
HETATM   31  N6  UNL     1      24.377   1.752  17.499  1.00  0.00    -0.343 N
ATOM     32  H62 UNL     1      25.223   1.528  18.022  1.00  0.00     0.177 HD
ATOM     33  H61 UNL     1      24.387   1.473  16.518  1.00  0.00     0.177 HD
ENDBRANCH  30  31
BRANCH  30  34
HETATM   34  C15 UNL     1      23.375   3.347  18.964  1.00  0.00     0.188 C
BRANCH  34  35
HETATM   35  C16 UNL     1      23.452   4.531  18.111  1.00  0.00    -0.011 A
HETATM   36  C17 UNL     1      23.094   4.770  16.844  1.00  0.00     0.098 A
HETATM   37  N7  UNL     1      23.236   6.092  16.582  1.00  0.00    -0.365 N
HETATM   38  C18 UNL     1      23.685   6.768  17.654  1.00  0.00     0.043 A
ATOM     39  H7  UNL     1      23.026   6.521  15.680  1.00  0.00     0.165 HD
HETATM   40  C19 UNL     1      24.080   8.057  17.943  1.00  0.00     0.030 A
HETATM   41  C23 UNL     1      23.824   5.786  18.633  1.00  0.00    -0.000 A
HETATM   42  C20 UNL     1      24.605   8.346  19.180  1.00  0.00     0.002 A
HETATM   43  C21 UNL     1      24.745   7.357  20.156  1.00  0.00     0.001 A
HETATM   44  C22 UNL     1      24.338   6.075  19.844  1.00  0.00     0.014 A
ENDBRANCH  34  35
ENDBRANCH  30  34
ENDBRANCH  29  30
ENDBRANCH  28  29
ENDBRANCH  27  28
ENDBRANCH   6  27
TORSDOF 16
ENDMDL