MODEL 4
REMARK VINA RESULT: -8.579900372      1.555      2.632
REMARK  17 active torsions:
REMARK  status: ('A' for Active; 'I' for Inactive)
REMARK    1  A    between atoms: C1_2  and  C2_4
REMARK    2  A    between atoms: C2_4  and  N1_5
REMARK    3  A    between atoms: N1_5  and  C3_6
REMARK       I    between atoms: N1_5  and  C27_42
REMARK    4  A    between atoms: C3_6  and  C4_7
REMARK    5  A    between atoms: C4_7  and  C5_8
REMARK    6  A    between atoms: C5_8  and  N2_9
REMARK    7  A    between atoms: N2_9  and  C6_12
REMARK    8  A    between atoms: C6_12  and  C7_13
REMARK    9  A    between atoms: C7_13  and  C8_14
REMARK   10  A    between atoms: C8_14  and  C9_15
REMARK   11  A    between atoms: C9_15  and  N3_16
REMARK   12  A    between atoms: N3_16  and  C10_18
REMARK   13  A    between atoms: C13_21  and  S1_22
REMARK   14  A    between atoms: S1_22  and  N4_25
REMARK   15  A    between atoms: N4_25  and  C14_27
REMARK   16  A    between atoms: C17_30  and  C18_31
REMARK   17  A    between atoms: C27_42  and  C28_44
ROOT
HETATM    1  C10 UNL     1      22.893   7.662  20.125  1.00  0.00     0.028 A
HETATM    2  C11 UNL     1      22.091   7.871  21.258  1.00  0.00     0.030 A
HETATM    3  C12 UNL     1      22.203   9.053  21.949  1.00  0.00     0.027 A
HETATM    4  C13 UNL     1      23.078  10.054  21.578  1.00  0.00     0.080 A
HETATM    5  C25 UNL     1      23.866   9.863  20.476  1.00  0.00     0.027 A
HETATM    6  C26 UNL     1      23.766   8.673  19.763  1.00  0.00     0.030 A
ENDROOT
BRANCH   1   7
HETATM    7  N3  UNL     1      22.783   6.461  19.388  1.00  0.00    -0.390 N
ATOM      8  H3  UNL     1      22.639   5.584  19.887  1.00  0.00     0.159 HD
BRANCH   7   9
HETATM    9  C9  UNL     1      22.869   6.445  17.952  1.00  0.00     0.120 C
BRANCH   9  10
HETATM   10  C8  UNL     1      22.670   5.027  17.432  1.00  0.00     0.021 C
BRANCH  10  11
HETATM   11  C7  UNL     1      21.197   4.629  17.582  1.00  0.00     0.029 C
BRANCH  11  12
HETATM   12  C6  UNL     1      20.379   5.709  16.929  1.00  0.00     0.232 C
BRANCH  12  13
HETATM   13  N2  UNL     1      19.145   5.961  17.619  1.00  0.00    -0.075 N
ATOM     14  H22 UNL     1      18.731   5.087  17.945  1.00  0.00     0.277 HD
ATOM     15  H21 UNL     1      18.422   6.259  16.964  1.00  0.00     0.277 HD
BRANCH  13  16
HETATM   16  C5  UNL     1      19.264   6.909  18.714  1.00  0.00     0.234 C
BRANCH  16  17
HETATM   17  C4  UNL     1      18.660   6.354  19.954  1.00  0.00     0.047 C
BRANCH  17  18
HETATM   18  C3  UNL     1      17.822   5.127  19.760  1.00  0.00     0.128 C
BRANCH  18  19
HETATM   19  N1  UNL     1      16.384   5.376  19.768  1.00  0.00    -0.340 N
HETATM   20  C27 UNL     1      15.658   5.028  18.617  1.00  0.00     0.249 C
HETATM   21  O5  UNL     1      16.337   4.495  17.656  1.00  0.00    -0.270 OA
BRANCH  19  22
HETATM   22  C2  UNL     1      15.863   5.987  20.968  1.00  0.00     0.238 C
BRANCH  22  23
HETATM   23  C1  UNL     1      15.317   7.356  20.748  1.00  0.00     0.191 C
HETATM   24  O1  UNL     1      15.684   8.081  19.818  1.00  0.00    -0.647 OA
HETATM   25  O2  UNL     1      14.365   7.794  21.640  1.00  0.00    -0.647 OA
ENDBRANCH  22  23
ENDBRANCH  19  22
BRANCH  20  26
HETATM   26  C28 UNL     1      14.228   5.180  18.362  1.00  0.00     0.213 C
HETATM   27  C29 UNL     1      13.684   4.470  17.163  1.00  0.00     0.043 C
HETATM   28  C30 UNL     1      13.683   3.029  17.630  1.00  0.00     0.029 C
HETATM   29  C31 UNL     1      13.472   3.201  19.108  1.00  0.00     0.168 C
HETATM   30  O6  UNL     1      13.464   4.553  19.381  1.00  0.00    -0.376 OA
ENDBRANCH  20  26
ENDBRANCH  18  19
ENDBRANCH  17  18
ENDBRANCH  16  17
ENDBRANCH  13  16
ENDBRANCH  12  13
ENDBRANCH  11  12
ENDBRANCH  10  11
ENDBRANCH   9  10
ENDBRANCH   7   9
ENDBRANCH   1   7
BRANCH   4  31
HETATM   31  S1  UNL     1      23.132  11.496  22.557  1.00  0.00     0.263 S
HETATM   32  O3  UNL     1      23.673  11.086  23.908  1.00  0.00    -0.200 OA
HETATM   33  O4  UNL     1      24.116  12.496  22.016  1.00  0.00    -0.200 OA
BRANCH  31  34
HETATM   34  N4  UNL     1      21.566  12.128  22.714  1.00  0.00    -0.281 N
ATOM     35  H4  UNL     1      21.168  12.610  21.908  1.00  0.00     0.179 HD
BRANCH  34  36
HETATM   36  C14 UNL     1      20.769  12.036  23.881  1.00  0.00     0.042 A
HETATM   37  C15 UNL     1      20.859  12.885  24.953  1.00  0.00     0.030 A
HETATM   38  C16 UNL     1      20.058  12.736  26.068  1.00  0.00     0.010 A
HETATM   39  C17 UNL     1      19.121  11.723  26.166  1.00  0.00    -0.054 A
HETATM   40  C23 UNL     1      19.028  10.864  25.080  1.00  0.00     0.010 A
HETATM   41  C24 UNL     1      19.831  11.014  23.965  1.00  0.00     0.030 A
BRANCH  39  42
HETATM   42  C18 UNL     1      18.253  11.547  27.365  1.00  0.00     0.021 C
HETATM   43  C19 UNL     1      17.132  10.591  27.178  1.00  0.00     0.028 C
HETATM   44  C20 UNL     1      17.005   9.576  28.285  1.00  0.00     0.114 C
HETATM   45  N5  UNL     1      18.247   8.962  28.634  1.00  0.00    -0.421 N
HETATM   46  C21 UNL     1      19.321   9.853  28.913  1.00  0.00     0.114 C
ATOM     47  H5  UNL     1      18.357   7.948  28.681  1.00  0.00     0.153 HD
HETATM   48  C22 UNL     1      19.072  11.294  28.603  1.00  0.00     0.028 C
ENDBRANCH  39  42
ENDBRANCH  34  36
ENDBRANCH  31  34
ENDBRANCH   4  31
TORSDOF 17
ENDMDL