MODEL 4
REMARK VINA RESULT: -7.630308458      2.779      9.609
REMARK  22 active torsions:
REMARK  status: ('A' for Active; 'I' for Inactive)
REMARK    1  A    between atoms: C2_2  and  C3_3
REMARK    2  A    between atoms: C3_3  and  C4_4
REMARK    3  A    between atoms: C10_15  and  O2_16
REMARK    4  A    between atoms: N3_18  and  C11_19
REMARK    5  A    between atoms: C11_19  and  C12_21
REMARK    6  A    between atoms: C12_21  and  C13_22
REMARK    7  A    between atoms: C13_22  and  C14_23
REMARK    8  A    between atoms: C14_23  and  O3_24
REMARK    9  A    between atoms: O3_24  and  C15_25
REMARK   10  A    between atoms: C15_25  and  C16_26
REMARK   11  A    between atoms: C16_26  and  C17_27
REMARK   12  A    between atoms: C17_27  and  C18_28
REMARK   13  A    between atoms: C18_28  and  C19_29
REMARK   14  A    between atoms: C19_29  and  C20_30
REMARK   15  A    between atoms: C21_32  and  N4_33
REMARK       I    between atoms: N4_33  and  C22_35
REMARK   16  A    between atoms: C22_35  and  C23_37
REMARK   17  A    between atoms: C23_37  and  C24_38
REMARK   18  A    between atoms: C24_38  and  C25_39
REMARK   19  A    between atoms: C25_39  and  C26_40
REMARK   20  A    between atoms: C26_40  and  C27_41
REMARK   21  A    between atoms: C27_41  and  C28_42
REMARK   22  A    between atoms: C28_42  and  N5_43
ROOT
HETATM    1  C15 UNL     1      21.833   5.388  18.163  1.00  0.00     0.167 C
ENDROOT
BRANCH   1   2
HETATM    2  O3  UNL     1      20.554   5.104  18.511  1.00  0.00    -0.391 OA
BRANCH   2   3
HETATM    3  C14 UNL     1      20.019   3.912  18.151  1.00  0.00     0.168 C
BRANCH   3   4
HETATM    4  C13 UNL     1      18.520   3.796  18.226  1.00  0.00     0.033 C
BRANCH   4   5
HETATM    5  C12 UNL     1      17.995   4.147  19.602  1.00  0.00     0.071 C
BRANCH   5   6
HETATM    6  C11 UNL     1      16.908   5.184  19.521  1.00  0.00     0.080 C
HETATM    7  S1  UNL     1      15.636   4.750  18.580  1.00  0.00    -0.065 SA
BRANCH   6   8
HETATM    8  N3  UNL     1      16.981   6.402  20.193  1.00  0.00    -0.314 N
HETATM    9  C2  UNL     1      16.445   6.801  21.469  1.00  0.00     0.118 C
HETATM   10  C1  UNL     1      15.388   7.924  21.248  1.00  0.00     0.049 C
HETATM   11  C9  UNL     1      17.609   7.539  22.013  1.00  0.00     0.249 C
HETATM   12  O1  UNL     1      18.101   7.548  23.138  1.00  0.00    -0.271 OA
HETATM   13  N2  UNL     1      18.061   8.290  20.852  1.00  0.00    -0.316 N
HETATM   14  C10 UNL     1      17.671   7.565  19.663  1.00  0.00     0.333 C
ATOM     15  H2  UNL     1      18.566   9.177  20.873  1.00  0.00     0.166 HD
BRANCH   9  16
HETATM   16  C3  UNL     1      15.874   5.740  22.322  1.00  0.00     0.079 C
BRANCH  16  17
HETATM   17  C4  UNL     1      14.790   6.187  23.259  1.00  0.00    -0.053 A
HETATM   18  C5  UNL     1      13.449   5.940  22.948  1.00  0.00     0.024 A
HETATM   19  C6  UNL     1      12.442   6.298  23.807  1.00  0.00     0.088 A
HETATM   20  N1  UNL     1      12.718   6.911  24.998  1.00  0.00    -0.375 N
HETATM   21  C7  UNL     1      13.997   7.162  25.326  1.00  0.00     0.088 A
ATOM     22  H1  UNL     1      11.962   7.173  25.630  1.00  0.00     0.164 HD
HETATM   23  C8  UNL     1      15.032   6.802  24.463  1.00  0.00     0.024 A
ENDBRANCH  16  17
ENDBRANCH   9  16
BRANCH  14  24
HETATM   24  O2  UNL     1      18.797   7.234  18.899  1.00  0.00    -0.359 OA
ATOM     25  H2  UNL     1      18.988   7.922  18.272  1.00  0.00     0.214 HD
ENDBRANCH  14  24
ENDBRANCH   6   8
ENDBRANCH   5   6
ENDBRANCH   4   5
ENDBRANCH   3   4
ENDBRANCH   2   3
ENDBRANCH   1   2
BRANCH   1  26
HETATM   26  C16 UNL     1      22.293   6.790  18.475  1.00  0.00     0.026 C
BRANCH  26  27
HETATM   27  C17 UNL     1      23.765   6.819  18.813  1.00  0.00     0.002 C
BRANCH  27  28
HETATM   28  C18 UNL     1      24.059   7.339  20.192  1.00  0.00     0.005 C
BRANCH  28  29
HETATM   29  C19 UNL     1      23.863   8.855  20.118  1.00  0.00     0.050 C
BRANCH  29  30
HETATM   30  C20 UNL     1      22.813   9.298  21.110  1.00  0.00     0.027 A
HETATM   31  S2  UNL     1      21.828   8.388  22.151  1.00  0.00    -0.055 SA
HETATM   32  C21 UNL     1      20.946   9.704  22.884  1.00  0.00     0.152 A
HETATM   33  N6  UNL     1      21.478  10.753  22.271  1.00  0.00    -0.324 N
HETATM   34  C29 UNL     1      22.413  10.579  21.378  1.00  0.00     0.131 A
ATOM     35  H6  UNL     1      21.156  11.694  22.497  1.00  0.00     0.169 HD
HETATM   36  N7  UNL     1      23.053  11.679  20.656  1.00  0.00    -0.082 NA
BRANCH  32  37
HETATM   37  N4  UNL     1      20.030   9.574  23.781  1.00  0.00    -0.307 N
HETATM   38  C22 UNL     1      19.207  10.568  24.256  1.00  0.00     0.223 C
HETATM   39  O4  UNL     1      19.065  11.664  23.666  1.00  0.00    -0.273 OA
ATOM     40  H4  UNL     1      19.904   8.643  24.179  1.00  0.00     0.171 HD
BRANCH  38  41
HETATM   41  C23 UNL     1      18.427  10.340  25.548  1.00  0.00     0.103 C
BRANCH  41  42
HETATM   42  C24 UNL     1      18.397  11.636  26.282  1.00  0.00     0.009 C
BRANCH  42  43
HETATM   43  C25 UNL     1      19.701  12.013  26.908  1.00  0.00     0.001 C
BRANCH  43  44
HETATM   44  C26 UNL     1      19.940  13.506  26.968  1.00  0.00     0.002 C
BRANCH  44  45
HETATM   45  C27 UNL     1      21.390  13.721  26.611  1.00  0.00     0.027 C
BRANCH  45  46
HETATM   46  C28 UNL     1      21.777  13.081  25.295  1.00  0.00     0.229 C
BRANCH  46  47
HETATM   47  N5  UNL     1      21.325  13.831  24.154  1.00  0.00    -0.079 N
ATOM     48  H53 UNL     1      20.934  13.212  23.443  1.00  0.00     0.274 HD
ATOM     49  H52 UNL     1      20.490  14.372  24.380  1.00  0.00     0.274 HD
ATOM     50  H51 UNL     1      22.052  14.428  23.759  1.00  0.00     0.274 HD
ENDBRANCH  46  47
ENDBRANCH  45  46
ENDBRANCH  44  45
ENDBRANCH  43  44
ENDBRANCH  42  43
ENDBRANCH  41  42
ENDBRANCH  38  41
ENDBRANCH  32  37
ENDBRANCH  29  30
ENDBRANCH  28  29
ENDBRANCH  27  28
ENDBRANCH  26  27
ENDBRANCH   1  26
TORSDOF 22
ENDMDL