MODEL 2
REMARK VINA RESULT: -9.069664735      1.738      2.697
REMARK  19 active torsions:
REMARK  status: ('A' for Active; 'I' for Inactive)
REMARK    1  A    between atoms: C4_4  and  C5_5
REMARK    2  A    between atoms: C5_5  and  C6_6
REMARK    3  A    between atoms: C6_6  and  N1_7
REMARK    4  A    between atoms: N1_7  and  C7_9
REMARK    5  A    between atoms: C7_9  and  C8_10
REMARK    6  A    between atoms: C8_10  and  C9_11
REMARK    7  A    between atoms: C9_11  and  C10_12
REMARK    8  A    between atoms: C10_12  and  N2_13
REMARK    9  A    between atoms: N2_13  and  C11_15
REMARK   10  A    between atoms: C11_15  and  O1_16
REMARK   11  A    between atoms: N3_18  and  C12_20
REMARK   12  A    between atoms: C19_28  and  O3_29
REMARK   13  A    between atoms: O3_29  and  C20_30
REMARK   14  A    between atoms: C20_30  and  C21_31
REMARK       I    between atoms: C21_31  and  N4_33
REMARK   15  A    between atoms: N4_33  and  C22_34
REMARK   16  A    between atoms: C25_37  and  C26_38
REMARK   17  A    between atoms: C26_38  and  C27_39
REMARK   18  A    between atoms: C30_50  and  C31_51
REMARK   19  A    between atoms: C31_51  and  C32_52
ROOT
HETATM    1  C1  UNL     1      23.247  14.479  28.472  1.00  0.00     0.018 C
HETATM    2  C2  UNL     1      22.727  13.995  27.518  1.00  0.00    -0.077 C
HETATM    3  C3  UNL     1      22.092  13.444  26.270  1.00  0.00     0.032 A
HETATM    4  C4  UNL     1      20.727  13.496  26.349  1.00  0.00    -0.034 A
HETATM    5  C17 UNL     1      20.053  13.270  25.191  1.00  0.00     0.012 A
HETATM    6  C18 UNL     1      20.773  12.988  24.001  1.00  0.00     0.038 A
HETATM    7  C19 UNL     1      22.115  12.931  23.944  1.00  0.00     0.077 A
HETATM    8  C30 UNL     1      22.858  13.200  25.260  1.00  0.00    -0.005 A
ENDROOT
BRANCH   4   9
HETATM    9  C5  UNL     1      20.040  13.490  27.693  1.00  0.00     0.084 C
BRANCH   9  10
HETATM   10  C6  UNL     1      19.532  12.027  27.744  1.00  0.00     0.060 C
BRANCH  10  11
HETATM   11  N1  UNL     1      18.184  11.844  27.598  1.00  0.00    -0.402 N
ATOM     12  H1  UNL     1      17.537  12.319  28.228  1.00  0.00     0.158 HD
BRANCH  11  13
HETATM   13  C7  UNL     1      17.665  10.973  26.546  1.00  0.00     0.118 C
BRANCH  13  14
HETATM   14  C8  UNL     1      18.602   9.892  26.156  1.00  0.00     0.021 C
BRANCH  14  15
HETATM   15  C9  UNL     1      18.233   9.207  24.812  1.00  0.00     0.021 C
BRANCH  15  16
HETATM   16  C10 UNL     1      19.139   9.677  23.796  1.00  0.00     0.123 C
BRANCH  16  17
HETATM   17  N2  UNL     1      19.933   8.801  23.003  1.00  0.00    -0.357 N
ATOM     18  H2  UNL     1      20.859   8.484  23.287  1.00  0.00     0.163 HD
BRANCH  17  19
HETATM   19  C11 UNL     1      19.311   8.397  21.752  1.00  0.00     0.212 C
HETATM   20  N3  UNL     1      18.269   7.741  21.309  1.00  0.00    -0.352 N
ATOM     21  H3  UNL     1      17.527   7.601  21.995  1.00  0.00     0.163 HD
BRANCH  19  22
HETATM   22  O1  UNL     1      20.158   8.843  20.758  1.00  0.00    -0.333 OA
ATOM     23  H1  UNL     1      20.798   8.151  20.639  1.00  0.00     0.220 HD
ENDBRANCH  19  22
BRANCH  20  24
HETATM   24  C12 UNL     1      17.997   7.174  19.978  1.00  0.00     0.089 C
HETATM   25  C13 UNL     1      18.542   5.791  19.828  1.00  0.00     0.051 C
HETATM   26  C14 UNL     1      17.891   5.094  18.601  1.00  0.00     0.169 C
HETATM   27  O2  UNL     1      16.541   4.952  18.736  1.00  0.00    -0.391 OA
HETATM   28  C15 UNL     1      16.011   5.706  19.751  1.00  0.00     0.169 C
HETATM   29  C16 UNL     1      16.456   7.132  19.753  1.00  0.00     0.051 C
ENDBRANCH  20  24
ENDBRANCH  17  19
ENDBRANCH  16  17
ENDBRANCH  15  16
ENDBRANCH  14  15
ENDBRANCH  13  14
ENDBRANCH  11  13
ENDBRANCH  10  11
ENDBRANCH   9  10
ENDBRANCH   4   9
BRANCH   8  30
HETATM   30  C31 UNL     1      24.281  13.295  25.099  1.00  0.00     0.042 C
BRANCH  30  31
HETATM   31  C32 UNL     1      25.060  12.056  25.519  1.00  0.00     0.000 C
HETATM   32  C33 UNL     1      26.492  12.124  25.040  1.00  0.00     0.005 C
ENDBRANCH  30  31
ENDBRANCH   8  30
BRANCH   7  33
HETATM   33  O3  UNL     1      22.920  12.669  22.957  1.00  0.00    -0.340 OA
BRANCH  33  34
HETATM   34  C20 UNL     1      23.336  11.987  21.916  1.00  0.00     0.294 C
BRANCH  34  35
HETATM   35  C21 UNL     1      23.036  10.454  22.315  1.00  0.00     0.316 C
HETATM   36  O4  UNL     1      22.602  10.137  23.392  1.00  0.00    -0.255 OA
HETATM   37  N4  UNL     1      23.398   9.653  21.187  1.00  0.00    -0.369 NA
BRANCH  37  38
HETATM   38  C22 UNL     1      23.698   8.843  20.236  1.00  0.00     0.111 A
HETATM   39  C23 UNL     1      24.065   9.294  18.949  1.00  0.00     0.045 A
HETATM   40  C24 UNL     1      24.448   8.424  18.035  1.00  0.00     0.011 A
HETATM   41  C25 UNL     1      24.508   7.043  18.271  1.00  0.00    -0.051 A
HETATM   42  C28 UNL     1      24.173   6.544  19.494  1.00  0.00     0.011 A
HETATM   43  C29 UNL     1      23.756   7.475  20.514  1.00  0.00     0.045 A
BRANCH  41  44
HETATM   44  C26 UNL     1      24.892   6.124  17.124  1.00  0.00     0.118 C
BRANCH  44  45
HETATM   45  C27 UNL     1      23.620   5.361  16.881  1.00  0.00     0.117 A
HETATM   46  N5  UNL     1      22.419   5.886  16.483  1.00  0.00    -0.272 N
HETATM   47  N6  UNL     1      21.525   4.895  16.377  1.00  0.00    -0.227 N
ATOM     48  H5  UNL     1      22.237   6.872  16.297  1.00  0.00     0.190 HD
HETATM   49  N7  UNL     1      22.168   3.796  16.701  1.00  0.00    -0.227 N
ATOM     50  H6  UNL     1      20.546   4.977  16.102  1.00  0.00     0.210 HD
HETATM   51  N8  UNL     1      23.436   4.043  17.011  1.00  0.00    -0.272 N
ATOM     52  H7  UNL     1      21.746   2.867  16.713  1.00  0.00     0.210 HD
ATOM     53  H8  UNL     1      24.136   3.358  17.294  1.00  0.00     0.190 HD
ENDBRANCH  44  45
ENDBRANCH  41  44
ENDBRANCH  37  38
ENDBRANCH  34  35
ENDBRANCH  33  34
ENDBRANCH   7  33
TORSDOF 19
ENDMDL