MODEL 1
REMARK VINA RESULT: -8.045584806      0.000      0.000
REMARK  20 active torsions:
REMARK  status: ('A' for Active; 'I' for Inactive)
REMARK    1  A    between atoms: C8_8  and  C9_9
REMARK    2  A    between atoms: C9_9  and  O1_10
REMARK    3  A    between atoms: C10_12  and  O2_13
REMARK    4  A    between atoms: O2_13  and  C11_14
REMARK       I    between atoms: C11_14  and  N1_16
REMARK    5  A    between atoms: N1_16  and  C12_18
REMARK    6  A    between atoms: C12_18  and  C13_19
REMARK    7  A    between atoms: C13_19  and  C14_20
REMARK    8  A    between atoms: C14_20  and  N2_21
REMARK       I    between atoms: N2_21  and  C15_23
REMARK    9  A    between atoms: C15_23  and  C16_25
REMARK   10  A    between atoms: C16_25  and  O5_26
REMARK   11  A    between atoms: C18_29  and  O6_30
REMARK   12  A    between atoms: C21_35  and  C22_36
REMARK   13  A    between atoms: C22_36  and  C23_37
REMARK   14  A    between atoms: C23_37  and  C24_38
REMARK   15  A    between atoms: C24_38  and  C25_39
REMARK   16  A    between atoms: C24_38  and  N3_44
REMARK   17  A    between atoms: C25_39  and  C26_40
REMARK   18  A    between atoms: C26_40  and  C27_41
REMARK   19  A    between atoms: C27_41  and  C28_42
REMARK       I    between atoms: N3_44  and  C31_46
REMARK   20  A    between atoms: C31_46  and  C32_48
ROOT
HETATM    1  C1  UNL     1      18.211   9.484  24.272  1.00  0.00     0.021 C
HETATM    2  C2  UNL     1      18.394   8.425  23.444  1.00  0.00    -0.038 C
HETATM    3  C3  UNL     1      17.639   7.286  24.027  1.00  0.00     0.040 C
HETATM    4  C4  UNL     1      16.249   7.155  23.382  1.00  0.00     0.011 C
HETATM    5  C5  UNL     1      16.381   7.657  22.018  1.00  0.00     0.007 C
HETATM    6  C6  UNL     1      15.265   7.691  21.037  1.00  0.00     0.041 C
HETATM    7  C7  UNL     1      15.931   6.545  20.359  1.00  0.00    -0.059 C
HETATM    8  C8  UNL     1      15.796   5.556  19.496  1.00  0.00    -0.024 C
HETATM    9  C10 UNL     1      16.905   4.555  19.219  1.00  0.00     0.167 C
HETATM   10  C17 UNL     1      18.101   4.828  20.053  1.00  0.00     0.070 C
HETATM   11  C18 UNL     1      17.792   5.550  21.380  1.00  0.00     0.136 C
HETATM   12  C19 UNL     1      17.208   6.856  21.085  1.00  0.00     0.035 C
HETATM   13  C20 UNL     1      18.224   7.744  20.405  1.00  0.00     0.192 C
HETATM   14  O7  UNL     1      18.629   8.827  21.085  1.00  0.00    -0.354 OA
HETATM   15  C21 UNL     1      19.272   8.779  22.275  1.00  0.00     0.052 C
ENDROOT
BRANCH   9  16
HETATM   16  O2  UNL     1      16.461   3.255  19.520  1.00  0.00    -0.294 OA
BRANCH  16  17
HETATM   17  C11 UNL     1      16.058   2.282  18.645  1.00  0.00     0.361 C
HETATM   18  O3  UNL     1      16.765   2.063  17.647  1.00  0.00    -0.238 OA
HETATM   19  N1  UNL     1      14.876   1.511  18.818  1.00  0.00    -0.337 N
ATOM     20  H1  UNL     1      14.287   1.674  19.634  1.00  0.00     0.164 HD
BRANCH  19  21
HETATM   21  C12 UNL     1      14.498   0.505  17.862  1.00  0.00     0.126 C
BRANCH  21  22
HETATM   22  C13 UNL     1      13.118   0.790  17.282  1.00  0.00     0.039 C
BRANCH  22  23
HETATM   23  C14 UNL     1      13.139   1.924  16.318  1.00  0.00     0.124 C
BRANCH  23  24
HETATM   24  N2  UNL     1      13.870   1.562  15.137  1.00  0.00    -0.359 N
HETATM   25  C15 UNL     1      13.238   0.911  14.056  1.00  0.00     0.241 C
HETATM   26  O4  UNL     1      12.035   0.599  14.000  1.00  0.00    -0.271 OA
ATOM     27  H2  UNL     1      14.865   1.779  15.078  1.00  0.00     0.162 HD
BRANCH  25  28
HETATM   28  C16 UNL     1      14.063   0.547  12.840  1.00  0.00     0.266 C
BRANCH  28  29
HETATM   29  O5  UNL     1      14.498   1.650  12.154  1.00  0.00    -0.392 OA
ATOM     30  H5  UNL     1      13.783   2.206  11.870  1.00  0.00     0.210 HD
ENDBRANCH  28  29
ENDBRANCH  25  28
ENDBRANCH  23  24
ENDBRANCH  22  23
ENDBRANCH  21  22
ENDBRANCH  19  21
ENDBRANCH  16  17
ENDBRANCH   9  16
BRANCH   8  31
HETATM   31  C9  UNL     1      14.481   5.367  18.813  1.00  0.00     0.201 C
BRANCH  31  32
HETATM   32  O1  UNL     1      13.687   4.485  19.509  1.00  0.00    -0.397 OA
ATOM     33  H1  UNL     1      12.791   4.797  19.554  1.00  0.00     0.209 HD
ENDBRANCH  31  32
ENDBRANCH   8  31
BRANCH  11  34
HETATM   34  O6  UNL     1      16.966   4.665  22.062  1.00  0.00    -0.394 OA
ATOM     35  H6  UNL     1      16.118   5.092  22.060  1.00  0.00     0.210 HD
ENDBRANCH  11  34
BRANCH  15  36
HETATM   36  C22 UNL     1      20.608   8.099  22.321  1.00  0.00     0.067 C
BRANCH  36  37
HETATM   37  C23 UNL     1      21.429   8.369  21.106  1.00  0.00     0.032 C
BRANCH  37  38
HETATM   38  C24 UNL     1      22.826   8.823  21.469  1.00  0.00     0.087 C
BRANCH  38  39
HETATM   39  C25 UNL     1      22.776  10.354  21.603  1.00  0.00     0.025 C
BRANCH  39  40
HETATM   40  C26 UNL     1      23.293  10.759  22.941  1.00  0.00     0.002 C
BRANCH  40  41
HETATM   41  C27 UNL     1      22.555  11.924  23.504  1.00  0.00    -0.000 C
BRANCH  41  42
HETATM   42  C28 UNL     1      21.179  11.564  23.942  1.00  0.00    -0.005 C
HETATM   43  C29 UNL     1      20.373  12.772  24.381  1.00  0.00     0.005 C
ENDBRANCH  41  42
ENDBRANCH  40  41
ENDBRANCH  39  40
ENDBRANCH  38  39
BRANCH  38  44
HETATM   44  N3  UNL     1      23.793   8.571  20.419  1.00  0.00    -0.352 N
HETATM   45  C30 UNL     1      24.139   9.689  19.564  1.00  0.00     0.153 C
HETATM   46  C31 UNL     1      24.407   7.323  20.174  1.00  0.00     0.219 C
HETATM   47  O8  UNL     1      24.121   6.349  20.893  1.00  0.00    -0.273 OA
BRANCH  46  48
HETATM   48  C32 UNL     1      25.380   7.165  19.078  1.00  0.00     0.098 C
HETATM   49  C33 UNL     1      24.699   6.619  17.827  1.00  0.00     0.014 C
ENDBRANCH  46  48
ENDBRANCH  38  44
ENDBRANCH  37  38
ENDBRANCH  36  37
ENDBRANCH  15  36
TORSDOF 20
ENDMDL