MODEL 3
REMARK VINA RESULT: -7.217502667      4.959     11.764
REMARK  20 active torsions:
REMARK  status: ('A' for Active; 'I' for Inactive)
REMARK    1  A    between atoms: C2_2  and  C3_3
REMARK    2  A    between atoms: C3_3  and  C4_4
REMARK    3  A    between atoms: C6_8  and  C7_9
REMARK    4  A    between atoms: C7_9  and  C8_10
REMARK    5  A    between atoms: C8_10  and  N1_11
REMARK       I    between atoms: N1_11  and  C9_13
REMARK    6  A    between atoms: C9_13  and  O4_15
REMARK    7  A    between atoms: O4_15  and  C10_16
REMARK    8  A    between atoms: C15_24  and  C16_25
REMARK    9  A    between atoms: C16_25  and  C17_26
REMARK   10  A    between atoms: C17_26  and  C18_27
REMARK   11  A    between atoms: C18_27  and  C19_28
REMARK   12  A    between atoms: C19_28  and  C20_29
REMARK   13  A    between atoms: C20_29  and  C21_30
REMARK   14  A    between atoms: C21_30  and  C22_31
REMARK   15  A    between atoms: C22_31  and  C23_32
REMARK   16  A    between atoms: C23_32  and  C24_33
REMARK   17  A    between atoms: C24_33  and  C25_34
REMARK   18  A    between atoms: C25_34  and  C26_35
REMARK   19  A    between atoms: C29_41  and  C30_42
REMARK   20  A    between atoms: C30_42  and  O7_44
ROOT
HETATM    1  C4  UNL     1      22.170  11.425  23.443  1.00  0.00     0.227 C
HETATM    2  O1  UNL     1      21.053  12.071  23.876  1.00  0.00    -0.304 OA
HETATM    3  C5  UNL     1      19.759  11.821  24.071  1.00  0.00     0.282 C
HETATM    4  O2  UNL     1      18.741  12.304  23.458  1.00  0.00    -0.263 OA
HETATM    5  C6  UNL     1      19.426  10.857  25.132  1.00  0.00     0.185 C
HETATM    6  N2  UNL     1      18.450   9.868  24.691  1.00  0.00    -0.345 N
ATOM      7  H2  UNL     1      17.500   9.994  25.038  1.00  0.00     0.163 HD
HETATM    8  C14 UNL     1      18.653   8.770  23.853  1.00  0.00     0.241 C
HETATM    9  O5  UNL     1      18.183   7.635  24.235  1.00  0.00    -0.271 OA
HETATM   10  C15 UNL     1      19.365   8.785  22.549  1.00  0.00     0.176 C
HETATM   11  N3  UNL     1      20.523   7.904  22.635  1.00  0.00    -0.346 N
ATOM     12  H3  UNL     1      20.361   6.973  23.019  1.00  0.00     0.163 HD
HETATM   13  C28 UNL     1      21.828   8.201  22.249  1.00  0.00     0.243 C
HETATM   14  O6  UNL     1      22.792   7.766  22.973  1.00  0.00    -0.271 OA
HETATM   15  C29 UNL     1      22.222   8.983  21.059  1.00  0.00     0.205 C
HETATM   16  N4  UNL     1      21.940  10.375  21.088  1.00  0.00    -0.343 N
ATOM     17  H4  UNL     1      21.333  10.702  20.336  1.00  0.00     0.163 HD
HETATM   18  C32 UNL     1      22.356  11.374  21.976  1.00  0.00     0.248 C
HETATM   19  O8  UNL     1      22.975  12.377  21.470  1.00  0.00    -0.271 OA
ENDROOT
BRANCH  10  20
HETATM   20  C16 UNL     1      18.532   8.431  21.360  1.00  0.00     0.035 C
BRANCH  20  21
HETATM   21  C17 UNL     1      18.479   7.007  20.949  1.00  0.00     0.002 C
BRANCH  21  22
HETATM   22  C18 UNL     1      17.136   6.659  20.374  1.00  0.00     0.000 C
BRANCH  22  23
HETATM   23  C19 UNL     1      16.148   7.700  20.139  1.00  0.00     0.000 C
BRANCH  23  24
HETATM   24  C20 UNL     1      14.991   7.954  21.012  1.00  0.00     0.000 C
BRANCH  24  25
HETATM   25  C21 UNL     1      14.877   7.330  22.333  1.00  0.00     0.000 C
BRANCH  25  26
HETATM   26  C22 UNL     1      13.738   6.286  22.360  1.00  0.00     0.000 C
BRANCH  26  27
HETATM   27  C23 UNL     1      14.193   4.956  21.860  1.00  0.00     0.000 C
BRANCH  27  28
HETATM   28  C24 UNL     1      13.413   4.594  20.618  1.00  0.00     0.000 C
BRANCH  28  29
HETATM   29  C25 UNL     1      14.353   4.139  19.533  1.00  0.00    -0.000 C
BRANCH  29  30
HETATM   30  C26 UNL     1      14.254   5.111  18.344  1.00  0.00    -0.005 C
HETATM   31  C27 UNL     1      13.067   4.723  17.497  1.00  0.00     0.005 C
ENDBRANCH  29  30
ENDBRANCH  28  29
ENDBRANCH  27  28
ENDBRANCH  26  27
ENDBRANCH  25  26
ENDBRANCH  24  25
ENDBRANCH  23  24
ENDBRANCH  22  23
ENDBRANCH  21  22
ENDBRANCH  20  21
ENDBRANCH  10  20
BRANCH   5  32
HETATM   32  C7  UNL     1      18.995  11.380  26.445  1.00  0.00     0.055 C
BRANCH  32  33
HETATM   33  C8  UNL     1      17.577  11.181  26.820  1.00  0.00     0.127 C
BRANCH  33  34
HETATM   34  N1  UNL     1      17.385  10.659  28.128  1.00  0.00    -0.337 N
HETATM   35  C9  UNL     1      17.319   9.248  28.346  1.00  0.00     0.361 C
HETATM   36  O3  UNL     1      17.429   8.428  27.406  1.00  0.00    -0.238 OA
ATOM     37  H1  UNL     1      17.294  11.298  28.917  1.00  0.00     0.164 HD
BRANCH  35  38
HETATM   38  O4  UNL     1      17.131   8.727  29.606  1.00  0.00    -0.294 OA
BRANCH  38  39
HETATM   39  C10 UNL     1      18.101   8.416  30.548  1.00  0.00     0.061 C
HETATM   40  C11 UNL     1      19.486   8.873  30.220  1.00  0.00     0.046 C
HETATM   41  C12 UNL     1      17.706   9.137  31.841  1.00  0.00     0.046 C
HETATM   42  C13 UNL     1      18.183   6.928  30.857  1.00  0.00     0.046 C
ENDBRANCH  38  39
ENDBRANCH  35  38
ENDBRANCH  33  34
ENDBRANCH  32  33
ENDBRANCH   5  32
BRANCH  15  43
HETATM   43  C30 UNL     1      23.677   8.742  20.693  1.00  0.00     0.146 C
HETATM   44  C31 UNL     1      23.919   9.523  19.412  1.00  0.00     0.042 C
BRANCH  43  45
HETATM   45  O7  UNL     1      23.961   7.426  20.442  1.00  0.00    -0.393 OA
ATOM     46  H7  UNL     1      23.965   6.886  21.224  1.00  0.00     0.210 HD
ENDBRANCH  43  45
ENDBRANCH  15  43
BRANCH   1  47
HETATM   47  C3  UNL     1      23.386  12.081  24.080  1.00  0.00     0.068 C
BRANCH  47  48
HETATM   48  C2  UNL     1      23.104  13.370  24.702  1.00  0.00    -0.034 C
HETATM   49  C1  UNL     1      23.552  13.650  25.911  1.00  0.00     0.007 C
ENDBRANCH  47  48
ENDBRANCH   1  47
TORSDOF 20
ENDMDL