MODEL 3
REMARK VINA RESULT: -8.671880458      0.822      2.141
REMARK  19 active torsions:
REMARK  status: ('A' for Active; 'I' for Inactive)
REMARK    1  A    between atoms: C2_2  and  C3_3
REMARK    2  A    between atoms: C3_3  and  N1_4
REMARK    3  A    between atoms: N1_4  and  C4_6
REMARK    4  A    between atoms: C5_9  and  N3_10
REMARK    5  A    between atoms: N3_10  and  C6_12
REMARK    6  A    between atoms: C9_15  and  N4_16
REMARK       I    between atoms: N4_16  and  C10_18
REMARK    7  A    between atoms: C15_27  and  O1_28
REMARK    8  A    between atoms: O1_28  and  C16_29
REMARK    9  A    between atoms: C16_29  and  C17_30
REMARK   10  A    between atoms: C17_30  and  O2_31
REMARK   11  A    between atoms: O2_31  and  C18_32
REMARK   12  A    between atoms: C18_32  and  C19_33
REMARK   13  A    between atoms: C19_33  and  O3_34
REMARK   14  A    between atoms: O3_34  and  C20_35
REMARK   15  A    between atoms: C20_35  and  C21_36
REMARK   16  A    between atoms: C21_36  and  O4_37
REMARK   17  A    between atoms: O4_37  and  C22_38
REMARK   18  A    between atoms: C22_38  and  C24_40
REMARK   19  A    between atoms: C24_40  and  N7_41
ROOT
HETATM    1  C4  UNL     1      22.981  11.658  21.544  1.00  0.00     0.680 A
HETATM    2  N2  UNL     1      21.865  10.958  21.894  1.00  0.00    -0.176 N
ATOM      3  H2  UNL     1      21.145  11.420  22.449  1.00  0.00     0.186 HD
HETATM    4  C5  UNL     1      21.686   9.685  21.531  1.00  0.00     0.134 A
HETATM    5  C13 UNL     1      22.660   9.030  20.769  1.00  0.00     0.038 A
HETATM    6  C14 UNL     1      22.483   7.695  20.385  1.00  0.00     0.054 A
HETATM    7  C15 UNL     1      23.463   7.084  19.637  1.00  0.00     0.069 A
HETATM    8  C29 UNL     1      24.612   7.817  19.281  1.00  0.00     0.039 A
HETATM    9  C30 UNL     1      24.756   9.118  19.672  1.00  0.00     0.034 A
HETATM   10  C31 UNL     1      23.775   9.739  20.423  1.00  0.00     0.063 A
HETATM   11  N8  UNL     1      23.901  11.014  20.815  1.00  0.00    -0.191 N
ATOM     12  H8  UNL     1      24.744  11.520  20.543  1.00  0.00     0.184 HD
ENDROOT
BRANCH   7  13
HETATM   13  O1  UNL     1      23.422   5.804  19.196  1.00  0.00    -0.349 OA
BRANCH  13  14
HETATM   14  C16 UNL     1      23.629   5.264  17.955  1.00  0.00     0.201 C
BRANCH  14  15
HETATM   15  C17 UNL     1      22.507   5.354  16.968  1.00  0.00     0.194 C
BRANCH  15  16
HETATM   16  O2  UNL     1      22.430   6.565  16.287  1.00  0.00    -0.387 OA
BRANCH  16  17
HETATM   17  C18 UNL     1      21.114   6.932  16.155  1.00  0.00     0.193 C
BRANCH  17  18
HETATM   18  C19 UNL     1      20.198   6.206  17.111  1.00  0.00     0.193 C
BRANCH  18  19
HETATM   19  O3  UNL     1      19.349   6.991  17.830  1.00  0.00    -0.387 OA
BRANCH  19  20
HETATM   20  C20 UNL     1      19.228   6.644  19.161  1.00  0.00     0.193 C
BRANCH  20  21
HETATM   21  C21 UNL     1      18.276   7.584  19.852  1.00  0.00     0.194 C
BRANCH  21  22
HETATM   22  O4  UNL     1      16.973   7.513  19.449  1.00  0.00    -0.383 OA
BRANCH  22  23
HETATM   23  C22 UNL     1      16.107   6.903  20.360  1.00  0.00     0.135 C
HETATM   24  C23 UNL     1      15.240   7.994  20.942  1.00  0.00     0.041 C
BRANCH  23  25
HETATM   25  C24 UNL     1      15.207   5.904  19.674  1.00  0.00     0.157 C
BRANCH  25  26
HETATM   26  N7  UNL     1      15.968   4.738  19.298  1.00  0.00    -0.350 N
HETATM   27  C25 UNL     1      16.647   3.766  20.123  1.00  0.00     0.126 C
HETATM   28  C26 UNL     1      17.731   3.235  19.226  1.00  0.00     0.029 C
HETATM   29  C27 UNL     1      17.463   3.694  17.834  1.00  0.00     0.104 C
HETATM   30  C28 UNL     1      16.135   4.335  17.916  1.00  0.00     0.219 C
HETATM   31  O5  UNL     1      15.264   4.529  17.003  1.00  0.00    -0.273 OA
ENDBRANCH  25  26
ENDBRANCH  23  25
ENDBRANCH  22  23
ENDBRANCH  21  22
ENDBRANCH  20  21
ENDBRANCH  19  20
ENDBRANCH  18  19
ENDBRANCH  17  18
ENDBRANCH  16  17
ENDBRANCH  15  16
ENDBRANCH  14  15
ENDBRANCH  13  14
ENDBRANCH   7  13
BRANCH   4  32
HETATM   32  N3  UNL     1      20.655   8.990  21.847  1.00  0.00    -0.341 N
ATOM     33  H3  UNL     1      20.382   8.221  21.235  1.00  0.00     0.167 HD
BRANCH  32  34
HETATM   34  C6  UNL     1      19.878   9.237  23.003  1.00  0.00     0.033 A
HETATM   35  C7  UNL     1      18.912   8.337  23.437  1.00  0.00     0.032 A
HETATM   36  C8  UNL     1      18.187   8.626  24.545  1.00  0.00     0.032 A
HETATM   37  C9  UNL     1      18.368   9.795  25.275  1.00  0.00     0.034 A
HETATM   38  C11 UNL     1      19.338  10.688  24.832  1.00  0.00     0.032 A
HETATM   39  C12 UNL     1      20.058  10.391  23.723  1.00  0.00     0.032 A
BRANCH  37  40
HETATM   40  N4  UNL     1      17.594  10.060  26.421  1.00  0.00    -0.331 N
HETATM   41  C10 UNL     1      18.174   9.937  27.701  1.00  0.00     0.186 C
HETATM   42  N5  UNL     1      18.117   8.823  28.327  1.00  0.00    -0.373 N
HETATM   43  N6  UNL     1      18.819  11.069  28.281  1.00  0.00    -0.064 NA
ATOM     44  H52 UNL     1      17.656   8.014  27.912  1.00  0.00     0.158 HD
ATOM     45  H51 UNL     1      18.537   8.734  29.253  1.00  0.00     0.158 HD
ATOM     46  H4  UNL     1      16.618  10.340  26.326  1.00  0.00     0.168 HD
ENDBRANCH  37  40
ENDBRANCH  32  34
ENDBRANCH   4  32
BRANCH   1  47
HETATM   47  N1  UNL     1      23.106  12.889  21.921  1.00  0.00    -0.226 N
ATOM     48  H1  UNL     1      22.965  13.650  21.257  1.00  0.00     0.177 HD
BRANCH  47  49
HETATM   49  C3  UNL     1      23.447  13.172  23.297  1.00  0.00     0.137 C
BRANCH  49  50
HETATM   50  C2  UNL     1      22.639  14.322  23.853  1.00  0.00     0.016 C
HETATM   51  C1  UNL     1      21.475  13.836  24.662  1.00  0.00     0.006 C
ENDBRANCH  49  50
ENDBRANCH  47  49
ENDBRANCH   1  47
TORSDOF 19
ENDMDL