MODEL 5
REMARK VINA RESULT: -7.783296746      4.017      6.967
REMARK  18 active torsions:
REMARK  status: ('A' for Active; 'I' for Inactive)
REMARK    1  A    between atoms: C2_2  and  C3_3
REMARK    2  A    between atoms: C3_3  and  C4_4
REMARK    3  A    between atoms: C4_4  and  C5_5
REMARK    4  A    between atoms: C11_15  and  C12_16
REMARK    5  A    between atoms: C12_16  and  C13_17
REMARK    6  A    between atoms: C13_17  and  S1_18
REMARK    7  A    between atoms: C16_24  and  C17_25
REMARK    8  A    between atoms: C17_25  and  C18_26
REMARK    9  A    between atoms: C18_26  and  C19_27
REMARK   10  A    between atoms: C19_27  and  C20_28
REMARK   11  A    between atoms: C20_28  and  C21_29
REMARK   12  A    between atoms: C21_29  and  C22_30
REMARK   13  A    between atoms: C22_30  and  O3_31
REMARK   14  A    between atoms: C22_30  and  C23_33
REMARK   15  A    between atoms: C23_33  and  C24_34
REMARK   16  A    between atoms: C23_33  and  C28_38
REMARK   17  A    between atoms: C24_34  and  C25_35
REMARK   18  A    between atoms: C25_35  and  C26_36
ROOT
HETATM    1  C5  UNL     1      17.951   7.244  21.468  1.00  0.00    -0.054 C
HETATM    2  C6  UNL     1      18.141   7.680  20.071  1.00  0.00     0.046 C
HETATM    3  C7  UNL     1      18.268   8.078  22.439  1.00  0.00     0.053 C
HETATM    4  C8  UNL     1      18.092   7.659  23.827  1.00  0.00     0.085 C
HETATM    5  C9  UNL     1      18.562   8.620  24.851  1.00  0.00     0.137 C
HETATM    6  N1  UNL     1      18.939   9.929  24.382  1.00  0.00    -0.298 N
HETATM    7  C10 UNL     1      18.666  11.060  25.195  1.00  0.00     0.321 C
HETATM    8  O1  UNL     1      17.544  11.049  25.814  1.00  0.00    -0.247 OA
HETATM    9  N2  UNL     1      19.500  12.168  25.377  1.00  0.00    -0.330 N
ATOM     10  H2  UNL     1      19.072  13.092  25.336  1.00  0.00     0.165 HD
HETATM   11  C11 UNL     1      20.950  12.098  25.624  1.00  0.00     0.179 C
HETATM   12  C15 UNL     1      21.588  12.793  24.504  1.00  0.00     0.242 C
HETATM   13  O2  UNL     1      21.081  13.949  24.250  1.00  0.00    -0.271 OA
HETATM   14  N3  UNL     1      22.645  12.381  23.694  1.00  0.00    -0.338 N
ATOM     15  H3  UNL     1      23.434  13.026  23.646  1.00  0.00     0.164 HD
HETATM   16  C16 UNL     1      22.785  11.177  22.917  1.00  0.00     0.186 C
HETATM   17  N4  UNL     1      22.156  10.014  23.452  1.00  0.00    -0.336 N
ATOM     18  H4  UNL     1      22.671   9.551  24.200  1.00  0.00     0.164 HD
HETATM   19  C29 UNL     1      20.941   9.408  23.110  1.00  0.00     0.269 C
HETATM   20  O6  UNL     1      20.961   8.167  22.784  1.00  0.00    -0.269 OA
HETATM   21  C30 UNL     1      19.598  10.042  23.082  1.00  0.00     0.326 C
HETATM   22  O7  UNL     1      18.767   9.353  22.169  1.00  0.00    -0.321 OA
ENDROOT
BRANCH  16  23
HETATM   23  C17 UNL     1      22.439  11.427  21.451  1.00  0.00     0.047 C
BRANCH  23  24
HETATM   24  C18 UNL     1      23.495  10.912  20.503  1.00  0.00     0.004 C
BRANCH  24  25
HETATM   25  C19 UNL     1      23.577   9.434  20.448  1.00  0.00     0.000 C
BRANCH  25  26
HETATM   26  C20 UNL     1      24.560   8.925  19.381  1.00  0.00     0.002 C
BRANCH  26  27
HETATM   27  C21 UNL     1      25.112   7.602  19.764  1.00  0.00     0.032 C
BRANCH  27  28
HETATM   28  C22 UNL     1      24.506   6.375  19.221  1.00  0.00     0.132 C
BRANCH  28  29
HETATM   29  O3  UNL     1      23.787   5.774  20.284  1.00  0.00    -0.395 OA
ATOM     30  H3  UNL     1      23.123   5.224  19.886  1.00  0.00     0.210 HD
ENDBRANCH  28  29
BRANCH  28  31
HETATM   31  C23 UNL     1      23.579   6.492  18.062  1.00  0.00     0.115 C
BRANCH  31  32
HETATM   32  C24 UNL     1      22.131   6.177  18.543  1.00  0.00     0.018 C
BRANCH  32  33
HETATM   33  C25 UNL     1      21.208   6.631  17.458  1.00  0.00     0.001 C
BRANCH  33  34
HETATM   34  C26 UNL     1      20.064   5.653  17.241  1.00  0.00    -0.005 C
HETATM   35  C27 UNL     1      20.028   4.733  18.454  1.00  0.00     0.005 C
ENDBRANCH  33  34
ENDBRANCH  32  33
ENDBRANCH  31  32
BRANCH  31  36
HETATM   36  C28 UNL     1      23.845   5.355  17.111  1.00  0.00     0.179 C
HETATM   37  O4  UNL     1      23.750   4.166  17.494  1.00  0.00    -0.648 OA
HETATM   38  O5  UNL     1      24.191   5.601  15.809  1.00  0.00    -0.648 OA
ENDBRANCH  31  36
ENDBRANCH  28  31
ENDBRANCH  27  28
ENDBRANCH  26  27
ENDBRANCH  25  26
ENDBRANCH  24  25
ENDBRANCH  23  24
ENDBRANCH  16  23
BRANCH  11  39
HETATM   39  C12 UNL     1      21.232  12.710  26.982  1.00  0.00     0.045 C
BRANCH  39  40
HETATM   40  C13 UNL     1      22.594  13.294  27.132  1.00  0.00     0.076 C
BRANCH  40  41
HETATM   41  S1  UNL     1      23.698  11.895  27.585  1.00  0.00    -0.173 SA
HETATM   42  C14 UNL     1      25.050  11.739  26.406  1.00  0.00     0.089 C
ENDBRANCH  40  41
ENDBRANCH  39  40
ENDBRANCH  11  39
BRANCH   1  43
HETATM   43  C4  UNL     1      17.426   5.906  21.767  1.00  0.00     0.036 C
BRANCH  43  44
HETATM   44  C3  UNL     1      16.043   5.670  21.181  1.00  0.00     0.004 C
BRANCH  44  45
HETATM   45  C2  UNL     1      15.013   6.291  22.100  1.00  0.00    -0.004 C
HETATM   46  C1  UNL     1      14.488   7.596  21.563  1.00  0.00     0.005 C
ENDBRANCH  44  45
ENDBRANCH  43  44
ENDBRANCH   1  43
TORSDOF 18
ENDMDL