MODEL 5
REMARK VINA RESULT: -8.678008371      1.525      3.277
REMARK  18 active torsions:
REMARK  status: ('A' for Active; 'I' for Inactive)
REMARK    1  A    between atoms: N1_2  and  C3_4
REMARK    2  A    between atoms: N2_12  and  C10_13
REMARK    3  A    between atoms: C10_13  and  C11_14
REMARK    4  A    between atoms: C11_14  and  C12_15
REMARK    5  A    between atoms: C17_23  and  C18_24
REMARK    6  A    between atoms: C18_24  and  C19_25
REMARK    7  A    between atoms: C19_25  and  C20_26
REMARK       I    between atoms: C20_26  and  N4_28
REMARK    8  A    between atoms: N4_28  and  C21_30
REMARK    9  A    between atoms: C21_30  and  C22_31
REMARK   10  A    between atoms: C22_31  and  C23_32
REMARK   11  A    between atoms: C23_32  and  C24_33
REMARK   12  A    between atoms: C24_33  and  C25_34
REMARK   13  A    between atoms: C25_34  and  C26_35
REMARK   14  A    between atoms: C26_35  and  N5_36
REMARK       I    between atoms: N5_36  and  C27_38
REMARK   15  A    between atoms: C27_38  and  C28_40
REMARK   16  A    between atoms: C28_40  and  C29_41
REMARK   17  A    between atoms: C32_44  and  C33_45
REMARK   18  A    between atoms: C33_45  and  O4_46
ROOT
HETATM    1  C3  UNL     1      18.846  11.108  26.584  1.00  0.00     0.030 A
HETATM    2  C4  UNL     1      18.368  11.297  25.279  1.00  0.00     0.031 A
HETATM    3  C5  UNL     1      19.165  11.901  24.330  1.00  0.00     0.032 A
HETATM    4  C6  UNL     1      20.441  12.322  24.666  1.00  0.00     0.045 A
HETATM    5  C7  UNL     1      20.935  12.147  25.948  1.00  0.00     0.060 A
HETATM    6  C8  UNL     1      20.119  11.541  26.875  1.00  0.00     0.048 A
HETATM    7  C9  UNL     1      22.276  12.628  26.216  1.00  0.00     0.257 C
HETATM    8  O1  UNL     1      22.765  12.482  27.387  1.00  0.00    -0.267 OA
HETATM    9  N2  UNL     1      23.083  13.263  25.230  1.00  0.00    -0.327 N
HETATM   10  C17 UNL     1      22.654  13.310  23.872  1.00  0.00     0.187 C
HETATM   11  N6  UNL     1      21.247  12.935  23.707  1.00  0.00    -0.368 N
ATOM     12  H6  UNL     1      20.816  13.141  22.805  1.00  0.00     0.161 HD
ENDROOT
BRANCH  10  13
HETATM   13  C18 UNL     1      23.424  12.536  22.876  1.00  0.00     0.056 C
BRANCH  13  14
HETATM   14  C19 UNL     1      23.622  11.085  23.127  1.00  0.00     0.106 C
BRANCH  14  15
HETATM   15  C20 UNL     1      22.551  10.375  22.329  1.00  0.00     0.217 C
HETATM   16  O2  UNL     1      21.972  10.969  21.374  1.00  0.00    -0.274 OA
HETATM   17  N4  UNL     1      22.200   9.049  22.651  1.00  0.00    -0.361 N
ATOM     18  H4  UNL     1      22.672   8.578  23.424  1.00  0.00     0.162 HD
BRANCH  17  19
HETATM   19  C21 UNL     1      21.197   8.356  21.914  1.00  0.00     0.122 C
BRANCH  19  20
HETATM   20  C22 UNL     1      19.832   8.315  22.566  1.00  0.00     0.020 C
BRANCH  20  21
HETATM   21  C23 UNL     1      18.745   8.311  21.543  1.00  0.00     0.002 C
BRANCH  21  22
HETATM   22  C24 UNL     1      19.127   7.563  20.260  1.00  0.00     0.005 C
BRANCH  22  23
HETATM   23  C25 UNL     1      18.123   6.567  19.872  1.00  0.00     0.044 C
BRANCH  23  24
HETATM   24  C26 UNL     1      18.520   5.158  19.720  1.00  0.00     0.064 C
BRANCH  24  25
HETATM   25  N5  UNL     1      19.639   4.742  19.000  1.00  0.00    -0.341 N
HETATM   26  C27 UNL     1      19.859   4.740  17.619  1.00  0.00     0.227 C
HETATM   27  O3  UNL     1      19.015   5.126  16.802  1.00  0.00    -0.273 OA
ATOM     28  H5  UNL     1      20.412   4.386  19.563  1.00  0.00     0.167 HD
BRANCH  26  29
HETATM   29  C28 UNL     1      21.157   4.260  17.023  1.00  0.00     0.168 C
BRANCH  29  30
HETATM   30  C29 UNL     1      22.290   5.075  17.509  1.00  0.00     0.062 A
HETATM   31  C30 UNL     1      23.253   5.645  16.680  1.00  0.00     0.036 A
HETATM   32  C31 UNL     1      24.122   6.314  17.515  1.00  0.00     0.037 A
HETATM   33  C32 UNL     1      23.681   6.139  18.784  1.00  0.00     0.076 A
HETATM   34  O5  UNL     1      22.607   5.411  18.751  1.00  0.00    -0.317 OA
BRANCH  33  35
HETATM   35  C33 UNL     1      24.348   6.709  20.009  1.00  0.00     0.229 C
BRANCH  35  36
HETATM   36  O4  UNL     1      23.900   6.036  21.132  1.00  0.00    -0.394 OA
ATOM     37  H4  UNL     1      23.643   6.665  21.796  1.00  0.00     0.209 HD
ENDBRANCH  35  36
ENDBRANCH  33  35
ENDBRANCH  29  30
ENDBRANCH  26  29
ENDBRANCH  24  25
ENDBRANCH  23  24
ENDBRANCH  22  23
ENDBRANCH  21  22
ENDBRANCH  20  21
ENDBRANCH  19  20
ENDBRANCH  17  19
ENDBRANCH  14  15
ENDBRANCH  13  14
ENDBRANCH  10  13
BRANCH   9  38
HETATM   38  C10 UNL     1      24.325  13.908  25.587  1.00  0.00     0.129 C
BRANCH  38  39
HETATM   39  C11 UNL     1      25.543  13.060  25.487  1.00  0.00     0.024 C
BRANCH  39  40
HETATM   40  C12 UNL     1      26.818  13.891  25.625  1.00  0.00    -0.010 C
HETATM   41  C13 UNL     1      27.131  14.159  27.081  1.00  0.00     0.032 C
HETATM   42  C14 UNL     1      28.320  15.088  27.127  1.00  0.00     0.232 C
HETATM   43  N3  UNL     1      29.444  14.430  26.484  1.00  0.00    -0.075 N
HETATM   44  C15 UNL     1      29.174  14.206  25.079  1.00  0.00     0.232 C
ATOM     45  H32 UNL     1      30.313  14.945  26.624  1.00  0.00     0.277 HD
ATOM     46  H31 UNL     1      29.700  13.566  26.962  1.00  0.00     0.277 HD
HETATM   47  C16 UNL     1      27.994  13.248  24.936  1.00  0.00     0.032 C
ENDBRANCH  39  40
ENDBRANCH  38  39
ENDBRANCH   9  38
BRANCH   1  48
HETATM   48  N1  UNL     1      17.978  10.491  27.504  1.00  0.00    -0.390 N
HETATM   49  C1  UNL     1      18.489  10.012  28.758  1.00  0.00     0.149 C
HETATM   50  C2  UNL     1      16.585  10.335  27.191  1.00  0.00     0.149 C
ENDBRANCH   1  48
TORSDOF 18
ENDMDL