MODEL 2
REMARK VINA RESULT: -8.526867982      1.169      1.452
REMARK  20 active torsions:
REMARK  status: ('A' for Active; 'I' for Inactive)
REMARK    1  A    between atoms: C2_2  and  N1_3
REMARK    2  A    between atoms: N1_3  and  C3_5
REMARK    3  A    between atoms: C3_5  and  O1_7
REMARK    4  A    between atoms: O1_7  and  C4_8
REMARK    5  A    between atoms: C4_8  and  C5_9
REMARK    6  A    between atoms: C5_9  and  C6_10
REMARK    7  A    between atoms: C6_10  and  C7_11
REMARK    8  A    between atoms: C7_11  and  C8_12
REMARK    9  A    between atoms: C8_12  and  C9_13
REMARK   10  A    between atoms: C9_13  and  C10_14
REMARK   11  A    between atoms: C12_16  and  C13_17
REMARK   12  A    between atoms: C16_22  and  O2_23
REMARK   13  A    between atoms: C17_25  and  C18_26
REMARK   14  A    between atoms: C18_26  and  C19_27
REMARK   15  A    between atoms: C23_38  and  C24_39
REMARK   16  A    between atoms: C24_39  and  C25_40
REMARK   17  A    between atoms: C25_40  and  C26_41
REMARK   18  A    between atoms: C26_41  and  C27_42
REMARK   19  A    between atoms: C27_42  and  C28_43
REMARK   20  A    between atoms: C28_43  and  C29_44
ROOT
HETATM    1  C10 UNL     1      22.820  12.552  23.998  1.00  0.00     0.102 C
HETATM    2  C11 UNL     1      21.578  12.168  24.594  1.00  0.00     0.012 C
HETATM    3  C12 UNL     1      20.544  12.818  25.305  1.00  0.00     0.011 C
HETATM    4  N2  UNL     1      19.330  12.354  25.115  1.00  0.00    -0.342 N
ATOM      5  H2  UNL     1      18.601  12.838  25.640  1.00  0.00     0.167 HD
HETATM    6  C16 UNL     1      18.872  11.301  24.309  1.00  0.00     0.139 C
HETATM    7  C17 UNL     1      19.272   9.873  24.333  1.00  0.00     0.165 C
HETATM    8  N5  UNL     1      19.355   9.258  23.019  1.00  0.00    -0.347 N
ATOM      9  H5  UNL     1      18.536   8.714  22.748  1.00  0.00     0.163 HD
HETATM   10  C22 UNL     1      20.374   9.292  22.074  1.00  0.00     0.241 C
HETATM   11  O3  UNL     1      20.139   8.935  20.890  1.00  0.00    -0.271 OA
HETATM   12  C23 UNL     1      21.802   9.738  22.334  1.00  0.00     0.176 C
HETATM   13  N6  UNL     1      22.015  11.109  21.965  1.00  0.00    -0.347 N
ATOM     14  H6  UNL     1      21.510  11.401  21.129  1.00  0.00     0.163 HD
HETATM   15  C30 UNL     1      22.794  12.118  22.548  1.00  0.00     0.226 C
HETATM   16  O6  UNL     1      23.611  12.803  21.819  1.00  0.00    -0.273 OA
ENDROOT
BRANCH   1  17
HETATM   17  C9  UNL     1      24.067  11.819  24.459  1.00  0.00     0.018 C
BRANCH  17  18
HETATM   18  C8  UNL     1      24.425  11.881  25.872  1.00  0.00     0.001 C
BRANCH  18  19
HETATM   19  C7  UNL     1      25.889  12.077  26.172  1.00  0.00     0.000 C
BRANCH  19  20
HETATM   20  C6  UNL     1      26.710  12.152  24.895  1.00  0.00     0.002 C
BRANCH  20  21
HETATM   21  C5  UNL     1      27.955  12.958  25.199  1.00  0.00     0.027 C
BRANCH  21  22
HETATM   22  C4  UNL     1      27.689  14.416  25.398  1.00  0.00     0.178 C
BRANCH  22  23
HETATM   23  O1  UNL     1      27.794  14.814  26.723  1.00  0.00    -0.327 OA
BRANCH  23  24
HETATM   24  C3  UNL     1      28.852  15.321  27.412  1.00  0.00     0.210 C
HETATM   25  S1  UNL     1      28.652  16.319  28.676  1.00  0.00    -0.033 SA
BRANCH  24  26
HETATM   26  N1  UNL     1      30.200  15.004  27.058  1.00  0.00    -0.362 N
ATOM     27  H1  UNL     1      30.615  15.382  26.207  1.00  0.00     0.162 HD
BRANCH  26  28
HETATM   28  C2  UNL     1      30.959  14.149  27.916  1.00  0.00     0.118 C
HETATM   29  C1  UNL     1      30.439  12.737  27.942  1.00  0.00     0.026 C
ENDBRANCH  26  28
ENDBRANCH  24  26
ENDBRANCH  23  24
ENDBRANCH  22  23
ENDBRANCH  21  22
ENDBRANCH  20  21
ENDBRANCH  19  20
ENDBRANCH  18  19
ENDBRANCH  17  18
ENDBRANCH   1  17
BRANCH   3  30
HETATM   30  C13 UNL     1      20.603  13.978  26.270  1.00  0.00     0.027 C
HETATM   31  C14 UNL     1      21.911  14.714  26.194  1.00  0.00     0.016 C
HETATM   32  C15 UNL     1      20.160  13.612  27.653  1.00  0.00     0.016 C
ENDBRANCH   3  30
BRANCH  12  33
HETATM   33  C24 UNL     1      22.661   8.801  21.463  1.00  0.00     0.035 C
BRANCH  33  34
HETATM   34  C25 UNL     1      23.838   9.486  20.861  1.00  0.00     0.002 C
BRANCH  34  35
HETATM   35  C26 UNL     1      24.056   8.963  19.460  1.00  0.00     0.001 C
BRANCH  35  36
HETATM   36  C27 UNL     1      25.236   8.052  19.406  1.00  0.00     0.010 C
BRANCH  36  37
HETATM   37  C28 UNL     1      24.844   6.840  18.547  1.00  0.00     0.113 C
BRANCH  37  38
HETATM   38  C29 UNL     1      23.915   5.981  19.287  1.00  0.00     0.172 C
HETATM   39  O4  UNL     1      24.178   5.673  20.475  1.00  0.00    -0.648 OA
HETATM   40  O5  UNL     1      22.747   5.486  18.736  1.00  0.00    -0.648 OA
ENDBRANCH  37  38
ENDBRANCH  36  37
ENDBRANCH  35  36
ENDBRANCH  34  35
ENDBRANCH  33  34
ENDBRANCH  12  33
BRANCH   6  41
HETATM   41  O2  UNL     1      17.975  11.494  23.386  1.00  0.00    -0.348 OA
ATOM     42  H2  UNL     1      17.064  11.261  23.524  1.00  0.00     0.219 HD
ENDBRANCH   6  41
BRANCH   7  43
HETATM   43  C18 UNL     1      18.322   9.069  25.239  1.00  0.00     0.092 C
BRANCH  43  44
HETATM   44  C19 UNL     1      18.043   9.673  26.525  1.00  0.00     0.028 A
HETATM   45  C20 UNL     1      16.835  10.169  27.008  1.00  0.00     0.114 A
HETATM   46  N3  UNL     1      17.048  10.640  28.251  1.00  0.00    -0.360 N
HETATM   47  C21 UNL     1      18.335  10.463  28.572  1.00  0.00     0.180 A
ATOM     48  H3  UNL     1      16.342  11.064  28.851  1.00  0.00     0.166 HD
HETATM   49  N4  UNL     1      18.917   9.881  27.524  1.00  0.00    -0.354 N
ATOM     50  H4  UNL     1      19.904   9.624  27.486  1.00  0.00     0.166 HD
ENDBRANCH  43  44
ENDBRANCH   7  43
TORSDOF 20
ENDMDL