MODEL 1
REMARK VINA RESULT: -8.941215253      0.000      0.000
REMARK  19 active torsions:
REMARK  status: ('A' for Active; 'I' for Inactive)
REMARK    1  A    between atoms: O1_2  and  C2_3
REMARK    2  A    between atoms: C6_7  and  O2_8
REMARK    3  A    between atoms: O2_8  and  C7_9
REMARK    4  A    between atoms: C7_9  and  C8_10
REMARK    5  A    between atoms: C8_10  and  O3_11
REMARK    6  A    between atoms: C8_10  and  C9_13
REMARK    7  A    between atoms: C9_13  and  N1_14
REMARK    8  A    between atoms: N1_14  and  C10_17
REMARK    9  A    between atoms: C10_17  and  C11_18
REMARK   10  A    between atoms: C11_18  and  N2_19
REMARK   11  A    between atoms: N2_19  and  C13_21
REMARK   12  A    between atoms: C13_21  and  C14_22
REMARK   13  A    between atoms: C14_22  and  C15_23
REMARK   14  A    between atoms: C15_23  and  C16_24
REMARK   15  A    between atoms: C23_35  and  N5_36
REMARK   16  A    between atoms: N5_36  and  C24_38
REMARK   17  A    between atoms: C24_38  and  C25_39
REMARK   18  A    between atoms: C25_39  and  N6_40
REMARK   19  A    between atoms: C28_48  and  C29_49
ROOT
HETATM    1  C13 UNL     1      24.034   7.699  20.453  1.00  0.00     0.272 C
ENDROOT
BRANCH   1   2
HETATM    2  N2  UNL     1      23.210   8.886  20.301  1.00  0.00     0.085 N
HETATM    3  C12 UNL     1      22.036   8.626  21.147  1.00  0.00     0.309 C
BRANCH   2   4
HETATM    4  C11 UNL     1      23.848  10.113  20.676  1.00  0.00     0.299 C
BRANCH   4   5
HETATM    5  C10 UNL     1      22.878  11.240  20.506  1.00  0.00     0.262 C
BRANCH   5   6
HETATM    6  N1  UNL     1      23.347  12.529  20.951  1.00  0.00    -0.071 N
ATOM      7  H12 UNL     1      22.600  13.222  20.902  1.00  0.00     0.277 HD
ATOM      8  H11 UNL     1      23.996  12.931  20.275  1.00  0.00     0.277 HD
BRANCH   6   9
HETATM    9  C9  UNL     1      23.928  12.505  22.256  1.00  0.00     0.266 C
BRANCH   9  10
HETATM   10  C8  UNL     1      23.049  12.928  23.375  1.00  0.00     0.168 C
BRANCH  10  11
HETATM   11  C7  UNL     1      21.844  12.037  23.633  1.00  0.00     0.209 C
BRANCH  11  12
HETATM   12  O2  UNL     1      21.075  12.691  24.580  1.00  0.00    -0.347 OA
BRANCH  12  13
HETATM   13  C6  UNL     1      20.317  12.313  25.623  1.00  0.00     0.082 A
HETATM   14  C4  UNL     1      19.153  11.588  25.336  1.00  0.00    -0.025 A
HETATM   15  C3  UNL     1      18.316  11.145  26.309  1.00  0.00     0.046 A
HETATM   16  C5  UNL     1      18.806  11.281  23.908  1.00  0.00     0.051 C
HETATM   17  C2  UNL     1      18.603  11.407  27.610  1.00  0.00     0.069 A
HETATM   18  C33 UNL     1      19.728  12.111  27.909  1.00  0.00     0.047 A
HETATM   19  C28 UNL     1      20.602  12.576  26.940  1.00  0.00    -0.014 A
BRANCH  17  20
HETATM   20  O1  UNL     1      17.772  10.973  28.661  1.00  0.00    -0.356 OA
HETATM   21  C1  UNL     1      17.408   9.626  28.744  1.00  0.00     0.210 C
ENDBRANCH  17  20
BRANCH  19  22
HETATM   22  C29 UNL     1      21.813  13.325  27.366  1.00  0.00    -0.021 C
HETATM   23  C30 UNL     1      23.040  12.448  27.057  1.00  0.00     0.019 C
HETATM   24  C31 UNL     1      22.009  14.618  26.612  1.00  0.00     0.019 C
HETATM   25  C32 UNL     1      21.873  13.515  28.875  1.00  0.00     0.019 C
ENDBRANCH  19  22
ENDBRANCH  12  13
ENDBRANCH  11  12
ENDBRANCH  10  11
BRANCH  10  26
HETATM   26  O3  UNL     1      22.702  14.262  23.185  1.00  0.00    -0.392 OA
ATOM     27  H3  UNL     1      22.715  14.518  22.270  1.00  0.00     0.210 HD
ENDBRANCH  10  26
ENDBRANCH   9  10
ENDBRANCH   6   9
ENDBRANCH   5   6
ENDBRANCH   4   5
ENDBRANCH   2   4
ENDBRANCH   1   2
BRANCH   1  28
HETATM   28  C14 UNL     1      24.673   7.368  19.148  1.00  0.00     0.036 C
BRANCH  28  29
HETATM   29  C15 UNL     1      23.723   7.588  18.005  1.00  0.00     0.060 C
BRANCH  29  30
HETATM   30  C16 UNL     1      22.958   6.374  17.733  1.00  0.00     0.025 A
HETATM   31  C17 UNL     1      23.379   5.385  16.891  1.00  0.00     0.114 A
HETATM   32  N3  UNL     1      22.590   4.290  16.709  1.00  0.00    -0.348 N
HETATM   33  C18 UNL     1      21.393   4.182  17.359  1.00  0.00     0.135 A
ATOM     34  H3  UNL     1      22.894   3.545  16.082  1.00  0.00     0.167 HD
HETATM   35  N4  UNL     1      20.608   3.114  17.196  1.00  0.00    -0.344 N
HETATM   36  C27 UNL     1      20.966   5.182  18.211  1.00  0.00     0.104 A
HETATM   37  C19 UNL     1      19.410   2.962  17.828  1.00  0.00     0.015 A
ATOM     38  H4  UNL     1      20.921   2.374  16.566  1.00  0.00     0.167 HD
HETATM   39  C20 UNL     1      18.561   1.750  17.620  1.00  0.00     0.069 C
HETATM   40  C21 UNL     1      18.954   3.938  18.684  1.00  0.00    -0.011 A
HETATM   41  C22 UNL     1      17.671   3.866  19.418  1.00  0.00     0.052 C
HETATM   42  C23 UNL     1      19.755   5.069  18.875  1.00  0.00     0.067 A
HETATM   43  N9  UNL     1      21.776   6.229  18.352  1.00  0.00    -0.354 N
ATOM     44  H9  UNL     1      21.476   6.976  18.977  1.00  0.00     0.166 HD
BRANCH  42  45
HETATM   45  N5  UNL     1      19.329   5.975  19.672  1.00  0.00    -0.386 N
ATOM     46  H5  UNL     1      19.413   5.764  20.667  1.00  0.00     0.159 HD
BRANCH  45  47
HETATM   47  C24 UNL     1      18.756   7.232  19.360  1.00  0.00     0.139 C
BRANCH  47  48
HETATM   48  C25 UNL     1      18.375   8.040  20.618  1.00  0.00     0.141 C
BRANCH  48  49
HETATM   49  N6  UNL     1      17.029   7.700  21.015  1.00  0.00    -0.365 N
HETATM   50  C26 UNL     1      16.593   7.639  22.206  1.00  0.00     0.197 C
HETATM   51  N7  UNL     1      17.427   7.912  23.303  1.00  0.00    -0.067 NA
HETATM   52  N8  UNL     1      15.241   7.275  22.403  1.00  0.00    -0.067 NA
ATOM     53  H6  UNL     1      16.367   7.489  20.269  1.00  0.00     0.161 HD
ENDBRANCH  48  49
ENDBRANCH  47  48
ENDBRANCH  45  47
ENDBRANCH  42  45
ENDBRANCH  29  30
ENDBRANCH  28  29
ENDBRANCH   1  28
TORSDOF 19
ENDMDL