MODEL 5
REMARK VINA RESULT: -8.006906232      4.674      8.223
REMARK  5 active torsions:
REMARK  status: ('A' for Active; 'I' for Inactive)
REMARK    1  A    between atoms: O1_2  and  C2_3
REMARK    2  A    between atoms: C2_3  and  C3_5
REMARK    3  A    between atoms: C5_11  and  N3_12
REMARK    4  A    between atoms: C6_17  and  N5_18
REMARK    5  A    between atoms: N5_18  and  C7_20
ROOT
HETATM    1  C3  UNL     1      87.634  67.327  16.749  1.00  0.00     0.227 A
HETATM    2  N1  UNL     1      88.428  68.319  16.309  1.00  0.00    -0.315 N
ATOM      3  H1  UNL     1      88.285  68.853  15.452  1.00  0.00     0.169 HD
HETATM    4  C4  UNL     1      89.438  68.496  17.175  1.00  0.00     0.161 A
HETATM    5  N2  UNL     1      90.501  69.297  17.280  1.00  0.00    -0.174 N
ATOM      6  H2  UNL     1      90.685  69.997  16.563  1.00  0.00     0.186 HD
HETATM    7  C5  UNL     1      91.335  69.179  18.342  1.00  0.00     0.679 A
HETATM    8  N4  UNL     1      91.137  68.278  19.310  1.00  0.00    -0.174 N
ATOM      9  H4  UNL     1      91.787  68.221  20.094  1.00  0.00     0.186 HD
HETATM   10  C6  UNL     1      90.091  67.453  19.253  1.00  0.00     0.160 A
HETATM   11  C9  UNL     1      89.221  67.561  18.165  1.00  0.00     0.167 A
HETATM   12  O3  UNL     1      88.138  66.881  17.881  1.00  0.00    -0.281 OA
ENDROOT
BRANCH  10  13
HETATM   13  N5  UNL     1      89.824  66.557  20.140  1.00  0.00    -0.324 N
ATOM     14  H5  UNL     1      88.874  66.492  20.505  1.00  0.00     0.169 HD
BRANCH  13  15
HETATM   15  C7  UNL     1      90.803  65.663  20.623  1.00  0.00     0.139 A
HETATM   16  C8  UNL     1      90.980  64.389  20.093  1.00  0.00     0.158 A
HETATM   17  N6  UNL     1      91.984  63.819  20.781  1.00  0.00    -0.294 N
HETATM   18  N7  UNL     1      92.396  64.690  21.677  1.00  0.00    -0.241 N
ATOM     19  H6  UNL     1      92.358  62.882  20.634  1.00  0.00     0.187 HD
HETATM   20  N8  UNL     1      91.706  65.814  21.611  1.00  0.00    -0.270 N
ATOM     21  H7  UNL     1      93.152  64.518  22.340  1.00  0.00     0.208 HD
ATOM     22  H8  UNL     1      91.833  66.639  22.197  1.00  0.00     0.190 HD
ENDBRANCH  13  15
ENDBRANCH  10  13
BRANCH   7  23
HETATM   23  N3  UNL     1      92.373  69.950  18.459  1.00  0.00    -0.234 N
ATOM     24  H32 UNL     1      93.288  69.501  18.436  1.00  0.00     0.174 HD
ATOM     25  H31 UNL     1      92.264  70.959  18.569  1.00  0.00     0.174 HD
ENDBRANCH   7  23
BRANCH   1  26
HETATM   26  C2  UNL     1      86.418  66.804  16.113  1.00  0.00     0.334 C
HETATM   27  O2  UNL     1      85.801  65.897  16.720  1.00  0.00    -0.255 OA
BRANCH  26  28
HETATM   28  O1  UNL     1      85.942  67.253  14.915  1.00  0.00    -0.320 OA
HETATM   29  C1  UNL     1      85.240  66.451  13.977  1.00  0.00     0.213 C
ENDBRANCH  26  28
ENDBRANCH   1  26
TORSDOF 5
ENDMDL