MODEL 4
REMARK VINA RESULT: -7.994817734      2.445      5.915
REMARK  6 active torsions:
REMARK  status: ('A' for Active; 'I' for Inactive)
REMARK    1  A    between atoms: N1_1  and  C1_5
REMARK    2  A    between atoms: C1_5  and  O1_6
REMARK    3  A    between atoms: C1_5  and  C2_8
REMARK       I    between atoms: C2_8  and  N2_10
REMARK       I    between atoms: N3_12  and  C3_14
REMARK    4  A    between atoms: C3_14  and  C4_16
REMARK    5  A    between atoms: C7_25  and  N6_26
REMARK    6  A    between atoms: N6_26  and  O6_28
ROOT
HETATM    1  C2  UNL     1      96.140  68.806  23.201  1.00  0.00     0.292 C
HETATM    2  O2  UNL     1      95.092  69.164  22.617  1.00  0.00    -0.267 OA
HETATM    3  N2  UNL     1      96.825  67.638  22.788  1.00  0.00    -0.263 N
ATOM      4  H2  UNL     1      97.832  67.707  22.644  1.00  0.00     0.190 HD
HETATM    5  N3  UNL     1      96.287  66.529  22.585  1.00  0.00    -0.262 N
ATOM      6  H3  UNL     1      96.858  65.738  22.289  1.00  0.00     0.190 HD
HETATM    7  C3  UNL     1      94.894  66.361  22.764  1.00  0.00     0.289 C
HETATM    8  O3  UNL     1      94.395  66.656  23.871  1.00  0.00    -0.264 OA
ENDROOT
BRANCH   7   9
HETATM    9  C4  UNL     1      94.093  65.855  21.665  1.00  0.00     0.140 A
HETATM   10  N4  UNL     1      93.511  66.653  20.754  1.00  0.00    -0.302 N
HETATM   11  C5  UNL     1      92.774  66.155  19.745  1.00  0.00     0.327 A
ATOM     12  H4  UNL     1      93.632  67.663  20.828  1.00  0.00     0.171 HD
HETATM   13  O4  UNL     1      92.260  66.973  18.928  1.00  0.00    -0.247 OA
HETATM   14  N5  UNL     1      92.601  64.827  19.626  1.00  0.00    -0.273 N
HETATM   15  C6  UNL     1      93.161  63.988  20.510  1.00  0.00     0.280 A
ATOM     16  H5  UNL     1      92.040  64.455  18.860  1.00  0.00     0.173 HD
HETATM   17  O5  UNL     1      93.022  62.739  20.433  1.00  0.00    -0.265 OA
HETATM   18  C7  UNL     1      93.921  64.470  21.553  1.00  0.00     0.154 A
BRANCH  18  19
HETATM   19  N6  UNL     1      94.538  63.633  22.519  1.00  0.00    -0.262 N
ATOM     20  H6  UNL     1      94.241  63.722  23.490  1.00  0.00     0.194 HD
BRANCH  19  21
HETATM   21  O6  UNL     1      95.410  62.804  22.252  1.00  0.00    -0.289 OA
ATOM     22  H6  UNL     1      95.626  62.067  22.811  1.00  0.00     0.244 HD
ENDBRANCH  19  21
ENDBRANCH  18  19
ENDBRANCH   7   9
BRANCH   1  23
HETATM   23  C1  UNL     1      96.668  69.610  24.334  1.00  0.00     0.411 C
BRANCH  23  24
HETATM   24  N1  UNL     1      95.764  70.645  24.744  1.00  0.00    -0.044 N
ATOM     25  H13 UNL     1      96.166  71.578  24.660  1.00  0.00     0.278 HD
ATOM     26  H12 UNL     1      94.988  70.773  24.094  1.00  0.00     0.278 HD
ATOM     27  H11 UNL     1      95.455  70.430  25.692  1.00  0.00     0.278 HD
ENDBRANCH  23  24
BRANCH  23  28
HETATM   28  O1  UNL     1      96.897  68.784  25.436  1.00  0.00    -0.363 OA
ATOM     29  H1  UNL     1      97.690  68.288  25.267  1.00  0.00     0.212 HD
ENDBRANCH  23  28
ENDBRANCH   1  23
TORSDOF 6
ENDMDL