MODEL 2
REMARK VINA RESULT: -7.040289007      2.249      3.707
REMARK  3 active torsions:
REMARK  status: ('A' for Active; 'I' for Inactive)
REMARK    1  A    between atoms: N1_2  and  C2_4
REMARK    2  A    between atoms: N4_10  and  N5_12
REMARK    3  A    between atoms: N5_12  and  N6_14
ROOT
HETATM    1  C2  UNL     1      89.858  65.112  18.882  1.00  0.00     0.689 C
HETATM    2  N2  UNL     1      90.447  64.462  19.829  1.00  0.00    -0.131 N
ATOM      3  H2  UNL     1      90.132  63.519  20.055  1.00  0.00     0.205 HD
HETATM    4  N3  UNL     1      91.502  65.016  20.550  1.00  0.00    -0.271 N
ATOM      5  H3  UNL     1      91.951  64.482  21.295  1.00  0.00     0.189 HD
HETATM    6  C3  UNL     1      91.949  66.329  20.243  1.00  0.00     0.149 C
HETATM    7  N4  UNL     1      92.682  66.966  21.084  1.00  0.00    -0.266 N
ATOM      8  H4  UNL     1      93.004  67.909  20.863  1.00  0.00     0.190 HD
HETATM    9  C4  UNL     1      91.550  66.915  18.956  1.00  0.00     0.168 C
HETATM   10  C5  UNL     1      91.547  68.447  19.010  1.00  0.00     0.048 C
HETATM   11  C6  UNL     1      91.785  68.913  17.599  1.00  0.00     0.011 C
HETATM   12  C7  UNL     1      92.288  67.700  16.842  1.00  0.00     0.081 C
HETATM   13  C8  UNL     1      92.537  66.673  17.879  1.00  0.00     0.163 C
HETATM   14  O3  UNL     1      93.379  65.793  17.870  1.00  0.00    -0.295 OA
HETATM   15  N7  UNL     1      90.257  66.442  18.520  1.00  0.00    -0.202 N
ATOM     16  H7  UNL     1      89.642  67.040  17.968  1.00  0.00     0.179 HD
ENDROOT
BRANCH   7  17
HETATM   17  N5  UNL     1      93.044  66.377  22.301  1.00  0.00    -0.181 N
ATOM     18  H5  UNL     1      92.313  66.145  22.974  1.00  0.00     0.214 HD
BRANCH  17  19
HETATM   19  N6  UNL     1      94.368  66.097  22.623  1.00  0.00    -0.024 N
HETATM   20  O1  UNL     1      94.702  66.179  23.825  1.00  0.00    -0.515 OA
HETATM   21  O2  UNL     1      95.301  65.740  21.681  1.00  0.00    -0.515 OA
ENDBRANCH  17  19
ENDBRANCH   7  17
BRANCH   1  22
HETATM   22  N1  UNL     1      88.780  64.545  18.146  1.00  0.00    -0.229 N
HETATM   23  C1  UNL     1      87.762  65.323  17.485  1.00  0.00     0.165 C
ATOM     24  H1  UNL     1      88.724  63.529  18.083  1.00  0.00     0.177 HD
ENDBRANCH   1  22
TORSDOF 3
ENDMDL