MODEL 5
REMARK VINA RESULT: -7.050386633      1.828      2.221
REMARK  4 active torsions:
REMARK  status: ('A' for Active; 'I' for Inactive)
REMARK    1  A    between atoms: O1_2  and  C2_3
REMARK    2  A    between atoms: C8_10  and  O2_11
REMARK    3  A    between atoms: N3_19  and  O5_20
REMARK    4  A    between atoms: O5_20  and  N4_21
ROOT
HETATM    1  C2  UNL     1      92.056  65.197  20.352  1.00  0.00     0.103 A
HETATM    2  C3  UNL     1      90.867  64.619  19.981  1.00  0.00     0.064 A
HETATM    3  C4  UNL     1      89.974  65.197  19.075  1.00  0.00     0.077 A
HETATM    4  C5  UNL     1      88.749  64.517  18.746  1.00  0.00     0.102 C
HETATM    5  N1  UNL     1      87.758  63.935  18.500  1.00  0.00    -0.191 NA
HETATM    6  C6  UNL     1      90.297  66.388  18.533  1.00  0.00     0.109 A
HETATM    7  C7  UNL     1      91.485  66.997  18.883  1.00  0.00     0.099 A
HETATM    8  C8  UNL     1      92.344  66.412  19.773  1.00  0.00     0.117 A
HETATM    9  C9  UNL     1      91.837  68.220  18.340  1.00  0.00     0.265 A
HETATM   10  O3  UNL     1      92.937  68.777  18.668  1.00  0.00    -0.267 OA
HETATM   11  N2  UNL     1      90.992  68.779  17.475  1.00  0.00    -0.273 N
ATOM     12  H2  UNL     1      91.221  69.680  17.056  1.00  0.00     0.173 HD
HETATM   13  C10 UNL     1      89.849  68.171  17.152  1.00  0.00     0.356 A
HETATM   14  O4  UNL     1      89.103  68.781  16.315  1.00  0.00    -0.244 OA
HETATM   15  N3  UNL     1      89.477  66.982  17.662  1.00  0.00    -0.143 N
ENDROOT
BRANCH   1  16
HETATM   16  O1  UNL     1      92.880  64.578  21.242  1.00  0.00    -0.353 OA
HETATM   17  C1  UNL     1      93.806  63.580  20.971  1.00  0.00     0.210 C
ENDBRANCH   1  16
BRANCH  15  18
HETATM   18  O5  UNL     1      88.296  66.485  17.247  1.00  0.00    -0.152 OA
BRANCH  18  19
HETATM   19  N4  UNL     1      87.083  66.994  17.601  1.00  0.00    -0.285 N
ATOM     20  H42 UNL     1      87.079  67.713  18.325  1.00  0.00     0.186 HD
ATOM     21  H41 UNL     1      86.196  66.702  17.191  1.00  0.00     0.186 HD
ENDBRANCH  18  19
ENDBRANCH  15  18
BRANCH   8  22
HETATM   22  O2  UNL     1      93.525  67.053  20.099  1.00  0.00    -0.357 OA
ATOM     23  H2  UNL     1      93.662  67.948  19.812  1.00  0.00     0.217 HD
ENDBRANCH   8  22
TORSDOF 4
ENDMDL