MODEL 5
REMARK VINA RESULT: -6.689789968      1.608      4.332
REMARK  2 active torsions:
REMARK  status: ('A' for Active; 'I' for Inactive)
REMARK    1  A    between atoms: N1_1  and  C1_5
REMARK    2  A    between atoms: C3_9  and  N3_10
ROOT
HETATM    1  C1  UNL     1      90.499  69.327  16.907  1.00  0.00     0.368 C
HETATM    2  N2  UNL     1      89.462  68.325  17.124  1.00  0.00    -0.349 N
ATOM      3  H2  UNL     1      88.547  68.484  16.702  1.00  0.00     0.162 HD
HETATM    4  C2  UNL     1      89.647  67.151  17.879  1.00  0.00     0.101 A
HETATM    5  C3  UNL     1      88.616  66.225  17.872  1.00  0.00     0.199 A
HETATM    6  C4  UNL     1      88.780  65.059  18.617  1.00  0.00     0.281 A
HETATM    7  O3  UNL     1      87.865  64.182  18.643  1.00  0.00    -0.265 OA
HETATM    8  N4  UNL     1      89.886  64.799  19.334  1.00  0.00    -0.315 N
ATOM      9  H4  UNL     1      89.958  63.930  19.863  1.00  0.00     0.169 HD
HETATM   10  C5  UNL     1      90.898  65.684  19.353  1.00  0.00     0.137 A
HETATM   11  C6  UNL     1      92.136  65.741  19.959  1.00  0.00     0.290 A
HETATM   12  O4  UNL     1      92.591  64.840  20.704  1.00  0.00    -0.264 OA
HETATM   13  N5  UNL     1      92.679  66.905  19.582  1.00  0.00    -0.251 N
ATOM     14  H5  UNL     1      93.599  67.241  19.867  1.00  0.00     0.191 HD
HETATM   15  N6  UNL     1      91.834  67.564  18.772  1.00  0.00    -0.218 N
HETATM   16  C7  UNL     1      90.747  66.835  18.623  1.00  0.00     0.125 A
HETATM   17  S1  UNL     1      91.932  69.120  17.945  1.00  0.00     0.025 SA
ENDROOT
BRANCH   1  18
HETATM   18  N1  UNL     1      90.901  69.277  15.500  1.00  0.00    -0.048 N
ATOM     19  H13 UNL     1      90.174  69.619  14.872  1.00  0.00     0.277 HD
ATOM     20  H12 UNL     1      91.616  69.967  15.272  1.00  0.00     0.277 HD
ATOM     21  H11 UNL     1      91.191  68.324  15.282  1.00  0.00     0.277 HD
ENDBRANCH   1  18
BRANCH   5  22
HETATM   22  N3  UNL     1      87.415  66.429  17.136  1.00  0.00    -0.107 N
HETATM   23  O1  UNL     1      87.413  65.976  15.964  1.00  0.00    -0.531 OA
HETATM   24  O2  UNL     1      86.355  67.085  17.684  1.00  0.00    -0.531 OA
ENDBRANCH   5  22
TORSDOF 2
ENDMDL