MODEL 3
REMARK VINA RESULT: -8.707465069      3.137      6.964
REMARK  2 active torsions:
REMARK  status: ('A' for Active; 'I' for Inactive)
REMARK    1  A    between atoms: C5_11  and  C6_12
REMARK    2  A    between atoms: C7_17  and  C8_18
ROOT
HETATM    1  C6  UNL     1      92.259  66.783  20.022  1.00  0.00     0.182 A
HETATM    2  N3  UNL     1      90.981  67.029  20.292  1.00  0.00    -0.277 N
ATOM      3  H3  UNL     1      90.398  66.517  20.953  1.00  0.00     0.189 HD
HETATM    4  N4  UNL     1      90.603  68.050  19.556  1.00  0.00    -0.274 N
ATOM      5  H4  UNL     1      89.670  68.462  19.556  1.00  0.00     0.189 HD
HETATM    6  C7  UNL     1      91.634  68.468  18.807  1.00  0.00     0.212 A
HETATM    7  O3  UNL     1      92.618  67.668  19.124  1.00  0.00    -0.269 OA
ENDROOT
BRANCH   1   8
HETATM    8  C5  UNL     1      93.122  65.729  20.603  1.00  0.00     0.107 A
HETATM    9  C2  UNL     1      93.387  64.568  19.943  1.00  0.00     0.030 A
HETATM   10  C1  UNL     1      92.825  64.288  18.596  1.00  0.00     0.069 C
HETATM   11  N1  UNL     1      94.190  63.674  20.573  1.00  0.00    -0.312 N
HETATM   12  C3  UNL     1      94.714  63.900  21.792  1.00  0.00     0.327 A
ATOM     13  H1  UNL     1      94.405  62.795  20.103  1.00  0.00     0.170 HD
HETATM   14  O1  UNL     1      95.460  63.000  22.308  1.00  0.00    -0.247 OA
HETATM   15  N2  UNL     1      94.463  65.030  22.450  1.00  0.00    -0.275 N
HETATM   16  C4  UNL     1      93.667  65.938  21.848  1.00  0.00     0.265 A
ATOM     17  H2  UNL     1      94.858  65.204  23.374  1.00  0.00     0.173 HD
HETATM   18  O2  UNL     1      93.447  66.999  22.492  1.00  0.00    -0.267 OA
ENDBRANCH   1   8
BRANCH   6  19
HETATM   19  C8  UNL     1      91.618  69.576  17.858  1.00  0.00     0.191 A
HETATM   20  N5  UNL     1      92.585  70.481  17.694  1.00  0.00    -0.265 N
HETATM   21  N6  UNL     1      92.204  71.310  16.753  1.00  0.00    -0.226 N
ATOM     22  H5  UNL     1      93.464  70.520  18.209  1.00  0.00     0.190 HD
HETATM   23  N7  UNL     1      91.014  70.987  16.285  1.00  0.00    -0.226 N
ATOM     24  H6  UNL     1      92.756  72.102  16.426  1.00  0.00     0.210 HD
HETATM   25  N8  UNL     1      90.657  69.908  16.976  1.00  0.00    -0.265 N
ATOM     26  H7  UNL     1      90.484  71.461  15.553  1.00  0.00     0.210 HD
ATOM     27  H8  UNL     1      89.778  69.405  16.856  1.00  0.00     0.190 HD
ENDBRANCH   6  19
TORSDOF 2
ENDMDL