MODEL 2
REMARK VINA RESULT: -7.458844812      2.628      3.792
REMARK  5 active torsions:
REMARK  status: ('A' for Active; 'I' for Inactive)
REMARK       I    between atoms: C2_2  and  N1_4
REMARK    1  A    between atoms: N1_4  and  N2_6
REMARK    2  A    between atoms: N2_6  and  C3_8
REMARK    3  A    between atoms: C3_8  and  O2_9
REMARK    4  A    between atoms: C3_8  and  C4_11
REMARK    5  A    between atoms: C5_14  and  N4_15
ROOT
HETATM    1  C4  UNL     1      90.607  67.641  18.494  1.00  0.00     0.094 A
HETATM    2  N3  UNL     1      90.626  66.775  19.574  1.00  0.00    -0.332 N
ATOM      3  H3  UNL     1      89.801  66.725  20.171  1.00  0.00     0.168 HD
HETATM    4  C5  UNL     1      91.670  66.005  19.870  1.00  0.00     0.200 A
HETATM    5  C6  UNL     1      92.776  66.086  19.053  1.00  0.00     0.121 A
HETATM    6  N5  UNL     1      93.902  65.267  19.353  1.00  0.00    -0.096 NA
HETATM    7  C7  UNL     1      92.839  66.916  17.968  1.00  0.00     0.082 A
HETATM    8  N6  UNL     1      93.962  67.030  17.102  1.00  0.00    -0.100 NA
HETATM    9  C8  UNL     1      91.705  67.717  17.692  1.00  0.00    -0.005 A
HETATM   10  C9  UNL     1      91.786  68.658  16.557  1.00  0.00     0.052 C
ENDROOT
BRANCH   1  11
HETATM   11  C3  UNL     1      89.428  68.455  18.284  1.00  0.00     0.183 C
BRANCH  11  12
HETATM   12  N2  UNL     1      88.351  68.298  17.441  1.00  0.00    -0.276 N
ATOM     13  H2  UNL     1      87.592  68.979  17.475  1.00  0.00     0.189 HD
BRANCH  12  14
HETATM   14  N1  UNL     1      88.268  67.235  16.543  1.00  0.00    -0.268 N
HETATM   15  C2  UNL     1      87.204  66.311  16.520  1.00  0.00     0.232 C
HETATM   16  C1  UNL     1      87.048  65.180  15.617  1.00  0.00     0.119 C
HETATM   17  O1  UNL     1      86.289  66.510  17.399  1.00  0.00    -0.272 OA
ATOM     18  H1  UNL     1      89.020  67.120  15.864  1.00  0.00     0.190 HD
ENDBRANCH  12  14
ENDBRANCH  11  12
BRANCH  11  19
HETATM   19  O2  UNL     1      89.415  69.523  19.054  1.00  0.00    -0.344 OA
ATOM     20  H2  UNL     1      88.769  70.187  18.843  1.00  0.00     0.219 HD
ENDBRANCH  11  19
ENDBRANCH   1  11
BRANCH   4  21
HETATM   21  N4  UNL     1      91.678  65.111  20.994  1.00  0.00    -0.096 N
HETATM   22  O3  UNL     1      91.130  63.974  20.914  1.00  0.00    -0.530 OA
HETATM   23  O4  UNL     1      92.266  65.415  22.193  1.00  0.00    -0.530 OA
ENDBRANCH   4  21
TORSDOF 5
ENDMDL