MODEL 3
REMARK VINA RESULT: -7.653310478      2.479      6.428
REMARK  6 active torsions:
REMARK  status: ('A' for Active; 'I' for Inactive)
REMARK    1  A    between atoms: C2_2  and  O1_4
REMARK    2  A    between atoms: C2_2  and  O2_6
REMARK    3  A    between atoms: O2_6  and  C4_7
REMARK       I    between atoms: C4_7  and  N1_9
REMARK    4  A    between atoms: N1_9  and  C5_11
REMARK    5  A    between atoms: C6_14  and  N3_15
REMARK    6  A    between atoms: C7_20  and  N5_21
ROOT
HETATM    1  C5  UNL     1      90.987  66.104  19.882  1.00  0.00     0.704 A
HETATM    2  N2  UNL     1      90.059  65.312  19.321  1.00  0.00    -0.154 N
ATOM      3  H2  UNL     1      90.100  64.302  19.458  1.00  0.00     0.187 HD
HETATM    4  C6  UNL     1      89.076  65.850  18.580  1.00  0.00     0.278 A
HETATM    5  N4  UNL     1      89.068  67.201  18.428  1.00  0.00    -0.155 N
ATOM      6  H4  UNL     1      88.333  67.635  17.869  1.00  0.00     0.187 HD
HETATM    7  C7  UNL     1      90.007  67.979  18.997  1.00  0.00     0.693 A
HETATM    8  N6  UNL     1      91.000  67.439  19.746  1.00  0.00    -0.022 N
ATOM      9  H6  UNL     1      91.717  68.017  20.183  1.00  0.00     0.203 HD
ENDROOT
BRANCH   1  10
HETATM   10  N1  UNL     1      91.898  65.518  20.580  1.00  0.00    -0.134 N
HETATM   11  C4  UNL     1      93.266  65.640  20.209  1.00  0.00     0.381 C
HETATM   12  O3  UNL     1      93.741  65.048  19.184  1.00  0.00    -0.237 OA
ATOM     13  H1  UNL     1      91.639  64.967  21.398  1.00  0.00     0.189 HD
BRANCH  11  14
HETATM   14  O2  UNL     1      94.149  66.405  20.936  1.00  0.00    -0.266 OA
BRANCH  14  15
HETATM   15  C2  UNL     1      94.267  66.366  22.345  1.00  0.00     0.165 C
HETATM   16  C1  UNL     1      95.374  67.311  22.759  1.00  0.00     0.079 C
HETATM   17  C3  UNL     1      94.618  64.928  22.712  1.00  0.00     0.079 C
BRANCH  15  18
HETATM   18  O1  UNL     1      93.080  66.749  22.943  1.00  0.00    -0.365 OA
ATOM     19  H1  UNL     1      93.169  66.708  23.888  1.00  0.00     0.213 HD
ENDBRANCH  15  18
ENDBRANCH  14  15
ENDBRANCH  11  14
ENDBRANCH   1  10
BRANCH   4  20
HETATM   20  N3  UNL     1      88.104  65.019  17.993  1.00  0.00    -0.078 N
HETATM   21  O4  UNL     1      87.772  63.970  18.551  1.00  0.00    -0.529 OA
HETATM   22  O5  UNL     1      87.532  65.377  16.808  1.00  0.00    -0.529 OA
ENDBRANCH   4  20
BRANCH   7  23
HETATM   23  N5  UNL     1      90.001  69.268  18.853  1.00  0.00    -0.234 N
ATOM     24  H52 UNL     1      89.093  69.733  18.828  1.00  0.00     0.174 HD
ATOM     25  H51 UNL     1      90.866  69.801  18.767  1.00  0.00     0.174 HD
ENDBRANCH   7  23
TORSDOF 6
ENDMDL