MODEL 1
REMARK VINA RESULT: -7.746783619      0.000      0.000
REMARK  5 active torsions:
REMARK  status: ('A' for Active; 'I' for Inactive)
REMARK    1  A    between atoms: N1_1  and  C1_4
REMARK    2  A    between atoms: C2_7  and  N3_8
REMARK    3  A    between atoms: N4_11  and  N5_12
REMARK    4  A    between atoms: N5_12  and  O1_14
REMARK    5  A    between atoms: C7_19  and  O3_20
ROOT
HETATM    1  C1  UNL     1      88.266  64.785  18.201  1.00  0.00     0.679 A
HETATM    2  N2  UNL     1      89.450  64.505  18.744  1.00  0.00    -0.175 N
ATOM      3  H2  UNL     1      89.696  63.544  18.982  1.00  0.00     0.186 HD
HETATM    4  C2  UNL     1      90.330  65.528  18.978  1.00  0.00     0.145 A
HETATM    5  C6  UNL     1      89.980  66.832  18.646  1.00  0.00     0.107 A
HETATM    6  C7  UNL     1      90.612  68.045  18.743  1.00  0.00     0.173 A
HETATM    7  N6  UNL     1      89.761  68.974  18.252  1.00  0.00    -0.278 N
ATOM      8  H6  UNL     1      89.958  69.973  18.195  1.00  0.00     0.189 HD
HETATM    9  N7  UNL     1      88.642  68.402  17.857  1.00  0.00    -0.282 N
ATOM     10  H7  UNL     1      87.841  68.884  17.448  1.00  0.00     0.188 HD
HETATM   11  C8  UNL     1      88.729  67.061  18.083  1.00  0.00     0.154 A
HETATM   12  N8  UNL     1      87.891  66.037  17.869  1.00  0.00    -0.174 N
ATOM     13  H8  UNL     1      86.973  66.203  17.457  1.00  0.00     0.186 HD
ENDROOT
BRANCH   4  14
HETATM   14  N3  UNL     1      91.590  65.247  19.564  1.00  0.00    -0.281 N
HETATM   15  C3  UNL     1      92.812  64.989  18.822  1.00  0.00     0.157 C
HETATM   16  C4  UNL     1      93.896  64.809  19.871  1.00  0.00     0.176 C
HETATM   17  N4  UNL     1      93.279  65.191  21.113  1.00  0.00    -0.221 N
HETATM   18  C5  UNL     1      91.858  65.155  20.950  1.00  0.00     0.346 C
HETATM   19  O2  UNL     1      91.025  65.056  21.917  1.00  0.00    -0.245 OA
BRANCH  17  20
HETATM   20  N5  UNL     1      93.961  65.533  22.277  1.00  0.00    -0.204 N
ATOM     21  H5  UNL     1      94.816  65.024  22.508  1.00  0.00     0.216 HD
BRANCH  20  22
HETATM   22  O1  UNL     1      93.574  66.436  23.056  1.00  0.00    -0.274 OA
ATOM     23  H1  UNL     1      93.119  66.257  23.871  1.00  0.00     0.246 HD
ENDBRANCH  20  22
ENDBRANCH  17  20
ENDBRANCH   4  14
BRANCH   1  24
HETATM   24  N1  UNL     1      87.397  63.828  17.960  1.00  0.00    -0.234 N
ATOM     25  H12 UNL     1      87.352  63.070  18.642  1.00  0.00     0.174 HD
ATOM     26  H11 UNL     1      86.808  63.860  17.129  1.00  0.00     0.174 HD
ENDBRANCH   1  24
BRANCH   6  27
HETATM   27  O3  UNL     1      91.884  68.240  19.255  1.00  0.00    -0.344 OA
ATOM     28  H3  UNL     1      92.243  67.786  20.009  1.00  0.00     0.219 HD
ENDBRANCH   6  27
TORSDOF 5
ENDMDL