MODEL 3
REMARK VINA RESULT: -8.090819124      1.532      2.576
REMARK  3 active torsions:
REMARK  status: ('A' for Active; 'I' for Inactive)
REMARK    1  A    between atoms: C3_3  and  C4_4
REMARK    2  A    between atoms: C4_4  and  O1_6
REMARK    3  A    between atoms: C7_17  and  N5_18
ROOT
HETATM    1  C1  UNL     1      89.993  68.551  17.776  1.00  0.00     0.055 C
HETATM    2  C2  UNL     1      89.407  67.175  17.944  1.00  0.00     0.015 A
HETATM    3  C3  UNL     1      88.138  66.960  17.442  1.00  0.00     0.087 A
HETATM    4  N1  UNL     1      87.601  65.743  17.708  1.00  0.00    -0.187 N
ATOM      5  H1  UNL     1      86.664  65.533  17.363  1.00  0.00     0.184 HD
HETATM    6  C6  UNL     1      88.274  64.783  18.424  1.00  0.00     0.700 A
HETATM    7  N2  UNL     1      87.761  63.620  18.601  1.00  0.00    -0.233 N
ATOM      8  H21 UNL     1      88.260  62.907  19.133  1.00  0.00     0.174 HD
ATOM      9  H22 UNL     1      86.825  63.430  18.243  1.00  0.00     0.174 HD
HETATM   10  N3  UNL     1      89.508  65.033  18.896  1.00  0.00    -0.055 N
HETATM   11  N4  UNL     1      90.372  64.348  19.615  1.00  0.00    -0.109 N
ATOM     12  H4  UNL     1      90.217  63.395  19.942  1.00  0.00     0.207 HD
HETATM   13  C7  UNL     1      91.465  65.049  19.860  1.00  0.00     0.699 A
HETATM   14  N7  UNL     1      91.273  66.267  19.248  1.00  0.00    -0.172 N
ATOM     15  H7  UNL     1      91.922  67.055  19.242  1.00  0.00     0.186 HD
HETATM   16  C11 UNL     1      90.074  66.221  18.661  1.00  0.00     0.169 A
ENDROOT
BRANCH  13  17
HETATM   17  N5  UNL     1      92.664  64.751  20.603  1.00  0.00    -0.190 N
HETATM   18  C8  UNL     1      93.470  65.630  21.400  1.00  0.00     0.170 C
HETATM   19  C9  UNL     1      94.131  64.661  22.377  1.00  0.00     0.254 C
HETATM   20  N6  UNL     1      94.279  63.480  21.592  1.00  0.00    -0.057 N
HETATM   21  C10 UNL     1      93.255  63.444  20.602  1.00  0.00     0.374 C
ATOM     22  H62 UNL     1      95.212  63.398  21.188  1.00  0.00     0.279 HD
ATOM     23  H61 UNL     1      94.295  62.635  22.164  1.00  0.00     0.279 HD
ENDBRANCH  13  17
BRANCH   3  24
HETATM   24  C4  UNL     1      87.511  67.891  16.507  1.00  0.00     0.067 C
HETATM   25  C5  UNL     1      87.523  67.488  15.037  1.00  0.00     0.078 C
BRANCH  24  26
HETATM   26  O1  UNL     1      86.478  68.688  16.929  1.00  0.00    -0.363 OA
ATOM     27  H1  UNL     1      85.742  68.852  16.352  1.00  0.00     0.217 HD
ENDBRANCH  24  26
ENDBRANCH   3  24
TORSDOF 3
ENDMDL