MODEL 3
REMARK VINA RESULT: -8.678388677      2.054      4.197
REMARK  15 active torsions:
REMARK  status: ('A' for Active; 'I' for Inactive)
REMARK    1  A    between atoms: O1_2  and  C2_3
REMARK       I    between atoms: C2_3  and  N1_5
REMARK    2  A    between atoms: N1_5  and  C3_7
REMARK    3  A    between atoms: C3_7  and  C5_9
REMARK    4  A    between atoms: C3_7  and  C15_25
REMARK    5  A    between atoms: C5_9  and  O3_10
REMARK    6  A    between atoms: C5_9  and  N2_12
REMARK    7  A    between atoms: C9_16  and  C10_17
REMARK       I    between atoms: C10_17  and  N3_19
REMARK    8  A    between atoms: N3_19  and  C11_21
REMARK    9  A    between atoms: C15_25  and  N4_27
REMARK   10  A    between atoms: N4_27  and  C17_29
REMARK   11  A    between atoms: C17_29  and  C18_30
REMARK   12  A    between atoms: C17_29  and  C22_34
REMARK   13  A    between atoms: C18_30  and  C19_31
REMARK       I    between atoms: C22_34  and  N5_36
REMARK   14  A    between atoms: N5_36  and  C23_38
REMARK   15  A    between atoms: C23_38  and  C26_41
ROOT
HETATM    1  C3  UNL     1      -9.939  15.429  27.252  1.00  0.00     0.116 C
HETATM    2  C4  UNL     1     -10.509  16.277  26.188  1.00  0.00     0.050 C
ENDROOT
BRANCH   1   3
HETATM    3  N1  UNL     1     -10.489  14.049  27.135  1.00  0.00    -0.318 N
HETATM    4  C2  UNL     1     -11.820  13.745  27.545  1.00  0.00     0.361 C
HETATM    5  O2  UNL     1     -12.544  14.648  28.004  1.00  0.00    -0.238 OA
ATOM      6  H1  UNL     1      -9.902  13.307  26.755  1.00  0.00     0.166 HD
BRANCH   4   7
HETATM    7  O1  UNL     1     -12.329  12.463  27.446  1.00  0.00    -0.309 OA
HETATM    8  C1  UNL     1     -13.685  12.222  27.110  1.00  0.00     0.215 C
ENDBRANCH   4   7
ENDBRANCH   1   3
BRANCH   1   9
HETATM    9  C5  UNL     1      -8.509  15.307  27.291  1.00  0.00     0.145 C
BRANCH   9  10
HETATM   10  O3  UNL     1      -8.086  14.102  27.556  1.00  0.00    -0.347 OA
ATOM     11  H3  UNL     1      -7.728  14.003  28.430  1.00  0.00     0.219 HD
ENDBRANCH   9  10
BRANCH   9  12
HETATM   12  N2  UNL     1      -7.462  16.233  27.101  1.00  0.00    -0.350 N
HETATM   13  C6  UNL     1      -6.894  17.036  28.201  1.00  0.00     0.126 C
HETATM   14  C7  UNL     1      -5.972  18.077  27.536  1.00  0.00     0.022 C
HETATM   15  C8  UNL     1      -6.485  18.090  26.127  1.00  0.00     0.037 C
HETATM   16  C9  UNL     1      -6.686  16.553  25.955  1.00  0.00     0.178 C
BRANCH  16  17
HETATM   17  C10 UNL     1      -7.182  16.345  24.610  1.00  0.00     0.241 C
HETATM   18  O4  UNL     1      -7.776  15.316  24.252  1.00  0.00    -0.271 OA
HETATM   19  N3  UNL     1      -7.022  17.336  23.572  1.00  0.00    -0.351 N
ATOM     20  H3  UNL     1      -6.542  18.202  23.816  1.00  0.00     0.163 HD
BRANCH  19  21
HETATM   21  C11 UNL     1      -7.484  17.194  22.233  1.00  0.00     0.022 C
HETATM   22  C12 UNL     1      -8.964  16.950  22.090  1.00  0.00     0.037 C
HETATM   23  C13 UNL     1      -6.752  16.044  21.568  1.00  0.00     0.037 C
HETATM   24  C14 UNL     1      -7.073  18.460  21.468  1.00  0.00     0.037 C
ENDBRANCH  19  21
ENDBRANCH  16  17
ENDBRANCH   9  12
ENDBRANCH   1   9
BRANCH   1  25
HETATM   25  C15 UNL     1     -10.475  15.922  28.665  1.00  0.00     0.113 C
HETATM   26  C16 UNL     1     -10.506  17.397  28.702  1.00  0.00     0.035 C
BRANCH  25  27
HETATM   27  N4  UNL     1      -9.807  15.222  29.646  1.00  0.00    -0.382 N
ATOM     28  H4  UNL     1      -9.009  14.647  29.378  1.00  0.00     0.160 HD
BRANCH  27  29
HETATM   29  C17 UNL     1     -10.196  15.271  31.045  1.00  0.00     0.074 C
BRANCH  29  30
HETATM   30  C18 UNL     1      -9.097  14.837  31.924  1.00  0.00     0.066 C
BRANCH  30  31
HETATM   31  C19 UNL     1      -8.770  15.580  33.164  1.00  0.00    -0.017 C
HETATM   32  C20 UNL     1      -8.576  17.053  33.026  1.00  0.00     0.010 C
HETATM   33  C21 UNL     1      -9.642  15.240  34.359  1.00  0.00     0.010 C
ENDBRANCH  30  31
ENDBRANCH  29  30
BRANCH  29  34
HETATM   34  C22 UNL     1     -11.575  14.849  31.321  1.00  0.00     0.264 C
HETATM   35  O5  UNL     1     -12.465  15.614  31.771  1.00  0.00    -0.266 OA
HETATM   36  N5  UNL     1     -11.997  13.504  31.101  1.00  0.00    -0.347 N
ATOM     37  H5  UNL     1     -11.295  12.868  30.722  1.00  0.00     0.163 HD
BRANCH  36  38
HETATM   38  C23 UNL     1     -13.297  12.942  31.351  1.00  0.00     0.029 C
HETATM   39  C24 UNL     1     -14.428  13.617  30.630  1.00  0.00     0.038 C
HETATM   40  C25 UNL     1     -13.294  11.497  30.703  1.00  0.00     0.038 C
BRANCH  38  41
HETATM   41  C26 UNL     1     -13.583  12.674  32.781  1.00  0.00     0.013 C
HETATM   42  C27 UNL     1     -13.936  11.177  32.942  1.00  0.00     0.007 C
HETATM   43  C28 UNL     1     -14.458  10.903  34.317  1.00  0.00     0.000 C
HETATM   44  C29 UNL     1     -14.417  12.085  35.222  1.00  0.00     0.000 C
HETATM   45  C30 UNL     1     -13.127  12.829  35.185  1.00  0.00     0.000 C
HETATM   46  C31 UNL     1     -12.543  12.978  33.786  1.00  0.00     0.007 C
ENDBRANCH  38  41
ENDBRANCH  36  38
ENDBRANCH  29  34
ENDBRANCH  27  29
ENDBRANCH  25  27
ENDBRANCH   1  25
TORSDOF 15
ENDMDL