MODEL 2
REMARK VINA RESULT: -8.575154561      0.070      1.205
REMARK  13 active torsions:
REMARK  status: ('A' for Active; 'I' for Inactive)
REMARK    1  A    between atoms: C2_2  and  C3_3
REMARK    2  A    between atoms: C3_3  and  N1_4
REMARK    3  A    between atoms: N1_4  and  C4_6
REMARK    4  A    between atoms: C4_6  and  N2_8
REMARK    5  A    between atoms: N2_8  and  C5_10
REMARK    6  A    between atoms: C5_10  and  C6_11
REMARK    7  A    between atoms: C5_10  and  C10_15
REMARK    8  A    between atoms: C6_11  and  C7_12
REMARK    9  A    between atoms: C10_15  and  C11_17
REMARK   10  A    between atoms: C11_17  and  C12_18
REMARK   11  A    between atoms: C13_19  and  O2_20
REMARK   12  A    between atoms: C15_23  and  C16_24
REMARK       I    between atoms: C16_24  and  N3_26
REMARK   13  A    between atoms: N3_26  and  C17_28
ROOT
HETATM    1  C12 UNL     1      -8.942  16.516  25.823  1.00  0.00     0.029 C
HETATM    2  C13 UNL     1      -9.438  16.903  24.462  1.00  0.00     0.126 C
HETATM    3  C14 UNL     1      -8.471  16.692  23.351  1.00  0.00     0.073 C
HETATM    4  C15 UNL     1      -7.607  17.897  23.165  1.00  0.00     0.216 C
HETATM    5  O4  UNL     1      -6.839  18.245  24.242  1.00  0.00    -0.370 OA
HETATM    6  C27 UNL     1      -6.625  17.227  25.151  1.00  0.00     0.137 C
HETATM    7  C28 UNL     1      -5.372  17.596  25.924  1.00  0.00     0.106 C
HETATM    8  S2  UNL     1      -6.039  18.941  26.981  1.00  0.00    -0.166 SA
HETATM    9  C29 UNL     1      -7.823  18.546  26.775  1.00  0.00     0.081 C
HETATM   10  C30 UNL     1      -7.660  17.118  26.220  1.00  0.00     0.032 C
ENDROOT
BRANCH   1  11
HETATM   11  C11 UNL     1      -8.910  15.021  26.017  1.00  0.00     0.088 C
BRANCH  11  12
HETATM   12  C10 UNL     1      -9.072  14.616  27.428  1.00  0.00     0.149 C
HETATM   13  O1  UNL     1      -8.220  13.972  28.024  1.00  0.00    -0.296 OA
BRANCH  12  14
HETATM   14  C5  UNL     1     -10.313  14.996  28.179  1.00  0.00     0.154 C
BRANCH  14  15
HETATM   15  N2  UNL     1     -10.348  14.376  29.467  1.00  0.00    -0.356 N
ATOM     16  H2  UNL     1     -10.370  13.356  29.472  1.00  0.00     0.162 HD
BRANCH  15  17
HETATM   17  C4  UNL     1     -10.357  14.997  30.724  1.00  0.00     0.168 C
HETATM   18  S1  UNL     1     -11.678  15.129  31.685  1.00  0.00    -0.041 SA
BRANCH  17  19
HETATM   19  N1  UNL     1      -9.147  15.539  31.255  1.00  0.00    -0.364 N
ATOM     20  H1  UNL     1      -8.334  14.925  31.293  1.00  0.00     0.162 HD
BRANCH  19  21
HETATM   21  C3  UNL     1      -8.986  16.877  31.739  1.00  0.00     0.148 C
BRANCH  21  22
HETATM   22  C2  UNL     1      -8.461  16.789  33.130  1.00  0.00    -0.018 C
HETATM   23  C1  UNL     1      -9.304  16.886  34.134  1.00  0.00     0.008 C
ENDBRANCH  21  22
ENDBRANCH  19  21
ENDBRANCH  17  19
ENDBRANCH  15  17
ENDBRANCH  14  15
BRANCH  14  24
HETATM   24  C6  UNL     1     -11.575  14.723  27.427  1.00  0.00     0.037 C
BRANCH  24  25
HETATM   25  C7  UNL     1     -12.316  13.601  28.128  1.00  0.00    -0.020 C
HETATM   26  C8  UNL     1     -12.334  12.354  27.232  1.00  0.00     0.009 C
HETATM   27  C9  UNL     1     -13.758  13.939  28.395  1.00  0.00     0.009 C
ENDBRANCH  24  25
ENDBRANCH  14  24
ENDBRANCH  12  14
ENDBRANCH  11  12
ENDBRANCH   1  11
BRANCH   2  28
HETATM   28  O2  UNL     1     -10.582  16.143  24.197  1.00  0.00    -0.395 OA
ATOM     29  H2  UNL     1     -10.306  15.244  24.067  1.00  0.00     0.210 HD
ENDBRANCH   2  28
BRANCH   4  30
HETATM   30  C16 UNL     1      -6.776  17.834  21.942  1.00  0.00     0.247 C
HETATM   31  O3  UNL     1      -7.233  18.343  20.896  1.00  0.00    -0.271 OA
HETATM   32  N3  UNL     1      -5.498  17.229  21.902  1.00  0.00    -0.350 N
ATOM     33  H3  UNL     1      -5.161  16.824  22.775  1.00  0.00     0.163 HD
BRANCH  32  34
HETATM   34  C17 UNL     1      -4.630  17.120  20.778  1.00  0.00     0.034 C
HETATM   35  C18 UNL     1      -5.200  16.182  19.768  1.00  0.00     0.035 C
HETATM   36  C19 UNL     1      -4.280  16.068  18.565  1.00  0.00    -0.012 C
HETATM   37  C20 UNL     1      -2.950  15.577  19.061  1.00  0.00     0.009 C
HETATM   38  C24 UNL     1      -4.191  17.404  17.903  1.00  0.00     0.009 C
HETATM   39  C21 UNL     1      -2.365  16.590  20.036  1.00  0.00    -0.012 C
HETATM   40  C22 UNL     1      -2.250  17.901  19.303  1.00  0.00     0.009 C
HETATM   41  C26 UNL     1      -3.242  16.746  21.240  1.00  0.00     0.035 C
HETATM   42  C23 UNL     1      -3.624  18.401  18.910  1.00  0.00    -0.012 C
HETATM   43  C25 UNL     1      -4.529  18.485  20.101  1.00  0.00     0.035 C
ENDBRANCH  32  34
ENDBRANCH   4  30
TORSDOF 13
ENDMDL