MODEL 1
REMARK VINA RESULT: -9.406540146      0.000      0.000
REMARK  12 active torsions:
REMARK  status: ('A' for Active; 'I' for Inactive)
REMARK    1  A    between atoms: C2_2  and  C3_3
REMARK    2  A    between atoms: C3_3  and  N1_5
REMARK       I    between atoms: N1_5  and  C5_7
REMARK    3  A    between atoms: C5_7  and  C6_9
REMARK    4  A    between atoms: C9_13  and  C10_14
REMARK    5  A    between atoms: C10_14  and  N2_16
REMARK       I    between atoms: N2_16  and  C12_18
REMARK    6  A    between atoms: C12_18  and  C13_20
REMARK       I    between atoms: N3_24  and  C17_25
REMARK    7  A    between atoms: C17_25  and  C18_27
REMARK    8  A    between atoms: C18_27  and  C19_28
REMARK    9  A    between atoms: C18_27  and  N4_35
REMARK   10  A    between atoms: C19_28  and  C20_29
REMARK       I    between atoms: N4_35  and  C26_37
REMARK   11  A    between atoms: C26_37  and  O6_39
REMARK   12  A    between atoms: O6_39  and  C27_40
ROOT
HETATM    1  C13 UNL     1      -8.683  16.273  27.582  1.00  0.00     0.114 C
HETATM    2  C14 UNL     1      -8.615  14.815  27.993  1.00  0.00     0.049 C
HETATM    3  C15 UNL     1      -9.177  16.453  26.156  1.00  0.00     0.061 C
HETATM    4  C16 UNL     1      -9.805  17.697  26.723  1.00  0.00     0.130 C
HETATM    5  N3  UNL     1      -9.850  17.006  28.028  1.00  0.00    -0.332 N
HETATM    6  C17 UNL     1     -10.746  17.156  29.099  1.00  0.00     0.243 C
HETATM    7  O4  UNL     1     -11.665  18.049  28.971  1.00  0.00    -0.271 OA
ENDROOT
BRANCH   1   8
HETATM    8  C12 UNL     1      -7.399  16.989  27.740  1.00  0.00     0.246 C
HETATM    9  N2  UNL     1      -6.358  16.743  26.815  1.00  0.00    -0.352 N
ATOM     10  H2  UNL     1      -6.521  16.074  26.062  1.00  0.00     0.163 HD
HETATM   11  O3  UNL     1      -7.216  17.796  28.663  1.00  0.00    -0.271 OA
BRANCH   9  12
HETATM   12  C10 UNL     1      -5.061  17.407  26.893  1.00  0.00     0.118 C
HETATM   13  C11 UNL     1      -4.197  16.679  27.878  1.00  0.00     0.034 C
BRANCH  12  14
HETATM   14  C9  UNL     1      -4.490  17.445  25.505  1.00  0.00     0.278 C
HETATM   15  C8  UNL     1      -4.022  18.782  25.105  1.00  0.00     0.162 C
HETATM   16  C7  UNL     1      -5.097  19.320  24.190  1.00  0.00     0.123 C
HETATM   17  O2  UNL     1      -3.020  19.412  25.383  1.00  0.00    -0.296 OA
HETATM   18  C6  UNL     1      -5.492  18.030  23.498  1.00  0.00     0.285 C
HETATM   19  N5  UNL     1      -5.364  16.991  24.473  1.00  0.00    -0.049 N
ATOM     20  H52 UNL     1      -6.266  16.679  24.833  1.00  0.00     0.279 HD
ATOM     21  H51 UNL     1      -5.062  16.106  24.066  1.00  0.00     0.279 HD
BRANCH  18  22
HETATM   22  C5  UNL     1      -6.798  18.098  22.833  1.00  0.00     0.249 C
HETATM   23  N1  UNL     1      -7.720  16.999  22.836  1.00  0.00    -0.355 N
ATOM     24  H1  UNL     1      -7.450  16.142  23.319  1.00  0.00     0.162 HD
HETATM   25  O1  UNL     1      -7.187  19.138  22.214  1.00  0.00    -0.271 OA
BRANCH  23  26
HETATM   26  C3  UNL     1      -8.996  17.045  22.197  1.00  0.00     0.080 C
HETATM   27  C4  UNL     1      -8.925  16.929  20.678  1.00  0.00     0.032 C
BRANCH  26  28
HETATM   28  C2  UNL     1     -10.018  16.106  22.755  1.00  0.00     0.020 C
HETATM   29  C1  UNL     1     -11.159  15.991  21.772  1.00  0.00     0.007 C
ENDBRANCH  26  28
ENDBRANCH  23  26
ENDBRANCH  18  22
ENDBRANCH  12  14
ENDBRANCH   9  12
ENDBRANCH   1   8
BRANCH   6  30
HETATM   30  C18 UNL     1     -10.769  16.425  30.356  1.00  0.00     0.179 C
BRANCH  30  31
HETATM   31  C19 UNL     1      -9.497  16.488  31.149  1.00  0.00     0.039 C
BRANCH  31  32
HETATM   32  C20 UNL     1      -9.592  16.504  32.617  1.00  0.00    -0.012 C
HETATM   33  C21 UNL     1      -8.715  17.436  33.372  1.00  0.00     0.005 C
HETATM   34  C22 UNL     1      -8.289  16.822  34.721  1.00  0.00     0.000 C
HETATM   35  C23 UNL     1      -9.431  16.062  35.335  1.00  0.00     0.000 C
HETATM   36  C24 UNL     1      -9.846  14.926  34.463  1.00  0.00     0.000 C
HETATM   37  C25 UNL     1      -9.222  15.090  33.099  1.00  0.00     0.005 C
ENDBRANCH  31  32
ENDBRANCH  30  31
BRANCH  30  38
HETATM   38  N4  UNL     1     -11.133  15.055  30.168  1.00  0.00    -0.324 N
HETATM   39  C26 UNL     1     -12.158  14.427  30.965  1.00  0.00     0.362 C
HETATM   40  O5  UNL     1     -12.713  15.149  31.832  1.00  0.00    -0.238 OA
ATOM     41  H4  UNL     1     -10.656  14.507  29.453  1.00  0.00     0.165 HD
BRANCH  39  42
HETATM   42  O6  UNL     1     -12.544  13.125  30.827  1.00  0.00    -0.294 OA
BRANCH  42  43
HETATM   43  C27 UNL     1     -13.356  12.709  29.759  1.00  0.00     0.061 C
HETATM   44  C28 UNL     1     -14.165  11.499  30.169  1.00  0.00     0.046 C
HETATM   45  C29 UNL     1     -12.493  12.283  28.583  1.00  0.00     0.046 C
HETATM   46  C30 UNL     1     -14.273  13.806  29.252  1.00  0.00     0.046 C
ENDBRANCH  42  43
ENDBRANCH  39  42
ENDBRANCH  30  38
ENDBRANCH   6  30
TORSDOF 12
ENDMDL