MODEL 4
REMARK VINA RESULT: -8.430056015      2.271      8.128
REMARK  13 active torsions:
REMARK  status: ('A' for Active; 'I' for Inactive)
REMARK    1  A    between atoms: C3_3  and  C4_4
REMARK    2  A    between atoms: C4_4  and  C5_5
REMARK    3  A    between atoms: C5_5  and  C6_6
REMARK    4  A    between atoms: C7_7  and  C8_8
REMARK    5  A    between atoms: C8_8  and  C9_9
REMARK    6  A    between atoms: C13_15  and  O1_16
REMARK    7  A    between atoms: C14_19  and  C15_20
REMARK    8  A    between atoms: C16_23  and  C17_24
REMARK    9  A    between atoms: C17_24  and  C18_25
REMARK   10  A    between atoms: C23_30  and  C24_31
REMARK   11  A    between atoms: C24_31  and  C25_33
REMARK       I    between atoms: C25_33  and  N3_35
REMARK   12  A    between atoms: N3_35  and  C26_37
REMARK   13  A    between atoms: C26_37  and  C27_38
ROOT
HETATM    1  C9  UNL     1     -11.566  14.677  33.419  1.00  0.00     0.081 C
HETATM    2  C10 UNL     1     -11.774  14.329  34.890  1.00  0.00     0.016 C
HETATM    3  C11 UNL     1     -11.289  12.953  35.278  1.00  0.00     0.020 C
HETATM    4  C12 UNL     1     -12.424  12.318  36.081  1.00  0.00     0.123 C
HETATM    5  N1  UNL     1     -12.381  10.899  36.079  1.00  0.00    -0.350 N
ATOM      6  H1  UNL     1     -12.025  10.452  36.924  1.00  0.00     0.163 HD
HETATM    7  C13 UNL     1     -12.774  10.054  35.046  1.00  0.00     0.258 C
HETATM    8  O2  UNL     1     -13.446  10.290  33.903  1.00  0.00    -0.301 OA
HETATM    9  C14 UNL     1     -14.650  10.839  33.562  1.00  0.00     0.229 C
HETATM   10  C16 UNL     1     -14.909  10.829  32.094  1.00  0.00     0.047 C
HETATM   11  C21 UNL     1     -14.273  12.041  31.396  1.00  0.00     0.014 C
HETATM   12  C22 UNL     1     -12.789  12.002  31.493  1.00  0.00     0.034 C
HETATM   13  C23 UNL     1     -12.270  13.372  30.878  1.00  0.00     0.164 C
HETATM   14  N4  UNL     1     -13.195  14.318  31.453  1.00  0.00    -0.349 N
ATOM     15  H4  UNL     1     -14.080  14.533  30.994  1.00  0.00     0.163 HD
HETATM   16  C31 UNL     1     -12.826  14.961  32.717  1.00  0.00     0.222 C
HETATM   17  O7  UNL     1     -13.668  15.788  33.164  1.00  0.00    -0.273 OA
ENDROOT
BRANCH  13  18
HETATM   18  C24 UNL     1     -12.388  13.113  29.449  1.00  0.00     0.238 C
HETATM   19  O4  UNL     1     -12.341  11.960  28.920  1.00  0.00    -0.285 OA
BRANCH  18  20
HETATM   20  C25 UNL     1     -12.569  14.213  28.499  1.00  0.00     0.289 C
HETATM   21  O5  UNL     1     -13.729  14.598  28.167  1.00  0.00    -0.264 OA
HETATM   22  N3  UNL     1     -11.455  14.849  27.962  1.00  0.00    -0.352 N
ATOM     23  H3  UNL     1     -10.521  14.599  28.285  1.00  0.00     0.162 HD
BRANCH  22  24
HETATM   24  C26 UNL     1     -11.624  15.878  26.934  1.00  0.00     0.155 C
BRANCH  24  25
HETATM   25  C27 UNL     1     -10.519  15.898  25.984  1.00  0.00     0.139 C
HETATM   26  C28 UNL     1      -9.375  14.984  26.470  1.00  0.00     0.035 C
HETATM   27  C29 UNL     1      -8.498  15.195  25.226  1.00  0.00     0.029 C
HETATM   28  C30 UNL     1      -8.850  16.608  24.792  1.00  0.00     0.168 C
HETATM   29  O6  UNL     1      -9.894  17.057  25.693  1.00  0.00    -0.384 OA
ENDBRANCH  24  25
ENDBRANCH  22  24
ENDBRANCH  18  20
ENDBRANCH  13  18
BRANCH  10  30
HETATM   30  C17 UNL     1     -14.663   9.668  31.251  1.00  0.00    -0.017 C
BRANCH  30  31
HETATM   31  C18 UNL     1     -14.122   8.404  31.758  1.00  0.00    -0.091 C
HETATM   32  C19 UNL     1     -12.676   8.172  31.327  1.00  0.00     0.042 C
HETATM   33  C20 UNL     1     -14.901   7.157  31.683  1.00  0.00     0.042 C
ENDBRANCH  30  31
ENDBRANCH  10  30
BRANCH   1  34
HETATM   34  C8  UNL     1     -10.759  15.978  33.427  1.00  0.00     0.041 C
BRANCH  34  35
HETATM   35  C7  UNL     1      -9.987  16.258  32.222  1.00  0.00    -0.025 C
HETATM   36  C6  UNL     1      -9.430  15.291  31.555  1.00  0.00     0.004 C
BRANCH  36  37
HETATM   37  C5  UNL     1      -8.602  15.437  30.326  1.00  0.00     0.055 C
BRANCH  37  38
HETATM   38  C4  UNL     1      -8.292  16.373  29.647  1.00  0.00    -0.129 C
BRANCH  38  39
HETATM   39  C3  UNL     1      -8.176  17.543  28.772  1.00  0.00     0.051 C
HETATM   40  C2  UNL     1      -7.122  17.684  27.948  1.00  0.00    -0.023 C
HETATM   41  C1  UNL     1      -7.116  18.928  27.099  1.00  0.00     0.036 C
ENDBRANCH  38  39
ENDBRANCH  37  38
ENDBRANCH  36  37
ENDBRANCH  34  35
ENDBRANCH   1  34
BRANCH   9  42
HETATM   42  C15 UNL     1     -15.837  10.454  34.341  1.00  0.00     0.261 C
HETATM   43  N2  UNL     1     -16.565   9.263  34.280  1.00  0.00    -0.060 NA
HETATM   44  O3  UNL     1     -16.274  11.325  35.192  1.00  0.00    -0.274 OA
ENDBRANCH   9  42
BRANCH   7  45
HETATM   45  O1  UNL     1     -12.428   8.808  35.203  1.00  0.00    -0.327 OA
ATOM     46  H1  UNL     1     -12.900   8.194  34.652  1.00  0.00     0.221 HD
ENDBRANCH   7  45
TORSDOF 13
ENDMDL