MODEL 4
REMARK VINA RESULT: -8.976122377      1.764      2.361
REMARK  12 active torsions:
REMARK  status: ('A' for Active; 'I' for Inactive)
REMARK    1  A    between atoms: C2_2  and  N1_3
REMARK    2  A    between atoms: C2_2  and  C30_42
REMARK       I    between atoms: N1_3  and  C3_5
REMARK    3  A    between atoms: C3_5  and  C4_7
REMARK       I    between atoms: N2_12  and  C9_13
REMARK    4  A    between atoms: C9_13  and  C10_15
REMARK    5  A    between atoms: C10_15  and  C11_16
REMARK    6  A    between atoms: C10_15  and  N3_23
REMARK    7  A    between atoms: C11_16  and  C12_17
REMARK       I    between atoms: N3_23  and  C18_25
REMARK    8  A    between atoms: C18_25  and  C19_27
REMARK    9  A    between atoms: C19_27  and  N4_28
REMARK   10  A    between atoms: C19_27  and  C25_37
REMARK       I    between atoms: N4_28  and  C20_30
REMARK   11  A    between atoms: C20_30  and  O5_32
REMARK   12  A    between atoms: O5_32  and  C21_33
ROOT
HETATM    1  C10 UNL     1      -9.229  14.722  30.293  1.00  0.00     0.177 C
ENDROOT
BRANCH   1   2
HETATM    2  C9  UNL     1      -8.495  15.540  29.329  1.00  0.00     0.242 C
HETATM    3  N2  UNL     1      -8.753  15.563  27.907  1.00  0.00    -0.349 N
HETATM    4  C8  UNL     1      -9.745  14.706  27.345  1.00  0.00     0.126 C
HETATM    5  C29 UNL     1      -7.984  16.530  27.131  1.00  0.00     0.144 C
HETATM    6  C7  UNL     1      -9.924  14.711  25.875  1.00  0.00     0.021 C
HETATM    7  C6  UNL     1      -9.039  15.601  25.081  1.00  0.00     0.022 C
HETATM    8  C4  UNL     1      -8.739  16.890  25.859  1.00  0.00     0.053 C
HETATM    9  C5  UNL     1     -10.090  17.503  26.145  1.00  0.00     0.027 C
HETATM   10  O2  UNL     1      -7.582  16.292  29.768  1.00  0.00    -0.271 OA
BRANCH   8  11
HETATM   11  C3  UNL     1      -7.975  17.780  24.971  1.00  0.00     0.228 C
HETATM   12  N1  UNL     1      -7.840  17.569  23.557  1.00  0.00    -0.346 N
ATOM     13  H1  UNL     1      -8.290  16.759  23.131  1.00  0.00     0.163 HD
HETATM   14  O1  UNL     1      -7.401  18.791  25.475  1.00  0.00    -0.273 OA
BRANCH  12  15
HETATM   15  C2  UNL     1      -7.090  18.466  22.729  1.00  0.00     0.181 C
HETATM   16  C1  UNL     1      -5.607  18.449  22.966  1.00  0.00     0.043 C
BRANCH  15  17
HETATM   17  C30 UNL     1      -7.304  18.099  21.285  1.00  0.00     0.196 C
HETATM   18  O6  UNL     1      -6.349  17.850  20.521  1.00  0.00    -0.646 OA
HETATM   19  O7  UNL     1      -8.598  18.042  20.814  1.00  0.00    -0.646 OA
ENDBRANCH  15  17
ENDBRANCH  12  15
ENDBRANCH   8  11
ENDBRANCH   1   2
BRANCH   1  20
HETATM   20  C11 UNL     1      -8.786  14.644  31.674  1.00  0.00     0.039 C
BRANCH  20  21
HETATM   21  C12 UNL     1      -9.393  15.393  32.785  1.00  0.00    -0.012 C
HETATM   22  C13 UNL     1      -8.308  16.327  33.409  1.00  0.00     0.005 C
HETATM   23  C14 UNL     1      -8.989  17.370  34.272  1.00  0.00     0.000 C
HETATM   24  C15 UNL     1     -10.162  16.665  34.993  1.00  0.00     0.000 C
HETATM   25  C16 UNL     1      -9.737  15.229  35.260  1.00  0.00     0.000 C
HETATM   26  C17 UNL     1      -9.783  14.486  33.928  1.00  0.00     0.005 C
ENDBRANCH  20  21
ENDBRANCH   1  20
BRANCH   1  27
HETATM   27  N3  UNL     1     -10.631  15.281  30.368  1.00  0.00    -0.346 N
HETATM   28  C18 UNL     1     -11.678  14.378  30.463  1.00  0.00     0.242 C
HETATM   29  O3  UNL     1     -11.369  13.119  30.464  1.00  0.00    -0.271 OA
ATOM     30  H3  UNL     1     -10.801  16.287  30.350  1.00  0.00     0.163 HD
BRANCH  28  31
HETATM   31  C19 UNL     1     -13.126  14.619  30.563  1.00  0.00     0.186 C
BRANCH  31  32
HETATM   32  N4  UNL     1     -13.702  13.960  31.714  1.00  0.00    -0.323 N
HETATM   33  C20 UNL     1     -13.603  14.414  33.039  1.00  0.00     0.362 C
HETATM   34  O4  UNL     1     -12.987  15.465  33.368  1.00  0.00    -0.238 OA
ATOM     35  H4  UNL     1     -14.222  13.097  31.550  1.00  0.00     0.165 HD
BRANCH  33  36
HETATM   36  O5  UNL     1     -14.195  13.695  34.044  1.00  0.00    -0.294 OA
BRANCH  36  37
HETATM   37  C21 UNL     1     -13.544  12.930  35.007  1.00  0.00     0.061 C
HETATM   38  C22 UNL     1     -12.530  11.975  34.385  1.00  0.00     0.046 C
HETATM   39  C23 UNL     1     -14.636  12.060  35.640  1.00  0.00     0.046 C
HETATM   40  C24 UNL     1     -12.912  13.722  36.113  1.00  0.00     0.046 C
ENDBRANCH  36  37
ENDBRANCH  33  36
ENDBRANCH  31  32
BRANCH  31  41
HETATM   41  C25 UNL     1     -13.845  14.457  29.279  1.00  0.00    -0.022 C
HETATM   42  C26 UNL     1     -13.496  15.453  28.216  1.00  0.00     0.017 C
HETATM   43  C27 UNL     1     -15.324  14.405  29.573  1.00  0.00     0.017 C
HETATM   44  C28 UNL     1     -13.522  13.084  28.650  1.00  0.00     0.017 C
ENDBRANCH  31  41
ENDBRANCH  28  31
ENDBRANCH   1  27
TORSDOF 12
ENDMDL