MODEL 4
REMARK VINA RESULT: -7.511452933      6.917     11.640
REMARK  12 active torsions:
REMARK  status: ('A' for Active; 'I' for Inactive)
REMARK    1  A    between atoms: C2_2  and  C3_3
REMARK    2  A    between atoms: C2_2  and  N1_15
REMARK    3  A    between atoms: C4_4  and  C5_5
REMARK    4  A    between atoms: C4_4  and  C7_9
REMARK    5  A    between atoms: C5_5  and  C6_6
REMARK    6  A    between atoms: C7_9  and  O3_10
REMARK    7  A    between atoms: C7_9  and  C8_12
REMARK       I    between atoms: N1_15  and  C11_17
REMARK    8  A    between atoms: C11_17  and  C12_19
REMARK       I    between atoms: N2_24  and  C15_25
REMARK    9  A    between atoms: C15_25  and  C16_27
REMARK   10  A    between atoms: C16_27  and  N3_28
REMARK   11  A    between atoms: C16_27  and  C28_42
REMARK       I    between atoms: N3_28  and  C17_30
REMARK   12  A    between atoms: C17_30  and  C18_32
ROOT
HETATM    1  C12 UNL     1     -13.682   9.797  31.870  1.00  0.00     0.214 C
HETATM    2  C13 UNL     1     -14.351   8.524  31.368  1.00  0.00     0.216 C
HETATM    3  O5  UNL     1     -15.740   8.769  31.631  1.00  0.00    -0.301 OA
HETATM    4  C14 UNL     1     -15.937  10.148  31.771  1.00  0.00     0.370 C
HETATM    5  O6  UNL     1     -17.022  10.670  32.093  1.00  0.00    -0.238 OA
HETATM    6  N2  UNL     1     -14.666  10.780  31.474  1.00  0.00    -0.246 N
HETATM    7  C15 UNL     1     -14.558  12.075  30.904  1.00  0.00     0.252 C
HETATM    8  O7  UNL     1     -15.616  12.716  30.727  1.00  0.00    -0.270 OA
ENDROOT
BRANCH   1   9
HETATM    9  C11 UNL     1     -13.524   9.748  33.349  1.00  0.00     0.243 C
HETATM   10  N1  UNL     1     -12.977  10.832  34.062  1.00  0.00    -0.352 N
ATOM     11  H1  UNL     1     -12.686  11.660  33.541  1.00  0.00     0.163 HD
HETATM   12  O4  UNL     1     -13.887   8.725  33.953  1.00  0.00    -0.271 OA
BRANCH  10  13
HETATM   13  C2  UNL     1     -12.807  10.827  35.510  1.00  0.00     0.103 C
HETATM   14  C1  UNL     1     -12.325   9.479  35.993  1.00  0.00     0.036 C
BRANCH  13  15
HETATM   15  C3  UNL     1     -14.100  11.201  36.178  1.00  0.00     0.004 C
HETATM   16  C4  UNL     1     -14.196  12.152  37.117  1.00  0.00    -0.043 C
BRANCH  16  17
HETATM   17  C5  UNL     1     -12.998  12.908  37.554  1.00  0.00     0.149 C
BRANCH  17  18
HETATM   18  C6  UNL     1     -12.414  12.537  38.845  1.00  0.00     0.176 C
HETATM   19  O1  UNL     1     -12.724  12.955  39.972  1.00  0.00    -0.648 OA
HETATM   20  O2  UNL     1     -11.366  11.586  38.840  1.00  0.00    -0.648 OA
ENDBRANCH  17  18
ENDBRANCH  16  17
BRANCH  16  21
HETATM   21  C7  UNL     1     -15.491  12.445  37.768  1.00  0.00     0.150 C
BRANCH  21  22
HETATM   22  O3  UNL     1     -16.513  12.736  36.887  1.00  0.00    -0.391 OA
ATOM     23  H3  UNL     1     -17.074  13.451  37.165  1.00  0.00     0.210 HD
ENDBRANCH  21  22
BRANCH  21  24
HETATM   24  C8  UNL     1     -15.991  11.356  38.694  1.00  0.00     0.010 C
HETATM   25  C9  UNL     1     -16.143  11.889  40.105  1.00  0.00     0.012 C
HETATM   26  C10 UNL     1     -17.398  10.950  38.246  1.00  0.00     0.012 C
ENDBRANCH  21  24
ENDBRANCH  16  21
ENDBRANCH  13  15
ENDBRANCH  10  13
ENDBRANCH   1   9
BRANCH   7  27
HETATM   27  C16 UNL     1     -13.269  12.683  30.524  1.00  0.00     0.184 C
BRANCH  27  28
HETATM   28  N3  UNL     1     -12.787  13.730  31.364  1.00  0.00    -0.347 N
HETATM   29  C17 UNL     1     -13.069  14.089  32.689  1.00  0.00     0.222 C
HETATM   30  O8  UNL     1     -13.872  13.516  33.467  1.00  0.00    -0.273 OA
ATOM     31  H3  UNL     1     -12.102  14.336  30.912  1.00  0.00     0.163 HD
BRANCH  29  32
HETATM   32  C18 UNL     1     -12.374  15.283  33.328  1.00  0.00     0.078 C
HETATM   33  C19 UNL     1     -11.515  15.904  32.321  1.00  0.00     0.014 C
HETATM   34  C20 UNL     1     -10.225  15.264  32.004  1.00  0.00     0.001 C
HETATM   35  C21 UNL     1      -9.124  16.206  31.608  1.00  0.00     0.000 C
HETATM   36  C22 UNL     1      -8.671  17.108  32.706  1.00  0.00     0.000 C
HETATM   37  C23 UNL     1      -8.005  16.386  33.848  1.00  0.00     0.000 C
HETATM   38  C24 UNL     1      -8.663  16.815  35.147  1.00  0.00     0.000 C
HETATM   39  C25 UNL     1      -9.603  15.750  35.675  1.00  0.00     0.000 C
HETATM   40  C26 UNL     1     -11.041  16.034  35.293  1.00  0.00     0.001 C
HETATM   41  C27 UNL     1     -11.693  14.857  34.602  1.00  0.00     0.014 C
ENDBRANCH  29  32
ENDBRANCH  27  28
BRANCH  27  42
HETATM   42  C28 UNL     1     -13.252  13.115  29.066  1.00  0.00    -0.022 C
HETATM   43  C29 UNL     1     -13.754  12.071  28.128  1.00  0.00     0.017 C
HETATM   44  C30 UNL     1     -11.766  13.326  28.737  1.00  0.00     0.017 C
HETATM   45  C31 UNL     1     -13.978  14.395  28.800  1.00  0.00     0.017 C
ENDBRANCH  27  42
ENDBRANCH   7  27
TORSDOF 12
ENDMDL