MODEL 5
REMARK VINA RESULT: -8.860427123      2.072      5.700
REMARK  14 active torsions:
REMARK  status: ('A' for Active; 'I' for Inactive)
REMARK    1  A    between atoms: C6_6  and  C7_7
REMARK    2  A    between atoms: C7_7  and  C9_9
REMARK    3  A    between atoms: C7_7  and  O4_45
REMARK    4  A    between atoms: C9_9  and  N1_10
REMARK    5  A    between atoms: N1_10  and  C10_12
REMARK    6  A    between atoms: C10_12  and  O1_13
REMARK    7  A    between atoms: C11_15  and  N2_16
REMARK    8  A    between atoms: C11_15  and  C17_27
REMARK       I    between atoms: N2_16  and  C12_18
REMARK    9  A    between atoms: C12_18  and  C13_20
REMARK   10  A    between atoms: C17_27  and  C18_28
REMARK   11  A    between atoms: C17_27  and  C25_39
REMARK   12  A    between atoms: C18_28  and  O3_29
REMARK   13  A    between atoms: N4_31  and  C19_33
REMARK   14  A    between atoms: O4_45  and  C31_46
ROOT
HETATM    1  C10 UNL     1      -9.083  15.131  28.790  1.00  0.00     0.163 C
HETATM    2  C11 UNL     1      -9.088  15.742  27.504  1.00  0.00     0.075 C
ENDROOT
BRANCH   2   3
HETATM    3  N2  UNL     1      -8.337  16.993  27.482  1.00  0.00    -0.324 N
HETATM    4  C12 UNL     1      -6.946  17.031  27.693  1.00  0.00     0.253 C
HETATM    5  O2  UNL     1      -6.210  16.041  27.914  1.00  0.00    -0.271 OA
ATOM      6  H2  UNL     1      -8.834  17.866  27.308  1.00  0.00     0.169 HD
BRANCH   4   7
HETATM    7  C13 UNL     1      -6.238  18.377  27.653  1.00  0.00     0.277 C
HETATM    8  C14 UNL     1      -4.795  18.080  27.225  1.00  0.00     0.044 C
HETATM    9  C15 UNL     1      -4.834  18.343  25.711  1.00  0.00     0.030 C
HETATM   10  C16 UNL     1      -5.825  19.513  25.648  1.00  0.00     0.233 C
HETATM   11  N3  UNL     1      -6.739  19.272  26.687  1.00  0.00    -0.062 N
ATOM     12  H32 UNL     1      -7.635  18.951  26.320  1.00  0.00     0.278 HD
ATOM     13  H31 UNL     1      -7.042  20.145  27.119  1.00  0.00     0.278 HD
ENDBRANCH   4   7
ENDBRANCH   2   3
BRANCH   2  14
HETATM   14  C17 UNL     1     -10.306  15.788  26.702  1.00  0.00     0.118 C
BRANCH  14  15
HETATM   15  C18 UNL     1     -11.505  15.180  27.153  1.00  0.00     0.122 C
HETATM   16  N4  UNL     1     -12.038  14.021  27.589  1.00  0.00    -0.369 N
ATOM     17  H4  UNL     1     -11.424  13.209  27.673  1.00  0.00     0.161 HD
BRANCH  15  18
HETATM   18  O3  UNL     1     -12.513  16.158  27.122  1.00  0.00    -0.349 OA
ATOM     19  H3  UNL     1     -12.292  16.774  26.434  1.00  0.00     0.219 HD
ENDBRANCH  15  18
BRANCH  16  20
HETATM   20  C19 UNL     1     -13.473  13.860  27.956  1.00  0.00     0.083 C
HETATM   21  C20 UNL     1     -13.920  14.697  29.047  1.00  0.00     0.025 C
HETATM   22  C21 UNL     1     -14.667  14.099  30.192  1.00  0.00     0.002 C
HETATM   23  C22 UNL     1     -14.545  12.639  30.395  1.00  0.00     0.000 C
HETATM   24  C23 UNL     1     -13.358  12.051  29.616  1.00  0.00     0.002 C
HETATM   25  C24 UNL     1     -13.670  12.360  28.177  1.00  0.00     0.025 C
ENDBRANCH  16  20
ENDBRANCH  14  15
BRANCH  14  26
HETATM   26  C25 UNL     1      -9.955  15.284  25.238  1.00  0.00     0.003 C
HETATM   27  C26 UNL     1     -10.500  16.345  24.330  1.00  0.00     0.006 C
HETATM   28  C27 UNL     1     -10.173  16.078  22.869  1.00  0.00     0.000 C
HETATM   29  C28 UNL     1      -8.678  16.067  22.722  1.00  0.00     0.000 C
HETATM   30  C29 UNL     1      -8.094  15.024  23.649  1.00  0.00     0.000 C
HETATM   31  C30 UNL     1      -8.472  15.232  25.097  1.00  0.00     0.006 C
ENDBRANCH  14  26
ENDBRANCH   2  14
BRANCH   1  32
HETATM   32  N1  UNL     1      -9.717  15.534  30.016  1.00  0.00    -0.346 N
ATOM     33  H1  UNL     1      -9.726  16.514  30.300  1.00  0.00     0.167 HD
BRANCH  32  34
HETATM   34  C9  UNL     1     -10.344  14.515  30.838  1.00  0.00     0.101 C
BRANCH  34  35
HETATM   35  C7  UNL     1     -10.914  14.856  32.107  1.00  0.00     0.098 C
HETATM   36  C8  UNL     1     -11.815  16.065  32.097  1.00  0.00     0.053 C
BRANCH  35  37
HETATM   37  C6  UNL     1      -9.793  15.278  33.097  1.00  0.00     0.003 A
HETATM   38  C2  UNL     1      -9.767  16.528  33.829  1.00  0.00    -0.006 A
HETATM   39  C1  UNL     1      -9.495  16.215  35.335  1.00  0.00     0.011 C
HETATM   40  C3  UNL     1      -8.410  16.858  33.205  1.00  0.00     0.010 A
HETATM   41  C4  UNL     1      -8.447  15.537  32.536  1.00  0.00    -0.001 A
HETATM   42  C5  UNL     1      -8.665  14.332  33.384  1.00  0.00     0.019 A
ENDBRANCH  35  37
BRANCH  35  43
HETATM   43  O4  UNL     1     -11.570  13.921  32.836  1.00  0.00    -0.364 OA
BRANCH  43  44
HETATM   44  C31 UNL     1     -12.595  14.003  33.625  1.00  0.00     0.051 C
HETATM   45  C32 UNL     1     -13.661  15.042  33.259  1.00  0.00     0.045 C
HETATM   46  C33 UNL     1     -13.321  12.661  33.601  1.00  0.00     0.045 C
HETATM   47  C34 UNL     1     -12.336  14.233  35.122  1.00  0.00     0.045 C
ENDBRANCH  43  44
ENDBRANCH  35  43
ENDBRANCH  34  35
ENDBRANCH  32  34
ENDBRANCH   1  32
BRANCH   1  48
HETATM   48  O1  UNL     1      -8.379  14.017  28.959  1.00  0.00    -0.345 OA
ATOM     49  H1  UNL     1      -7.821  13.847  28.209  1.00  0.00     0.219 HD
ENDBRANCH   1  48
TORSDOF 14
ENDMDL