MODEL 5
REMARK VINA RESULT: -8.408341693      3.588     11.316
REMARK  14 active torsions:
REMARK  status: ('A' for Active; 'I' for Inactive)
REMARK    1  A    between atoms: C2_2  and  C4_4
REMARK    2  A    between atoms: C4_4  and  C5_5
REMARK    3  A    between atoms: C5_5  and  N1_6
REMARK    4  A    between atoms: C5_5  and  C15_17
REMARK       I    between atoms: N1_6  and  C6_7
REMARK    5  A    between atoms: C6_7  and  C7_9
REMARK    6  A    between atoms: C7_9  and  C8_10
REMARK    7  A    between atoms: C8_10  and  C11_13
REMARK       I    between atoms: C15_17  and  N2_19
REMARK    8  A    between atoms: C19_23  and  C20_24
REMARK       I    between atoms: C20_24  and  N3_26
REMARK    9  A    between atoms: N3_26  and  C21_28
REMARK   10  A    between atoms: C21_28  and  C22_29
REMARK   11  A    between atoms: C21_28  and  C29_41
REMARK       I    between atoms: C22_29  and  N4_31
REMARK   12  A    between atoms: N4_31  and  C23_33
REMARK   13  A    between atoms: C23_33  and  C24_34
REMARK   14  A    between atoms: C23_33  and  C25_37
ROOT
HETATM    1  C15 UNL     1      -8.952  14.688  27.326  1.00  0.00     0.256 C
HETATM    2  O2  UNL     1      -7.881  14.115  27.518  1.00  0.00    -0.270 OA
HETATM    3  N2  UNL     1      -9.192  15.644  26.325  1.00  0.00    -0.336 N
HETATM    4  C16 UNL     1     -10.358  16.503  26.207  1.00  0.00     0.127 C
HETATM    5  C17 UNL     1     -10.801  16.302  24.759  1.00  0.00     0.022 C
HETATM    6  C18 UNL     1      -9.617  15.676  24.094  1.00  0.00     0.037 C
HETATM    7  C19 UNL     1      -8.432  15.805  25.098  1.00  0.00     0.179 C
ENDROOT
BRANCH   7   8
HETATM    8  C20 UNL     1      -7.630  16.958  24.843  1.00  0.00     0.241 C
HETATM    9  O3  UNL     1      -8.176  18.112  25.060  1.00  0.00    -0.271 OA
HETATM   10  N3  UNL     1      -6.321  16.916  24.405  1.00  0.00    -0.345 N
ATOM     11  H3  UNL     1      -5.903  16.011  24.189  1.00  0.00     0.163 HD
BRANCH  10  12
HETATM   12  C21 UNL     1      -5.506  18.133  24.240  1.00  0.00     0.184 C
BRANCH  12  13
HETATM   13  C22 UNL     1      -4.904  18.155  22.922  1.00  0.00     0.242 C
HETATM   14  O4  UNL     1      -5.108  19.202  22.196  1.00  0.00    -0.271 OA
HETATM   15  N4  UNL     1      -4.106  17.181  22.296  1.00  0.00    -0.344 N
ATOM     16  H4  UNL     1      -3.870  16.325  22.796  1.00  0.00     0.163 HD
BRANCH  15  17
HETATM   17  C23 UNL     1      -3.604  17.385  20.920  1.00  0.00     0.193 C
BRANCH  17  18
HETATM   18  C24 UNL     1      -2.275  16.691  20.792  1.00  0.00     0.197 C
HETATM   19  O5  UNL     1      -2.083  15.561  21.272  1.00  0.00    -0.646 OA
HETATM   20  O6  UNL     1      -1.248  17.333  20.131  1.00  0.00    -0.646 OA
ENDBRANCH  17  18
BRANCH  17  21
HETATM   21  C25 UNL     1      -4.576  16.843  19.928  1.00  0.00    -0.021 C
HETATM   22  C26 UNL     1      -3.939  15.869  18.939  1.00  0.00     0.017 C
HETATM   23  C27 UNL     1      -5.675  16.068  20.601  1.00  0.00     0.017 C
HETATM   24  C28 UNL     1      -5.172  17.950  19.066  1.00  0.00     0.017 C
ENDBRANCH  17  21
ENDBRANCH  15  17
ENDBRANCH  12  13
BRANCH  12  25
HETATM   25  C29 UNL     1      -4.500  18.212  25.371  1.00  0.00    -0.022 C
HETATM   26  C30 UNL     1      -5.128  18.986  26.505  1.00  0.00     0.017 C
HETATM   27  C31 UNL     1      -4.085  16.866  25.870  1.00  0.00     0.017 C
HETATM   28  C32 UNL     1      -3.255  19.000  24.979  1.00  0.00     0.017 C
ENDBRANCH  12  25
ENDBRANCH  10  12
ENDBRANCH   7   8
BRANCH   1  29
HETATM   29  C5  UNL     1     -10.099  14.234  28.295  1.00  0.00     0.258 C
BRANCH  29  30
HETATM   30  C4  UNL     1     -11.240  14.005  27.370  1.00  0.00     0.053 C
BRANCH  30  31
HETATM   31  C2  UNL     1     -12.453  13.351  27.914  1.00  0.00    -0.019 C
HETATM   32  C1  UNL     1     -13.565  14.406  28.035  1.00  0.00     0.009 C
HETATM   33  C3  UNL     1     -13.016  12.252  27.056  1.00  0.00     0.009 C
ENDBRANCH  30  31
ENDBRANCH  29  30
BRANCH  29  34
HETATM   34  N1  UNL     1     -10.380  15.299  29.161  1.00  0.00    -0.400 NA
HETATM   35  C6  UNL     1     -10.651  16.328  29.999  1.00  0.00     0.288 C
HETATM   36  O1  UNL     1     -10.618  17.554  29.684  1.00  0.00    -0.258 OA
BRANCH  35  37
HETATM   37  C7  UNL     1     -11.007  16.098  31.456  1.00  0.00     0.128 C
BRANCH  37  38
HETATM   38  C8  UNL     1      -9.747  15.896  32.269  1.00  0.00    -0.032 C
HETATM   39  C9  UNL     1      -9.026  14.593  31.890  1.00  0.00     0.016 C
HETATM   40  C10 UNL     1      -8.775  17.013  32.211  1.00  0.00     0.016 C
BRANCH  38  41
HETATM   41  C11 UNL     1     -10.147  15.651  33.733  1.00  0.00    -0.044 C
HETATM   42  C12 UNL     1     -11.670  15.701  33.841  1.00  0.00     0.015 C
HETATM   43  C13 UNL     1      -9.745  14.255  34.167  1.00  0.00     0.015 C
HETATM   44  C14 UNL     1      -9.599  16.650  34.686  1.00  0.00     0.015 C
ENDBRANCH  38  41
ENDBRANCH  37  38
ENDBRANCH  35  37
ENDBRANCH  29  34
ENDBRANCH   1  29
TORSDOF 14
ENDMDL