MODEL 5
REMARK VINA RESULT: -8.265743754      5.289     10.848
REMARK  15 active torsions:
REMARK  status: ('A' for Active; 'I' for Inactive)
REMARK    1  A    between atoms: C2_2  and  N1_3
REMARK    2  A    between atoms: C2_2  and  C30_43
REMARK    3  A    between atoms: N1_3  and  C3_5
REMARK    4  A    between atoms: C3_5  and  C5_7
REMARK    5  A    between atoms: C5_7  and  C6_8
REMARK    6  A    between atoms: C5_7  and  N2_17
REMARK    7  A    between atoms: C6_8  and  C7_9
REMARK    8  A    between atoms: C7_9  and  C8_10
REMARK    9  A    between atoms: C8_10  and  O2_12
REMARK   10  A    between atoms: O2_12  and  C9_13
REMARK       I    between atoms: N2_17  and  C13_19
REMARK   11  A    between atoms: C13_19  and  C14_21
REMARK   12  A    between atoms: C14_21  and  O4_22
REMARK   13  A    between atoms: C14_21  and  N3_24
REMARK       I    between atoms: N3_24  and  C15_25
REMARK   14  A    between atoms: N3_24  and  C26_39
REMARK       I    between atoms: C15_25  and  N4_27
REMARK   15  A    between atoms: N4_27  and  C16_29
ROOT
HETATM    1  N2  UNL     1      -6.633  18.432  25.405  1.00  0.00    -0.347 N
ATOM      2  H2  UNL     1      -7.171  19.297  25.442  1.00  0.00     0.163 HD
HETATM    3  C13 UNL     1      -6.927  17.382  26.387  1.00  0.00     0.293 C
HETATM    4  O3  UNL     1      -6.198  16.394  26.218  1.00  0.00    -0.264 OA
ENDROOT
BRANCH   3   5
HETATM    5  C14 UNL     1      -7.929  17.586  27.353  1.00  0.00     0.216 C
BRANCH   5   6
HETATM    6  O4  UNL     1      -7.951  18.827  27.830  1.00  0.00    -0.342 OA
ATOM      7  H4  UNL     1      -8.810  19.094  28.137  1.00  0.00     0.219 HD
ENDBRANCH   5   6
BRANCH   5   8
HETATM    8  N3  UNL     1      -8.941  16.750  27.947  1.00  0.00    -0.267 N
HETATM    9  C15 UNL     1      -8.981  16.542  29.311  1.00  0.00     0.325 C
HETATM   10  O5  UNL     1      -7.909  16.836  29.985  1.00  0.00    -0.247 OA
HETATM   11  N4  UNL     1      -9.986  16.064  30.173  1.00  0.00    -0.333 N
ATOM     12  H4  UNL     1     -10.889  15.823  29.765  1.00  0.00     0.165 HD
BRANCH  11  13
HETATM   13  C16 UNL     1      -9.819  15.891  31.620  1.00  0.00     0.035 C
HETATM   14  C17 UNL     1     -11.237  15.800  32.237  1.00  0.00     0.035 C
HETATM   15  C18 UNL     1     -11.159  15.573  33.711  1.00  0.00    -0.012 C
HETATM   16  C19 UNL     1     -10.399  16.650  34.452  1.00  0.00     0.009 C
HETATM   17  C23 UNL     1     -10.428  14.262  34.006  1.00  0.00     0.009 C
HETATM   18  C20 UNL     1      -9.084  16.823  33.767  1.00  0.00    -0.012 C
HETATM   19  C21 UNL     1      -8.264  15.552  34.009  1.00  0.00     0.009 C
HETATM   20  C25 UNL     1      -9.202  17.094  32.277  1.00  0.00     0.035 C
HETATM   21  C22 UNL     1      -9.048  14.398  33.434  1.00  0.00    -0.012 C
HETATM   22  C24 UNL     1      -9.113  14.618  31.941  1.00  0.00     0.035 C
ENDBRANCH  11  13
BRANCH   8  23
HETATM   23  C26 UNL     1      -9.988  16.290  27.008  1.00  0.00     0.033 C
HETATM   24  C27 UNL     1      -9.777  14.837  26.709  1.00  0.00     0.038 C
HETATM   25  C28 UNL     1     -11.345  16.384  27.753  1.00  0.00     0.038 C
HETATM   26  C29 UNL     1     -10.177  17.070  25.774  1.00  0.00     0.038 C
ENDBRANCH   8  23
ENDBRANCH   5   8
ENDBRANCH   3   5
BRANCH   1  27
HETATM   27  C5  UNL     1      -5.630  18.299  24.402  1.00  0.00     0.107 C
BRANCH  27  28
HETATM   28  C3  UNL     1      -6.110  18.605  22.999  1.00  0.00     0.096 C
HETATM   29  C4  UNL     1      -5.154  18.037  22.000  1.00  0.00     0.034 C
BRANCH  28  30
HETATM   30  N1  UNL     1      -7.459  18.167  22.868  1.00  0.00    -0.403 N
ATOM     31  H1  UNL     1      -8.233  18.740  23.206  1.00  0.00     0.154 HD
BRANCH  30  32
HETATM   32  C2  UNL     1      -7.698  16.905  22.251  1.00  0.00     0.174 C
HETATM   33  C1  UNL     1      -7.788  15.709  23.126  1.00  0.00     0.043 C
BRANCH  32  34
HETATM   34  C30 UNL     1      -9.037  17.025  21.565  1.00  0.00     0.195 C
HETATM   35  O6  UNL     1      -9.281  17.829  20.664  1.00  0.00    -0.646 OA
HETATM   36  O7  UNL     1     -10.091  16.174  21.961  1.00  0.00    -0.646 OA
ENDBRANCH  32  34
ENDBRANCH  30  32
ENDBRANCH  28  30
ENDBRANCH  27  28
BRANCH  27  37
HETATM   37  C6  UNL     1      -4.397  19.088  24.794  1.00  0.00     0.037 C
BRANCH  37  38
HETATM   38  C7  UNL     1      -3.302  18.234  25.393  1.00  0.00     0.113 C
BRANCH  38  39
HETATM   39  C8  UNL     1      -2.066  18.557  24.630  1.00  0.00     0.259 C
HETATM   40  O1  UNL     1      -1.996  19.653  23.970  1.00  0.00    -0.265 OA
BRANCH  39  41
HETATM   41  O2  UNL     1      -0.943  17.757  24.565  1.00  0.00    -0.311 OA
BRANCH  41  42
HETATM   42  C9  UNL     1      -0.853  16.644  23.686  1.00  0.00     0.060 C
HETATM   43  C10 UNL     1       0.608  16.561  23.278  1.00  0.00     0.045 C
HETATM   44  C11 UNL     1      -1.149  15.350  24.427  1.00  0.00     0.045 C
HETATM   45  C12 UNL     1      -1.707  16.749  22.470  1.00  0.00     0.045 C
ENDBRANCH  41  42
ENDBRANCH  39  41
ENDBRANCH  38  39
ENDBRANCH  37  38
ENDBRANCH  27  37
ENDBRANCH   1  27
TORSDOF 15
ENDMDL