MODEL 4
REMARK VINA RESULT: -6.281962296      3.042      5.750
REMARK  5 active torsions:
REMARK  status: ('A' for Active; 'I' for Inactive)
REMARK    1  A    between atoms: C2_3  and  N2_4
REMARK    2  A    between atoms: C4_9  and  C5_10
REMARK       I    between atoms: C5_10  and  N5_12
REMARK    3  A    between atoms: N5_12  and  N6_14
REMARK    4  A    between atoms: N7_18  and  O2_19
REMARK    5  A    between atoms: C7_21  and  N8_22
ROOT
HETATM    1  C1  UNL     1      25.222  63.597  13.249  1.00  0.00     0.177 C
HETATM    2  N1  UNL     1      26.542  64.177  13.096  1.00  0.00    -0.170 N
HETATM    3  C2  UNL     1      27.064  64.335  11.855  1.00  0.00     0.142 A
HETATM    4  C4  UNL     1      28.303  64.907  11.786  1.00  0.00     0.097 A
HETATM    5  C6  UNL     1      28.971  65.295  12.954  1.00  0.00     0.163 A
HETATM    6  N7  UNL     1      28.394  65.105  14.137  1.00  0.00    -0.063 N
HETATM    7  C7  UNL     1      27.189  64.552  14.226  1.00  0.00     0.705 A
ENDROOT
BRANCH   4   8
HETATM    8  C5  UNL     1      28.979  65.160  10.534  1.00  0.00     0.274 C
HETATM    9  O1  UNL     1      28.316  65.455   9.521  1.00  0.00    -0.266 OA
HETATM   10  N5  UNL     1      30.385  65.080  10.434  1.00  0.00    -0.272 N
ATOM     11  H5  UNL     1      30.890  64.836  11.285  1.00  0.00     0.189 HD
BRANCH  10  12
HETATM   12  N6  UNL     1      31.148  65.297   9.302  1.00  0.00    -0.342 N
ATOM     13  H62 UNL     1      31.990  64.726   9.224  1.00  0.00     0.176 HD
ATOM     14  H61 UNL     1      30.953  65.960   8.551  1.00  0.00     0.176 HD
ENDBRANCH  10  12
ENDBRANCH   4   8
BRANCH   3  15
HETATM   15  N2  UNL     1      26.373  63.904  10.768  1.00  0.00    -0.318 N
HETATM   16  C3  UNL     1      26.256  62.910  10.050  1.00  0.00     0.202 C
HETATM   17  N3  UNL     1      26.995  61.724  10.254  1.00  0.00    -0.066 NA
HETATM   18  N4  UNL     1      25.333  62.958   8.955  1.00  0.00    -0.066 NA
ATOM     19  H2  UNL     1      25.748  64.641  10.442  1.00  0.00     0.169 HD
ENDBRANCH   3  15
BRANCH   6  20
HETATM   20  O2  UNL     1      29.107  65.511  15.268  1.00  0.00    -0.270 OA
ATOM     21  H2  UNL     1      28.845  65.141  16.103  1.00  0.00     0.245 HD
ENDBRANCH   6  20
BRANCH   7  22
HETATM   22  N8  UNL     1      26.656  64.384  15.395  1.00  0.00    -0.232 N
ATOM     23  H82 UNL     1      25.851  63.764  15.490  1.00  0.00     0.174 HD
ATOM     24  H81 UNL     1      27.025  64.857  16.219  1.00  0.00     0.174 HD
ENDBRANCH   7  22
TORSDOF 5
ENDMDL