MODEL 1
REMARK VINA RESULT: -6.797194912      0.000      0.000
REMARK  3 active torsions:
REMARK  status: ('A' for Active; 'I' for Inactive)
REMARK    1  A    between atoms: C2_2  and  N1_3
REMARK    2  A    between atoms: N3_8  and  N4_9
REMARK       I    between atoms: N4_9  and  C3_11
REMARK    3  A    between atoms: C3_11  and  C4_13
ROOT
HETATM    1  C1  UNL     1      27.485  62.777  10.837  1.00  0.00     0.093 C
HETATM    2  C2  UNL     1      28.263  64.031  11.258  1.00  0.00     0.290 C
HETATM    3  N2  UNL     1      29.338  64.189  10.396  1.00  0.00    -0.067 NA
HETATM    4  N3  UNL     1      29.123  65.103   9.405  1.00  0.00    -0.003 NA
HETATM    5  S1  UNL     1      27.762  66.030   9.885  1.00  0.00     0.334 S
HETATM    6  O3  UNL     1      26.607  65.926   8.969  1.00  0.00    -0.185 OA
HETATM    7  O4  UNL     1      28.197  67.422  10.185  1.00  0.00    -0.185 OA
HETATM    8  N6  UNL     1      27.415  65.154  11.334  1.00  0.00    -0.256 N
ATOM      9  H6  UNL     1      26.752  65.395  12.072  1.00  0.00     0.177 HD
ENDROOT
BRANCH   4  10
HETATM   10  N4  UNL     1      30.193  65.839   8.998  1.00  0.00    -0.251 N
HETATM   11  C3  UNL     1      30.427  66.048   7.612  1.00  0.00     0.323 C
HETATM   12  O1  UNL     1      29.646  65.545   6.738  1.00  0.00    -0.261 OA
ATOM     13  H4  UNL     1      30.827  66.241   9.688  1.00  0.00     0.187 HD
BRANCH  11  14
HETATM   14  C4  UNL     1      31.564  66.842   7.128  1.00  0.00     0.323 C
HETATM   15  N5  UNL     1      32.750  66.945   7.887  1.00  0.00    -0.053 NA
HETATM   16  O2  UNL     1      31.452  67.426   6.012  1.00  0.00    -0.266 OA
ENDBRANCH  11  14
ENDBRANCH   4  10
BRANCH   2  17
HETATM   17  N1  UNL     1      28.726  63.735  12.635  1.00  0.00    -0.036 N
ATOM     18  H13 UNL     1      28.709  62.744  12.876  1.00  0.00     0.279 HD
ATOM     19  H12 UNL     1      29.727  63.869  12.776  1.00  0.00     0.279 HD
ATOM     20  H11 UNL     1      28.140  64.319  13.232  1.00  0.00     0.279 HD
ENDBRANCH   2  17
TORSDOF 3
ENDMDL