MODEL 3
REMARK VINA RESULT: -6.804588032      2.717      5.866
REMARK  6 active torsions:
REMARK  status: ('A' for Active; 'I' for Inactive)
REMARK    1  A    between atoms: N1_2  and  C2_4
REMARK    2  A    between atoms: C4_10  and  N4_11
REMARK    3  A    between atoms: N4_11  and  N5_13
REMARK    4  A    between atoms: C5_18  and  N7_19
REMARK    5  A    between atoms: N7_19  and  N8_21
REMARK       I    between atoms: N8_21  and  C6_23
REMARK    6  A    between atoms: N10_25  and  O1_27
ROOT
HETATM    1  C2  UNL     1      28.518  65.650   9.683  1.00  0.00     0.148 C
HETATM    2  N2  UNL     1      28.469  66.281   8.482  1.00  0.00    -0.335 N
ATOM      3  H2  UNL     1      27.579  66.224   7.986  1.00  0.00     0.168 HD
HETATM    4  C3  UNL     1      29.448  66.977   7.855  1.00  0.00     0.199 C
HETATM    5  N3  UNL     1      30.766  66.831   8.094  1.00  0.00    -0.186 N
ATOM      6  H3  UNL     1      31.363  67.301   7.413  1.00  0.00     0.185 HD
HETATM    7  C4  UNL     1      31.446  66.185   9.056  1.00  0.00     0.699 C
HETATM    8  N6  UNL     1      30.923  65.486  10.091  1.00  0.00    -0.170 N
ATOM      9  H6  UNL     1      31.593  64.967  10.659  1.00  0.00     0.186 HD
HETATM   10  C5  UNL     1      29.623  65.384  10.473  1.00  0.00     0.179 C
ENDROOT
BRANCH  10  11
HETATM   11  N7  UNL     1      29.349  65.013  11.655  1.00  0.00    -0.280 N
ATOM     12  H7  UNL     1      29.090  64.034  11.773  1.00  0.00     0.189 HD
BRANCH  11  13
HETATM   13  N8  UNL     1      29.362  65.780  12.792  1.00  0.00    -0.270 N
HETATM   14  C6  UNL     1      28.575  65.455  13.935  1.00  0.00     0.227 C
HETATM   15  N9  UNL     1      28.117  66.487  14.831  1.00  0.00    -0.060 NA
HETATM   16  N10 UNL     1      28.242  64.252  14.218  1.00  0.00    -0.240 N
ATOM     17  H10 UNL     1      28.545  63.491  13.609  1.00  0.00     0.197 HD
ATOM     18  H8  UNL     1      29.955  66.611  12.821  1.00  0.00     0.189 HD
BRANCH  16  19
HETATM   19  O1  UNL     1      27.487  63.970  15.322  1.00  0.00    -0.287 OA
ATOM     20  H1  UNL     1      27.369  63.076  15.619  1.00  0.00     0.244 HD
ENDBRANCH  16  19
ENDBRANCH  11  13
ENDBRANCH  10  11
BRANCH   1  21
HETATM   21  N1  UNL     1      27.409  65.226  10.192  1.00  0.00    -0.378 N
HETATM   22  C1  UNL     1      26.193  65.470   9.441  1.00  0.00     0.148 C
ATOM     23  H1  UNL     1      27.390  64.740  11.088  1.00  0.00     0.160 HD
ENDBRANCH   1  21
BRANCH   7  24
HETATM   24  N4  UNL     1      32.739  66.220   9.013  1.00  0.00    -0.138 N
ATOM     25  H4  UNL     1      33.290  65.977   9.836  1.00  0.00     0.205 HD
BRANCH  24  26
HETATM   26  N5  UNL     1      33.369  66.595   7.822  1.00  0.00    -0.331 N
ATOM     27  H52 UNL     1      32.898  66.433   6.932  1.00  0.00     0.177 HD
ATOM     28  H51 UNL     1      34.292  67.026   7.865  1.00  0.00     0.177 HD
ENDBRANCH  24  26
ENDBRANCH   7  24
TORSDOF 6
ENDMDL