MODEL 3
REMARK VINA RESULT: -6.040919754      2.187      4.705
REMARK  5 active torsions:
REMARK  status: ('A' for Active; 'I' for Inactive)
REMARK       I    between atoms: N1_2  and  C2_4
REMARK    1  A    between atoms: C2_4  and  C3_6
REMARK    2  A    between atoms: C3_6  and  N2_7
REMARK    3  A    between atoms: C4_13  and  N4_14
REMARK    4  A    between atoms: N7_19  and  N8_20
REMARK    5  A    between atoms: N8_20  and  O2_24
ROOT
HETATM    1  C3  UNL     1      28.712  65.490  11.241  1.00  0.00     0.405 A
HETATM    2  N3  UNL     1      27.643  66.319  10.806  1.00  0.00    -0.162 N
ATOM      3  H3  UNL     1      27.560  67.311  10.585  1.00  0.00     0.182 HD
HETATM    4  C4  UNL     1      26.824  65.333  10.800  1.00  0.00     0.708 A
HETATM    5  N7  UNL     1      27.796  64.399  11.231  1.00  0.00    -0.015 N
ENDROOT
BRANCH   1   6
HETATM    6  C2  UNL     1      29.825  65.363  10.277  1.00  0.00     0.299 C
HETATM    7  N1  UNL     1      30.792  66.385  10.169  1.00  0.00    -0.360 N
HETATM    8  C1  UNL     1      31.898  66.298   9.237  1.00  0.00     0.149 C
ATOM      9  H1  UNL     1      30.710  67.210  10.765  1.00  0.00     0.162 HD
HETATM   10  O1  UNL     1      29.881  64.339   9.574  1.00  0.00    -0.266 OA
ENDBRANCH   1   6
BRANCH   1  11
HETATM   11  N2  UNL     1      29.179  65.910  12.547  1.00  0.00    -0.021 N
ATOM     12  H23 UNL     1      30.197  65.947  12.583  1.00  0.00     0.280 HD
ATOM     13  H22 UNL     1      28.977  66.895  12.715  1.00  0.00     0.280 HD
ATOM     14  H21 UNL     1      28.802  65.321  13.290  1.00  0.00     0.280 HD
ENDBRANCH   1  11
BRANCH   5  15
HETATM   15  N8  UNL     1      27.799  63.037  11.506  1.00  0.00    -0.080 N
HETATM   16  N9  UNL     1      27.935  62.644  12.689  1.00  0.00    -0.303 N
ATOM     17  H92 UNL     1      28.043  63.325  13.440  1.00  0.00     0.181 HD
ATOM     18  H91 UNL     1      27.937  61.644  12.890  1.00  0.00     0.181 HD
BRANCH  15  19
HETATM   19  O2  UNL     1      27.655  62.125  10.499  1.00  0.00    -0.253 OA
ATOM     20  H2  UNL     1      28.350  61.507  10.303  1.00  0.00     0.248 HD
ENDBRANCH  15  19
ENDBRANCH   5  15
BRANCH   4  21
HETATM   21  N4  UNL     1      25.428  65.216  10.473  1.00  0.00    -0.164 N
HETATM   22  C5  UNL     1      25.056  64.945   9.270  1.00  0.00     0.215 C
HETATM   23  N5  UNL     1      25.971  64.748   8.210  1.00  0.00    -0.066 NA
HETATM   24  N6  UNL     1      23.642  64.851   9.055  1.00  0.00    -0.066 NA
ATOM     25  H4  UNL     1      24.725  65.349  11.202  1.00  0.00     0.186 HD
ENDBRANCH   4  21
TORSDOF 5
ENDMDL