MODEL 5
REMARK VINA RESULT: -6.800293564      1.152      1.643
REMARK  5 active torsions:
REMARK  status: ('A' for Active; 'I' for Inactive)
REMARK    1  A    between atoms: N1_2  and  O1_3
REMARK    2  A    between atoms: N1_2  and  N2_5
REMARK       I    between atoms: N2_5  and  C2_7
REMARK    3  A    between atoms: C2_7  and  C3_9
REMARK       I    between atoms: C3_9  and  N3_11
REMARK    4  A    between atoms: N3_11  and  C4_13
REMARK    5  A    between atoms: C5_16  and  C6_17
ROOT
HETATM    1  C3  UNL     1      28.509  64.609  10.879  1.00  0.00     0.329 C
HETATM    2  O3  UNL     1      29.660  64.655  11.433  1.00  0.00    -0.261 OA
HETATM    3  N3  UNL     1      28.038  65.762  10.203  1.00  0.00    -0.150 N
ATOM      4  H3  UNL     1      27.166  66.213  10.479  1.00  0.00     0.188 HD
ENDROOT
BRANCH   3   5
HETATM    5  C4  UNL     1      28.743  66.226   9.229  1.00  0.00     0.701 A
HETATM    6  N4  UNL     1      30.078  66.206   9.118  1.00  0.00    -0.169 N
HETATM    7  C5  UNL     1      30.429  66.798   7.942  1.00  0.00     0.201 A
ATOM      8  H4  UNL     1      30.726  65.812   9.800  1.00  0.00     0.186 HD
HETATM    9  N6  UNL     1      29.305  67.186   7.321  1.00  0.00    -0.267 N
HETATM   10  N7  UNL     1      28.306  66.836   8.104  1.00  0.00    -0.130 N
ATOM     11  H6  UNL     1      29.238  67.659   6.420  1.00  0.00     0.189 HD
ATOM     12  H7  UNL     1      27.323  67.005   7.889  1.00  0.00     0.205 HD
BRANCH   7  13
HETATM   13  C6  UNL     1      31.770  66.993   7.423  1.00  0.00     0.300 C
HETATM   14  N5  UNL     1      32.916  66.639   8.186  1.00  0.00    -0.054 NA
HETATM   15  O4  UNL     1      31.914  67.483   6.277  1.00  0.00    -0.268 OA
ENDBRANCH   7  13
ENDBRANCH   3   5
BRANCH   1  16
HETATM   16  C2  UNL     1      27.723  63.406  10.953  1.00  0.00     0.326 C
HETATM   17  N2  UNL     1      26.749  63.120   9.980  1.00  0.00    -0.258 N
ATOM     18  H2  UNL     1      26.586  63.765   9.206  1.00  0.00     0.186 HD
HETATM   19  O2  UNL     1      27.938  62.601  11.932  1.00  0.00    -0.261 OA
BRANCH  17  20
HETATM   20  N1  UNL     1      26.010  61.944  10.088  1.00  0.00    -0.109 NA
HETATM   21  C1  UNL     1      24.689  62.057   9.537  1.00  0.00     0.171 C
BRANCH  20  22
HETATM   22  O1  UNL     1      26.683  60.873   9.664  1.00  0.00    -0.294 OA
ATOM     23  H1  UNL     1      26.257  60.402   8.958  1.00  0.00     0.239 HD
ENDBRANCH  20  22
ENDBRANCH  17  20
ENDBRANCH   1  16
TORSDOF 5
ENDMDL