MODEL 5
REMARK VINA RESULT: -5.620532186      2.649      3.926
REMARK  2 active torsions:
REMARK  status: ('A' for Active; 'I' for Inactive)
REMARK    1  A    between atoms: C2_10  and  N4_11
REMARK    2  A    between atoms: C2_10  and  C3_15
ROOT
HETATM    1  N1  UNL     1      27.931  66.555   9.080  1.00  0.00    -0.063 NA
HETATM    2  C1  UNL     1      26.946  65.783   9.808  1.00  0.00     0.199 C
HETATM    3  N2  UNL     1      26.276  64.960   9.109  1.00  0.00    -0.241 N
ATOM      4  H2  UNL     1      26.519  64.949   8.119  1.00  0.00     0.183 HD
HETATM    5  S1  UNL     1      25.032  63.865   9.551  1.00  0.00     0.323 S
HETATM    6  O1  UNL     1      25.088  62.632   8.683  1.00  0.00    -0.182 OA
HETATM    7  O2  UNL     1      23.692  64.508   9.235  1.00  0.00    -0.182 OA
HETATM    8  N3  UNL     1      25.094  63.513  11.171  1.00  0.00    -0.258 N
ATOM      9  H3  UNL     1      24.281  63.094  11.623  1.00  0.00     0.177 HD
HETATM   10  C2  UNL     1      26.238  63.779  11.929  1.00  0.00     0.308 C
HETATM   11  C4  UNL     1      26.456  65.230  12.291  1.00  0.00     0.196 C
HETATM   12  N5  UNL     1      26.861  66.047  11.204  1.00  0.00    -0.359 N
ATOM     13  H5  UNL     1      27.141  66.992  11.470  1.00  0.00     0.162 HD
ENDROOT
BRANCH  10  14
HETATM   14  N4  UNL     1      26.044  63.104  13.234  1.00  0.00    -0.040 N
ATOM     15  H43 UNL     1      25.231  62.487  13.253  1.00  0.00     0.278 HD
ATOM     16  H42 UNL     1      26.747  62.391  13.429  1.00  0.00     0.278 HD
ATOM     17  H41 UNL     1      26.010  63.840  13.938  1.00  0.00     0.278 HD
ENDBRANCH  10  14
BRANCH  10  18
HETATM   18  C3  UNL     1      27.480  63.167  11.388  1.00  0.00     0.234 C
HETATM   19  O3  UNL     1      28.604  63.638  11.679  1.00  0.00    -0.645 OA
HETATM   20  O4  UNL     1      27.430  62.067  10.551  1.00  0.00    -0.645 OA
ENDBRANCH  10  18
TORSDOF 2
ENDMDL