MODEL 3
REMARK VINA RESULT: -7.182660099      1.808      2.092
REMARK  4 active torsions:
REMARK  status: ('A' for Active; 'I' for Inactive)
REMARK    1  A    between atoms: N1_2  and  C2_4
REMARK    2  A    between atoms: C3_7  and  N3_8
REMARK    3  A    between atoms: N3_8  and  N4_10
REMARK       I    between atoms: N4_10  and  C4_12
REMARK       I    between atoms: C4_12  and  N6_16
REMARK    4  A    between atoms: N6_16  and  N7_18
ROOT
HETATM    1  C2  UNL     1      27.870  63.767  11.309  1.00  0.00     0.694 A
HETATM    2  N2  UNL     1      29.016  64.284  10.837  1.00  0.00    -0.169 N
ATOM      3  H2  UNL     1      29.912  63.947  11.190  1.00  0.00     0.186 HD
HETATM    4  C3  UNL     1      28.985  65.235   9.909  1.00  0.00     0.206 A
HETATM    5  C5  UNL     1      27.779  65.693   9.431  1.00  0.00     0.308 A
HETATM    6  O1  UNL     1      27.702  66.594   8.550  1.00  0.00    -0.262 OA
HETATM    7  N8  UNL     1      26.637  65.176   9.901  1.00  0.00    -0.244 N
HETATM    8  C6  UNL     1      25.330  65.647   9.408  1.00  0.00     0.182 C
HETATM    9  N9  UNL     1      26.708  64.237  10.819  1.00  0.00    -0.127 N
ATOM     10  H9  UNL     1      25.838  63.844  11.178  1.00  0.00     0.206 HD
ENDROOT
BRANCH   4  11
HETATM   11  N3  UNL     1      30.098  65.726   9.461  1.00  0.00    -0.266 N
ATOM     12  H3  UNL     1      30.658  66.335  10.059  1.00  0.00     0.189 HD
BRANCH  11  13
HETATM   13  N4  UNL     1      30.535  65.435   8.183  1.00  0.00    -0.130 N
HETATM   14  C4  UNL     1      31.034  66.526   7.396  1.00  0.00     0.704 C
HETATM   15  N5  UNL     1      30.196  67.452   7.068  1.00  0.00    -0.232 N
HETATM   16  N6  UNL     1      32.375  66.600   6.988  1.00  0.00    -0.138 N
ATOM     17  H52 UNL     1      29.222  67.398   7.364  1.00  0.00     0.174 HD
ATOM     18  H51 UNL     1      30.551  68.228   6.508  1.00  0.00     0.174 HD
ATOM     19  H6  UNL     1      32.585  66.399   6.010  1.00  0.00     0.205 HD
ATOM     20  H4  UNL     1      30.505  64.484   7.814  1.00  0.00     0.205 HD
BRANCH  16  21
HETATM   21  N7  UNL     1      33.440  66.929   7.826  1.00  0.00    -0.331 N
ATOM     22  H72 UNL     1      33.661  66.264   8.568  1.00  0.00     0.177 HD
ATOM     23  H71 UNL     1      34.001  67.776   7.745  1.00  0.00     0.177 HD
ENDBRANCH  16  21
ENDBRANCH  11  13
ENDBRANCH   4  11
BRANCH   1  24
HETATM   24  N1  UNL     1      27.898  62.841  12.213  1.00  0.00    -0.229 N
HETATM   25  C1  UNL     1      27.878  63.098  13.618  1.00  0.00     0.165 C
ATOM     26  H1  UNL     1      27.938  61.870  11.904  1.00  0.00     0.177 HD
ENDBRANCH   1  24
TORSDOF 4
ENDMDL