MODEL 5
REMARK VINA RESULT: -7.154375388      1.411      1.850
REMARK  6 active torsions:
REMARK  status: ('A' for Active; 'I' for Inactive)
REMARK    1  A    between atoms: C1_4  and  O1_5
REMARK    2  A    between atoms: C1_4  and  C2_7
REMARK       I    between atoms: C2_7  and  N2_9
REMARK    3  A    between atoms: N2_9  and  N3_10
REMARK    4  A    between atoms: N3_10  and  C3_12
REMARK    5  A    between atoms: C3_12  and  N4_14
REMARK    6  A    between atoms: N4_14  and  C4_16
ROOT
HETATM    1  C3  UNL     1      29.722  65.969  10.125  1.00  0.00     0.204 C
HETATM    2  S1  UNL     1      28.575  67.043  10.159  1.00  0.00    -0.038 SA
ENDROOT
BRANCH   1   3
HETATM    3  N3  UNL     1      29.713  64.566  10.017  1.00  0.00    -0.205 N
ATOM      4  H3  UNL     1      30.458  64.095   9.503  1.00  0.00     0.204 HD
BRANCH   3   5
HETATM    5  N2  UNL     1      28.737  63.841  10.582  1.00  0.00    -0.275 NA
HETATM    6  C2  UNL     1      27.764  63.104  11.163  1.00  0.00     0.385 C
HETATM    7  O2  UNL     1      27.820  62.269  12.069  1.00  0.00    -0.245 OA
BRANCH   6   8
HETATM    8  C1  UNL     1      26.419  63.379  10.610  1.00  0.00     0.220 C
HETATM    9  N1  UNL     1      25.313  62.845  11.154  1.00  0.00    -0.374 N
ATOM     10  H12 UNL     1      24.386  63.035  10.772  1.00  0.00     0.158 HD
ATOM     11  H11 UNL     1      25.380  62.245  11.976  1.00  0.00     0.158 HD
BRANCH   8  12
HETATM   12  O1  UNL     1      26.332  64.157   9.544  1.00  0.00    -0.341 OA
ATOM     13  H1  UNL     1      26.820  64.970   9.502  1.00  0.00     0.219 HD
ENDBRANCH   8  12
ENDBRANCH   6   8
ENDBRANCH   3   5
ENDBRANCH   1   3
BRANCH   1  14
HETATM   14  N4  UNL     1      31.149  66.485  10.164  1.00  0.00    -0.301 N
ATOM     15  H4  UNL     1      31.609  66.817  11.011  1.00  0.00     0.171 HD
BRANCH  14  16
HETATM   16  C4  UNL     1      31.714  66.456   8.999  1.00  0.00     0.218 A
HETATM   17  N5  UNL     1      31.388  66.984   7.803  1.00  0.00    -0.254 N
HETATM   18  N6  UNL     1      32.387  67.046   6.971  1.00  0.00    -0.225 N
ATOM     19  H5  UNL     1      30.448  67.304   7.571  1.00  0.00     0.191 HD
HETATM   20  N7  UNL     1      33.406  66.566   7.603  1.00  0.00    -0.225 N
ATOM     21  H6  UNL     1      32.369  67.402   6.015  1.00  0.00     0.210 HD
HETATM   22  N8  UNL     1      33.081  66.166   8.848  1.00  0.00    -0.254 N
ATOM     23  H7  UNL     1      34.344  66.497   7.208  1.00  0.00     0.210 HD
ATOM     24  H8  UNL     1      33.700  65.741   9.539  1.00  0.00     0.191 HD
ENDBRANCH  14  16
ENDBRANCH   1  14
TORSDOF 6
ENDMDL