MODEL 3
REMARK VINA RESULT: -6.989678838      2.269      2.699
REMARK  2 active torsions:
REMARK  status: ('A' for Active; 'I' for Inactive)
REMARK    1  A    between atoms: C2_3  and  C3_4
REMARK    2  A    between atoms: C3_4  and  O1_5
REMARK       I    between atoms: N2_7  and  C4_9
REMARK       I    between atoms: C4_9  and  N4_13
ROOT
HETATM    1  N1  UNL     1      29.284  64.012  10.514  1.00  0.00    -0.193 NA
HETATM    2  C1  UNL     1      28.937  64.984  10.028  1.00  0.00     0.126 C
HETATM    3  C2  UNL     1      28.461  66.289   9.412  1.00  0.00     0.396 C
HETATM    4  N5  UNL     1      28.417  67.232  10.534  1.00  0.00    -0.013 N
ATOM      5  H51 UNL     1      29.268  67.785  10.640  1.00  0.00     0.283 HD
ATOM      6  H52 UNL     1      28.451  66.784  11.449  1.00  0.00     0.283 HD
HETATM    7  C5  UNL     1      27.221  68.033  10.316  1.00  0.00     0.368 C
HETATM    8  N6  UNL     1      26.084  67.139  10.181  1.00  0.00    -0.291 N
ATOM      9  H6  UNL     1      25.174  67.116  10.642  1.00  0.00     0.174 HD
HETATM   10  S1  UNL     1      26.813  66.099   8.938  1.00  0.00     0.285 S
HETATM   11  O2  UNL     1      26.297  64.687   9.159  1.00  0.00    -0.202 OA
HETATM   12  O3  UNL     1      26.491  66.584   7.586  1.00  0.00    -0.202 OA
ENDROOT
BRANCH   3  13
HETATM   13  C3  UNL     1      29.485  66.661   8.460  1.00  0.00     0.200 C
HETATM   14  N2  UNL     1      30.837  66.529   8.572  1.00  0.00    -0.171 N
HETATM   15  C4  UNL     1      31.822  66.908   7.618  1.00  0.00     0.671 C
ATOM     16  H2  UNL     1      31.182  66.111   9.436  1.00  0.00     0.186 HD
HETATM   17  N3  UNL     1      33.110  66.656   7.886  1.00  0.00    -0.235 N
HETATM   18  N4  UNL     1      31.518  67.467   6.404  1.00  0.00    -0.235 N
ATOM     19  H32 UNL     1      33.336  66.240   8.789  1.00  0.00     0.174 HD
ATOM     20  H31 UNL     1      33.817  66.928   7.202  1.00  0.00     0.174 HD
ATOM     21  H42 UNL     1      30.538  67.659   6.199  1.00  0.00     0.174 HD
ATOM     22  H41 UNL     1      32.225  67.739   5.720  1.00  0.00     0.174 HD
BRANCH  13  23
HETATM   23  O1  UNL     1      29.050  67.202   7.312  1.00  0.00    -0.345 OA
ATOM     24  H1  UNL     1      29.347  66.780   6.514  1.00  0.00     0.219 HD
ENDBRANCH  13  23
ENDBRANCH   3  13
TORSDOF 2
ENDMDL