MODEL 3
REMARK VINA RESULT: -6.235353805      2.166      3.566
REMARK  3 active torsions:
REMARK  status: ('A' for Active; 'I' for Inactive)
REMARK    1  A    between atoms: C2_2  and  O1_3
REMARK    2  A    between atoms: N3_12  and  N4_14
REMARK    3  A    between atoms: C7_19  and  N7_21
ROOT
HETATM    1  C1  UNL     1      25.340  63.197   9.675  1.00  0.00     0.074 C
HETATM    2  C2  UNL     1      25.094  64.617  10.204  1.00  0.00     0.168 C
HETATM    3  N1  UNL     1      25.785  64.722  11.443  1.00  0.00    -0.342 N
ATOM      4  H1  UNL     1      25.361  64.233  12.232  1.00  0.00     0.164 HD
HETATM    5  C3  UNL     1      26.872  65.352  11.693  1.00  0.00     0.167 C
HETATM    6  N2  UNL     1      27.466  65.379  12.990  1.00  0.00    -0.079 NA
HETATM    7  C4  UNL     1      27.498  66.061  10.586  1.00  0.00     0.239 C
HETATM    8  O2  UNL     1      28.557  66.702  10.736  1.00  0.00    -0.283 OA
HETATM    9  C5  UNL     1      26.887  66.036   9.254  1.00  0.00     0.119 C
HETATM   10  N3  UNL     1      27.506  66.393   8.197  1.00  0.00    -0.296 N
ATOM     11  H3  UNL     1      27.044  66.361   7.288  1.00  0.00     0.187 HD
HETATM   12  C7  UNL     1      25.486  65.575   9.136  1.00  0.00     0.215 C
HETATM   13  C8  UNL     1      24.613  66.830   9.261  1.00  0.00     0.058 C
ENDROOT
BRANCH  10  14
HETATM   14  N4  UNL     1      28.826  66.828   8.309  1.00  0.00    -0.276 N
HETATM   15  C6  UNL     1      29.712  66.481   7.449  1.00  0.00     0.215 C
HETATM   16  N5  UNL     1      31.039  66.959   7.619  1.00  0.00    -0.065 NA
HETATM   17  N6  UNL     1      29.335  65.646   6.378  1.00  0.00    -0.065 NA
ATOM     18  H4  UNL     1      29.090  67.432   9.087  1.00  0.00     0.189 HD
ENDBRANCH  10  14
BRANCH  12  19
HETATM   19  N7  UNL     1      25.282  65.074   7.800  1.00  0.00    -0.060 N
ATOM     20  H73 UNL     1      26.169  64.795   7.381  1.00  0.00     0.275 HD
ATOM     21  H72 UNL     1      24.811  64.170   7.823  1.00  0.00     0.275 HD
ATOM     22  H71 UNL     1      24.784  65.721   7.188  1.00  0.00     0.275 HD
ENDBRANCH  12  19
BRANCH   2  23
HETATM   23  O1  UNL     1      23.701  64.729  10.418  1.00  0.00    -0.368 OA
ATOM     24  H1  UNL     1      23.507  64.221  11.196  1.00  0.00     0.212 HD
ENDBRANCH   2  23
TORSDOF 3
ENDMDL