MODEL 1
REMARK VINA RESULT: -5.476411127      0.000      0.000
REMARK  0 active torsions:
REMARK  status: ('A' for Active; 'I' for Inactive)
ROOT
HETATM    1  C1  UNL     1     115.902   7.345  49.085  1.00  0.00     0.262 C
HETATM    2  C2  UNL     1     114.772   6.429  48.600  1.00  0.00     0.198 C
HETATM    3  O1  UNL     1     113.997   7.232  47.765  1.00  0.00    -0.349 OA
HETATM    4  C3  UNL     1     114.404   8.523  47.906  1.00  0.00     0.276 C
HETATM    5  C4  UNL     1     113.278   9.527  47.975  1.00  0.00     0.239 C
HETATM    6  O2  UNL     1     113.809  10.670  48.535  1.00  0.00    -0.384 OA
HETATM    7  C5  UNL     1     114.810  11.256  47.809  1.00  0.00     0.202 C
HETATM    8  C6  UNL     1     115.607  10.370  46.938  1.00  0.00     0.180 A
HETATM    9  O3  UNL     1     114.876   9.847  45.839  1.00  0.00    -0.368 OA
HETATM   10  C7  UNL     1     115.336   9.004  46.824  1.00  0.00     0.218 A
HETATM   11  N1  UNL     1     115.161   8.612  49.160  1.00  0.00    -0.036 N
ATOM     12  H11 UNL     1     115.723   9.453  49.284  1.00  0.00     0.281 HD
ATOM     13  H12 UNL     1     114.610   8.760  50.006  1.00  0.00     0.281 HD
ENDROOT
TORSDOF 0
ENDMDL