MODEL 4
REMARK VINA RESULT: -4.352925389      2.158      2.289
REMARK  0 active torsions:
REMARK  status: ('A' for Active; 'I' for Inactive)
ROOT
HETATM    1  N1  UNL     1     114.291   6.446  47.569  1.00  0.00    -0.195 NA
HETATM    2  C1  UNL     1     114.734   7.453  47.918  1.00  0.00     0.092 C
HETATM    3  C2  UNL     1     115.311   8.707  48.356  1.00  0.00     0.298 C
HETATM    4  S1  UNL     1     114.073   9.695  49.275  1.00  0.00    -0.112 SA
HETATM    5  C3  UNL     1     113.891  11.125  48.144  1.00  0.00     0.208 C
HETATM    6  N2  UNL     1     115.266  11.347  47.697  1.00  0.00    -0.308 N
ATOM      7  H2  UNL     1     115.851  12.178  47.784  1.00  0.00     0.173 HD
HETATM    8  S2  UNL     1     115.629   9.801  46.976  1.00  0.00     0.253 S
HETATM    9  O1  UNL     1     114.646   9.591  45.879  1.00  0.00    -0.204 OA
HETATM   10  O2  UNL     1     117.043   9.757  46.546  1.00  0.00    -0.204 OA
ENDROOT
TORSDOF 0
ENDMDL