MODEL 1
REMARK VINA RESULT: -5.286200851      0.000      0.000
REMARK  0 active torsions:
REMARK  status: ('A' for Active; 'I' for Inactive)
ROOT
HETATM    1  C1  UNL     1     116.072   9.531  46.694  1.00  0.00     0.053 C
HETATM    2  C2  UNL     1     116.313   8.799  47.993  1.00  0.00     0.173 C
HETATM    3  O1  UNL     1     115.439   9.184  48.973  1.00  0.00    -0.352 OA
HETATM    4  C3  UNL     1     114.135   9.149  48.543  1.00  0.00     0.210 C
HETATM    5  C4  UNL     1     113.190   9.524  49.672  1.00  0.00     0.305 C
HETATM    6  N1  UNL     1     112.328   8.430  50.044  1.00  0.00    -0.049 N
ATOM      7  H11 UNL     1     111.645   8.735  50.738  1.00  0.00     0.279 HD
ATOM      8  H12 UNL     1     112.842   7.742  50.595  1.00  0.00     0.279 HD
HETATM    9  C5  UNL     1     111.673   7.797  48.946  1.00  0.00     0.399 C
HETATM   10  O2  UNL     1     112.451   7.737  47.788  1.00  0.00    -0.359 OA
HETATM   11  C6  UNL     1     113.792   7.684  48.235  1.00  0.00     0.240 C
HETATM   12  O3  UNL     1     113.855   9.974  47.479  1.00  0.00    -0.352 OA
HETATM   13  C7  UNL     1     114.959  10.541  46.886  1.00  0.00     0.173 C
ENDROOT
TORSDOF 0
ENDMDL