MODEL 2
REMARK VINA RESULT: -5.348015913      2.210      2.709
REMARK  3 active torsions:
REMARK  status: ('A' for Active; 'I' for Inactive)
REMARK    1  A    between atoms: O1_1  and  S1_3
REMARK    2  A    between atoms: S1_3  and  O2_4
REMARK    3  A    between atoms: S1_3  and  O3_6
ROOT
HETATM    1  S1  UNL     1     113.440  10.781  48.357  1.00  0.00     0.034 SA
HETATM    2  C1  UNL     1     114.152   9.618  49.706  1.00  0.00     0.139 C
HETATM    3  C2  UNL     1     115.251   9.126  48.909  1.00  0.00     0.096 C
HETATM    4  C3  UNL     1     115.892   9.047  48.127  1.00  0.00    -0.156 C
HETATM    5  C4  UNL     1     116.514   9.273  46.900  1.00  0.00     0.255 C
HETATM    6  O4  UNL     1     115.521  10.302  46.349  1.00  0.00    -0.342 OA
HETATM    7  C5  UNL     1     115.059  11.056  47.422  1.00  0.00     0.226 C
ENDROOT
BRANCH   1   8
HETATM    8  O1  UNL     1     112.414   9.308  47.824  1.00  0.00    -0.313 OA
ATOM      9  H1  UNL     1     111.694   9.893  48.027  1.00  0.00     0.229 HD
ENDBRANCH   1   8
BRANCH   1  10
HETATM   10  O2  UNL     1     112.509  11.539  47.336  1.00  0.00    -0.313 OA
ATOM     11  H2  UNL     1     113.137  12.239  47.473  1.00  0.00     0.229 HD
ENDBRANCH   1  10
BRANCH   1  12
HETATM   12  O3  UNL     1     112.827  11.861  49.575  1.00  0.00    -0.313 OA
ATOM     13  H3  UNL     1     113.415  12.201  50.240  1.00  0.00     0.229 HD
ENDBRANCH   1  12
TORSDOF 3
ENDMDL