MODEL 3
REMARK VINA RESULT: -4.244720741      3.039      3.568
REMARK  0 active torsions:
REMARK  status: ('A' for Active; 'I' for Inactive)
ROOT
HETATM    1  O1  UNL     1     113.863  11.280  49.256  1.00  0.00    -0.205 OA
HETATM    2  S1  UNL     1     113.582  10.746  47.909  1.00  0.00     0.235 S
HETATM    3  O2  UNL     1     112.931  11.742  46.990  1.00  0.00    -0.205 OA
HETATM    4  C1  UNL     1     115.045  10.165  47.073  1.00  0.00     0.165 C
HETATM    5  C2  UNL     1     115.752   9.150  47.951  1.00  0.00     0.029 C
HETATM    6  C3  UNL     1     114.931   7.860  47.831  1.00  0.00     0.099 C
HETATM    7  S2  UNL     1     113.457   8.107  48.870  1.00  0.00    -0.045 SA
HETATM    8  N1  UNL     1     112.503   9.388  48.081  1.00  0.00    -0.258 N
ATOM      9  H1  UNL     1     111.527   9.336  47.790  1.00  0.00     0.186 HD
ENDROOT
TORSDOF 0
ENDMDL