MODEL 4
REMARK VINA RESULT: -5.220282545      1.767      3.160
REMARK  1 active torsions:
REMARK  status: ('A' for Active; 'I' for Inactive)
REMARK    1  A    between atoms: O1_1  and  C1_3
ROOT
HETATM    1  C1  UNL     1     114.451   7.385  48.330  1.00  0.00     0.217 C
HETATM    2  O2  UNL     1     115.106   6.840  49.413  1.00  0.00    -0.348 OA
HETATM    3  C2  UNL     1     116.285   6.845  48.633  1.00  0.00     0.209 C
HETATM    4  C3  UNL     1     115.696   8.064  47.911  1.00  0.00     0.210 C
HETATM    5  O3  UNL     1     115.969   9.259  48.477  1.00  0.00    -0.371 OA
HETATM    6  C4  UNL     1     114.911  10.093  48.715  1.00  0.00     0.148 C
HETATM    7  C5  UNL     1     113.977  10.227  47.526  1.00  0.00     0.200 C
HETATM    8  O4  UNL     1     113.147   9.139  47.524  1.00  0.00    -0.378 OA
HETATM    9  C6  UNL     1     113.367   8.385  48.645  1.00  0.00     0.189 C
HETATM   10  C7  UNL     1     113.965   9.354  49.672  1.00  0.00     0.071 C
ENDROOT
BRANCH   1  11
HETATM   11  O1  UNL     1     113.978   6.409  47.488  1.00  0.00    -0.361 OA
ATOM     12  H1  UNL     1     113.305   5.886  47.908  1.00  0.00     0.213 HD
ENDBRANCH   1  11
TORSDOF 1
ENDMDL