MODEL 2
REMARK VINA RESULT: -5.397346187      1.612      3.812
REMARK  1 active torsions:
REMARK  status: ('A' for Active; 'I' for Inactive)
REMARK    1  A    between atoms: O1_1  and  C1_3
ROOT
HETATM    1  C1  UNL     1     114.017  10.687  48.869  1.00  0.00     0.204 C
HETATM    2  C2  UNL     1     114.349  11.182  47.478  1.00  0.00     0.204 C
HETATM    3  O2  UNL     1     115.493  10.561  47.077  1.00  0.00    -0.388 OA
HETATM    4  C3  UNL     1     115.479   9.205  47.050  1.00  0.00     0.173 C
HETATM    5  C4  UNL     1     114.760   8.508  48.138  1.00  0.00     0.097 C
HETATM    6  C5  UNL     1     113.568   9.242  48.681  1.00  0.00     0.194 C
HETATM    7  O3  UNL     1     113.174   8.692  49.878  1.00  0.00    -0.350 OA
HETATM    8  C6  UNL     1     112.253   7.686  49.591  1.00  0.00     0.198 C
HETATM    9  C7  UNL     1     111.861   7.966  48.175  1.00  0.00     0.198 C
HETATM   10  O4  UNL     1     112.496   9.144  47.800  1.00  0.00    -0.350 OA
ENDROOT
BRANCH   1  11
HETATM   11  O1  UNL     1     113.103  11.455  49.529  1.00  0.00    -0.388 OA
ATOM     12  H1  UNL     1     112.421  11.811  48.973  1.00  0.00     0.210 HD
ENDBRANCH   1  11
TORSDOF 1
ENDMDL