MODEL 5
REMARK VINA RESULT: -5.320484235      2.179      3.011
REMARK  1 active torsions:
REMARK  status: ('A' for Active; 'I' for Inactive)
REMARK    1  A    between atoms: C8_13  and  O2_14
ROOT
HETATM    1  N1  UNL     1     115.970   6.039  49.819  1.00  0.00    -0.195 NA
HETATM    2  C1  UNL     1     115.181   6.263  48.998  1.00  0.00     0.095 C
HETATM    3  C2  UNL     1     114.180   6.554  47.965  1.00  0.00     0.323 C
HETATM    4  N2  UNL     1     114.789   7.587  47.109  1.00  0.00    -0.049 N
ATOM      5  H21 UNL     1     114.327   7.753  46.215  1.00  0.00     0.279 HD
ATOM      6  H22 UNL     1     115.688   7.347  46.692  1.00  0.00     0.279 HD
HETATM    7  C3  UNL     1     114.798   8.700  48.029  1.00  0.00     0.219 C
HETATM    8  C4  UNL     1     115.133  10.007  47.398  1.00  0.00     0.038 C
HETATM    9  C5  UNL     1     114.115  11.030  47.928  1.00  0.00     0.028 C
HETATM   10  C6  UNL     1     113.804  10.725  49.367  1.00  0.00     0.168 C
HETATM   11  O1  UNL     1     113.237   9.494  49.573  1.00  0.00    -0.381 OA
HETATM   12  C7  UNL     1     113.332   8.746  48.438  1.00  0.00     0.183 C
HETATM   13  C8  UNL     1     113.003   7.299  48.591  1.00  0.00     0.193 C
ENDROOT
BRANCH  13  14
HETATM   14  O2  UNL     1     112.745   6.902  49.876  1.00  0.00    -0.390 OA
ATOM     15  H2  UNL     1     113.245   7.390  50.520  1.00  0.00     0.210 HD
ENDBRANCH  13  14
TORSDOF 1
ENDMDL