MODEL 5
REMARK VINA RESULT: -4.441581744      1.912      2.888
REMARK  1 active torsions:
REMARK  status: ('A' for Active; 'I' for Inactive)
REMARK    1  A    between atoms: C4_8  and  O3_9
ROOT
HETATM    1  O1  UNL     1     112.943  10.091  47.180  1.00  0.00    -0.061 OA
HETATM    2  N1  UNL     1     113.996  10.185  47.981  1.00  0.00     0.054 N
HETATM    3  C1  UNL     1     113.692  10.514  49.347  1.00  0.00     0.389 C
HETATM    4  S1  UNL     1     112.869   8.935  49.823  1.00  0.00    -0.128 SA
HETATM    5  C2  UNL     1     113.556   7.923  48.440  1.00  0.00     0.147 C
HETATM    6  C3  UNL     1     114.668   8.871  48.010  1.00  0.00     0.404 C
HETATM    7  O2  UNL     1     115.040   8.741  46.704  1.00  0.00    -0.319 OA
HETATM    8  C4  UNL     1     115.438  10.016  46.249  1.00  0.00     0.294 C
HETATM    9  C5  UNL     1     115.009  10.980  47.368  1.00  0.00     0.376 C
ENDROOT
BRANCH   8  10
HETATM   10  O3  UNL     1     116.782  10.092  45.990  1.00  0.00    -0.369 OA
ATOM     11  H3  UNL     1     117.044   9.560  45.248  1.00  0.00     0.212 HD
ENDBRANCH   8  10
TORSDOF 1
ENDMDL