MODEL 1
REMARK VINA RESULT: -4.916393207      0.000      0.000
REMARK  0 active torsions:
REMARK  status: ('A' for Active; 'I' for Inactive)
ROOT
HETATM    1  C1  UNL     1     112.667   9.175  48.169  1.00  0.00     0.142 C
HETATM    2  C2  UNL     1     113.501   8.674  49.320  1.00  0.00     0.187 C
HETATM    3  O1  UNL     1     113.872   7.364  49.221  1.00  0.00    -0.387 OA
HETATM    4  C3  UNL     1     114.768   7.077  48.229  1.00  0.00     0.193 C
HETATM    5  C4  UNL     1     116.175   7.518  48.505  1.00  0.00     0.193 C
HETATM    6  O2  UNL     1     116.413   8.846  48.275  1.00  0.00    -0.387 OA
HETATM    7  C5  UNL     1     116.620   9.184  46.959  1.00  0.00     0.193 C
HETATM    8  C6  UNL     1     115.773  10.361  46.507  1.00  0.00     0.196 C
HETATM    9  O3  UNL     1     114.966  10.719  47.559  1.00  0.00    -0.370 OA
HETATM   10  C7  UNL     1     113.693  11.118  47.187  1.00  0.00     0.285 C
HETATM   11  N1  UNL     1     112.748  10.594  48.129  1.00  0.00    -0.399 N
ATOM     12  H1  UNL     1     112.177  11.193  48.726  1.00  0.00     0.155 HD
ENDROOT
TORSDOF 0
ENDMDL