MODEL 3
REMARK VINA RESULT: -7.317650317      1.584      2.194
REMARK  9 active torsions:
REMARK  status: ('A' for Active; 'I' for Inactive)
REMARK    1  A    between atoms: N1_1  and  C1_5
REMARK    2  A    between atoms: C1_5  and  N2_6
REMARK    3  A    between atoms: C3_13  and  N4_14
REMARK    4  A    between atoms: N4_14  and  C4_16
REMARK    5  A    between atoms: C4_16  and  C5_17
REMARK    6  A    between atoms: C5_17  and  C6_18
REMARK    7  A    between atoms: C6_18  and  S1_19
REMARK    8  A    between atoms: S1_19  and  N5_22
REMARK    9  A    between atoms: N5_22  and  C7_24
ROOT
HETATM    1  C1  UNL     1     -23.972  39.178  44.424  1.00  0.00     0.377 C
HETATM    2  C2  UNL     1     -24.243  37.738  44.062  1.00  0.00     0.218 C
HETATM    3  N3  UNL     1     -25.104  37.058  44.962  1.00  0.00    -0.222 N
ATOM      4  H3  UNL     1     -25.049  36.040  44.967  1.00  0.00     0.177 HD
HETATM    5  C3  UNL     1     -25.944  37.596  45.772  1.00  0.00     0.676 C
HETATM    6  N9  UNL     1     -26.077  39.015  45.826  1.00  0.00    -0.156 N
ATOM      7  H9  UNL     1     -26.737  39.463  46.462  1.00  0.00     0.187 HD
HETATM    8  C8  UNL     1     -25.245  39.788  44.951  1.00  0.00     0.302 C
HETATM    9  O4  UNL     1     -25.565  40.956  44.623  1.00  0.00    -0.268 OA
ENDROOT
BRANCH   5  10
HETATM   10  N4  UNL     1     -26.748  36.800  46.621  1.00  0.00    -0.226 N
ATOM     11  H4  UNL     1     -27.423  36.147  46.223  1.00  0.00     0.177 HD
BRANCH  10  12
HETATM   12  C4  UNL     1     -26.612  36.913  48.037  1.00  0.00     0.139 C
BRANCH  12  13
HETATM   13  C5  UNL     1     -25.215  36.815  48.540  1.00  0.00     0.037 C
BRANCH  13  14
HETATM   14  C6  UNL     1     -24.664  35.410  48.512  1.00  0.00     0.165 C
BRANCH  14  15
HETATM   15  S1  UNL     1     -23.287  35.317  47.394  1.00  0.00     0.244 S
HETATM   16  O1  UNL     1     -23.782  34.640  46.144  1.00  0.00    -0.205 OA
HETATM   17  O2  UNL     1     -22.722  36.677  47.095  1.00  0.00    -0.205 OA
BRANCH  15  18
HETATM   18  N5  UNL     1     -22.074  34.299  48.072  1.00  0.00    -0.114 N
ATOM     19  H5  UNL     1     -22.101  33.290  47.920  1.00  0.00     0.197 HD
BRANCH  18  20
HETATM   20  C7  UNL     1     -21.131  34.827  48.774  1.00  0.00     0.726 A
HETATM   21  N6  UNL     1     -21.274  35.730  49.781  1.00  0.00    -0.106 N
HETATM   22  N7  UNL     1     -20.069  36.041  50.266  1.00  0.00     0.062 NA
ATOM     23  H6  UNL     1     -22.161  36.109  50.114  1.00  0.00     0.203 HD
HETATM   24  O3  UNL     1     -19.200  35.348  49.574  1.00  0.00    -0.127 OA
HETATM   25  N8  UNL     1     -19.803  34.631  48.696  1.00  0.00    -0.072 N
ATOM     26  H8  UNL     1     -19.342  34.004  48.036  1.00  0.00     0.215 HD
ENDBRANCH  18  20
ENDBRANCH  15  18
ENDBRANCH  14  15
ENDBRANCH  13  14
ENDBRANCH  12  13
ENDBRANCH  10  12
ENDBRANCH   5  10
BRANCH   1  27
HETATM   27  N1  UNL     1     -23.526  39.860  43.237  1.00  0.00    -0.034 N
ATOM     28  H13 UNL     1     -22.739  40.479  43.437  1.00  0.00     0.278 HD
ATOM     29  H12 UNL     1     -23.064  39.219  42.591  1.00  0.00     0.278 HD
ATOM     30  H11 UNL     1     -24.289  40.361  42.782  1.00  0.00     0.278 HD
ENDBRANCH   1  27
BRANCH   1  31
HETATM   31  N2  UNL     1     -22.995  39.269  45.492  1.00  0.00    -0.034 N
ATOM     32  H23 UNL     1     -23.231  40.012  46.151  1.00  0.00     0.278 HD
ATOM     33  H22 UNL     1     -23.058  38.471  46.124  1.00  0.00     0.278 HD
ATOM     34  H21 UNL     1     -22.049  39.382  45.128  1.00  0.00     0.278 HD
ENDBRANCH   1  31
TORSDOF 9
ENDMDL