MODEL 4
REMARK VINA RESULT: -8.343244741      2.710      3.261
REMARK  9 active torsions:
REMARK  status: ('A' for Active; 'I' for Inactive)
REMARK    1  A    between atoms: N1_2  and  C2_4
REMARK    2  A    between atoms: C3_7  and  N3_8
REMARK    3  A    between atoms: C8_16  and  N5_17
REMARK    4  A    between atoms: N5_17  and  N6_19
REMARK    5  A    between atoms: C9_21  and  C10_22
REMARK    6  A    between atoms: C10_22  and  O2_23
REMARK    7  A    between atoms: C10_22  and  C11_25
REMARK    8  A    between atoms: C11_25  and  N7_26
REMARK    9  A    between atoms: C11_25  and  C12_30
ROOT
HETATM    1  C2  UNL     1     -24.361  39.226  45.754  1.00  0.00     0.706 A
HETATM    2  N2  UNL     1     -25.648  38.992  46.025  1.00  0.00    -0.021 N
ATOM      3  H2  UNL     1     -26.323  39.742  45.882  1.00  0.00     0.203 HD
HETATM    4  C3  UNL     1     -26.094  37.781  46.488  1.00  0.00     0.709 A
HETATM    5  N4  UNL     1     -25.162  36.830  46.657  1.00  0.00    -0.020 N
ATOM      6  H4  UNL     1     -25.457  35.915  46.999  1.00  0.00     0.203 HD
HETATM    7  C8  UNL     1     -23.867  37.027  46.397  1.00  0.00     0.726 A
HETATM    8  N8  UNL     1     -23.481  38.232  45.946  1.00  0.00    -0.020 N
ATOM      9  H8  UNL     1     -22.495  38.395  45.745  1.00  0.00     0.203 HD
ENDROOT
BRANCH   7  10
HETATM   10  N5  UNL     1     -22.999  36.136  46.567  1.00  0.00    -0.132 N
ATOM     11  H5  UNL     1     -22.050  36.455  46.375  1.00  0.00     0.205 HD
BRANCH  10  12
HETATM   12  N6  UNL     1     -23.064  34.837  46.953  1.00  0.00    -0.299 N
HETATM   13  C9  UNL     1     -22.373  34.465  48.001  1.00  0.00     0.115 C
ATOM     14  H6  UNL     1     -23.637  34.167  46.440  1.00  0.00     0.186 HD
BRANCH  13  15
HETATM   15  C10 UNL     1     -21.526  35.370  48.795  1.00  0.00     0.199 C
BRANCH  15  16
HETATM   16  O2  UNL     1     -22.213  36.089  49.755  1.00  0.00    -0.388 OA
ATOM     17  H2  UNL     1     -21.672  36.388  50.476  1.00  0.00     0.210 HD
ENDBRANCH  15  16
BRANCH  15  18
HETATM   18  C11 UNL     1     -20.455  34.520  49.475  1.00  0.00     0.316 C
BRANCH  18  19
HETATM   19  N7  UNL     1     -19.184  34.754  48.782  1.00  0.00    -0.062 N
ATOM     20  H73 UNL     1     -19.311  35.064  47.819  1.00  0.00     0.275 HD
ATOM     21  H72 UNL     1     -18.691  35.577  49.128  1.00  0.00     0.275 HD
ATOM     22  H71 UNL     1     -18.626  33.903  48.852  1.00  0.00     0.275 HD
ENDBRANCH  18  19
BRANCH  18  23
HETATM   23  C12 UNL     1     -20.385  34.910  50.899  1.00  0.00     0.207 C
HETATM   24  O3  UNL     1     -20.695  34.090  51.784  1.00  0.00    -0.646 OA
HETATM   25  O4  UNL     1     -19.979  36.170  51.261  1.00  0.00    -0.646 OA
ENDBRANCH  18  23
ENDBRANCH  15  18
ENDBRANCH  13  15
ENDBRANCH  10  12
ENDBRANCH   7  10
BRANCH   4  26
HETATM   26  N3  UNL     1     -27.470  37.588  46.757  1.00  0.00    -0.213 N
HETATM   27  C4  UNL     1     -28.288  36.837  45.842  1.00  0.00     0.167 C
HETATM   28  C5  UNL     1     -29.522  36.386  46.615  1.00  0.00     0.188 C
HETATM   29  O1  UNL     1     -30.216  37.437  47.143  1.00  0.00    -0.388 OA
HETATM   30  C6  UNL     1     -29.499  38.390  47.809  1.00  0.00     0.188 C
HETATM   31  C7  UNL     1     -28.040  38.131  47.954  1.00  0.00     0.167 C
ENDBRANCH   4  26
BRANCH   1  32
HETATM   32  N1  UNL     1     -23.900  40.354  45.325  1.00  0.00    -0.229 N
HETATM   33  C1  UNL     1     -22.736  40.303  44.465  1.00  0.00     0.165 C
ATOM     34  H1  UNL     1     -24.337  41.240  45.580  1.00  0.00     0.177 HD
ENDBRANCH   1  32
TORSDOF 9
ENDMDL