MODEL 5
REMARK VINA RESULT: -7.617097388      3.353      5.567
REMARK  10 active torsions:
REMARK  status: ('A' for Active; 'I' for Inactive)
REMARK    1  A    between atoms: N1_1  and  C1_4
REMARK    2  A    between atoms: N4_9  and  C2_10
REMARK    3  A    between atoms: C2_10  and  C3_11
REMARK    4  A    between atoms: C3_11  and  O1_12
REMARK    5  A    between atoms: C3_11  and  C4_14
REMARK    6  A    between atoms: N5_15  and  S1_17
REMARK    7  A    between atoms: S1_17  and  N6_19
REMARK    8  A    between atoms: S1_17  and  C5_23
REMARK    9  A    between atoms: N6_19  and  O3_21
REMARK   10  A    between atoms: C7_27  and  N8_28
ROOT
HETATM    1  C4  UNL     1     -25.327  35.203  45.512  1.00  0.00     0.105 C
HETATM    2  N5  UNL     1     -24.502  35.025  46.435  1.00  0.00    -0.307 N
ATOM      3  H5  UNL     1     -24.132  34.083  46.559  1.00  0.00     0.176 HD
ENDROOT
BRANCH   2   4
HETATM    4  S1  UNL     1     -23.955  36.216  47.486  1.00  0.00     0.168 S
HETATM    5  O2  UNL     1     -23.532  37.492  46.842  1.00  0.00    -0.221 OA
BRANCH   4   6
HETATM    6  N6  UNL     1     -25.057  36.598  48.563  1.00  0.00    -0.207 N
ATOM      7  H6  UNL     1     -25.052  36.202  49.503  1.00  0.00     0.206 HD
BRANCH   6   8
HETATM    8  O3  UNL     1     -26.014  37.491  48.159  1.00  0.00    -0.281 OA
ATOM      9  H3  UNL     1     -26.897  37.327  48.467  1.00  0.00     0.245 HD
ENDBRANCH   6   8
ENDBRANCH   4   6
BRANCH   4  10
HETATM   10  C5  UNL     1     -22.567  35.636  48.416  1.00  0.00     0.144 A
HETATM   11  C6  UNL     1     -22.138  36.271  49.559  1.00  0.00     0.135 A
HETATM   12  N7  UNL     1     -21.074  35.828  50.273  1.00  0.00    -0.200 N
HETATM   13  C7  UNL     1     -20.419  34.736  49.851  1.00  0.00     0.678 A
ATOM     14  H7  UNL     1     -20.775  36.317  51.117  1.00  0.00     0.183 HD
HETATM   15  N9  UNL     1     -20.815  34.099  48.744  1.00  0.00    -0.155 N
HETATM   16  C8  UNL     1     -21.871  34.513  48.008  1.00  0.00     0.282 A
ATOM     17  H9  UNL     1     -20.300  33.272  48.443  1.00  0.00     0.187 HD
HETATM   18  O4  UNL     1     -22.247  33.925  46.973  1.00  0.00    -0.266 OA
BRANCH  13  19
HETATM   19  N8  UNL     1     -19.402  34.284  50.504  1.00  0.00    -0.234 N
ATOM     20  H82 UNL     1     -18.561  34.859  50.570  1.00  0.00     0.174 HD
ATOM     21  H81 UNL     1     -19.433  33.367  50.949  1.00  0.00     0.174 HD
ENDBRANCH  13  19
ENDBRANCH   4  10
ENDBRANCH   2   4
BRANCH   1  22
HETATM   22  C3  UNL     1     -25.958  36.502  45.199  1.00  0.00     0.178 C
BRANCH  22  23
HETATM   23  C2  UNL     1     -25.234  37.209  44.070  1.00  0.00     0.208 C
BRANCH  23  24
HETATM   24  N4  UNL     1     -24.652  38.466  44.530  1.00  0.00    -0.202 N
HETATM   25  N3  UNL     1     -25.138  39.306  45.435  1.00  0.00    -0.211 N
HETATM   26  N2  UNL     1     -24.346  40.334  45.594  1.00  0.00    -0.115 N
ATOM     27  H3  UNL     1     -26.013  39.169  45.940  1.00  0.00     0.210 HD
HETATM   28  C1  UNL     1     -23.310  40.174  44.778  1.00  0.00     0.707 A
ATOM     29  H2  UNL     1     -24.497  41.118  46.230  1.00  0.00     0.207 HD
HETATM   30  N10 UNL     1     -23.517  39.018  44.131  1.00  0.00    -0.113 N
ATOM     31  H10 UNL     1     -22.891  38.621  43.431  1.00  0.00     0.207 HD
BRANCH  28  32
HETATM   32  N1  UNL     1     -22.282  40.956  44.608  1.00  0.00    -0.232 N
ATOM     33  H12 UNL     1     -22.083  41.490  43.763  1.00  0.00     0.174 HD
ATOM     34  H11 UNL     1     -21.528  41.166  45.262  1.00  0.00     0.174 HD
ENDBRANCH  28  32
ENDBRANCH  23  24
ENDBRANCH  22  23
BRANCH  22  35
HETATM   35  O1  UNL     1     -27.295  36.310  44.922  1.00  0.00    -0.389 OA
ATOM     36  H1  UNL     1     -27.539  35.392  44.949  1.00  0.00     0.210 HD
ENDBRANCH  22  35
ENDBRANCH   1  22
TORSDOF 10
ENDMDL