MODEL 4
REMARK VINA RESULT: -6.756568318      3.109      5.605
REMARK  8 active torsions:
REMARK  status: ('A' for Active; 'I' for Inactive)
REMARK    1  A    between atoms: N1_1  and  C1_5
REMARK    2  A    between atoms: C2_6  and  O1_7
REMARK    3  A    between atoms: C3_11  and  O2_12
REMARK    4  A    between atoms: O2_12  and  S2_13
REMARK    5  A    between atoms: S2_13  and  N4_14
REMARK    6  A    between atoms: C4_19  and  O5_20
REMARK    7  A    between atoms: O5_20  and  S3_21
REMARK    8  A    between atoms: S3_21  and  N5_22
ROOT
HETATM    1  C1  UNL     1     -25.294  36.726  43.668  1.00  0.00     0.264 C
HETATM    2  C2  UNL     1     -25.945  35.563  42.992  1.00  0.00     0.280 C
HETATM    3  N2  UNL     1     -27.377  35.805  42.986  1.00  0.00    -0.110 NA
HETATM    4  N3  UNL     1     -27.830  35.698  44.297  1.00  0.00    -0.109 NA
HETATM    5  C3  UNL     1     -27.251  36.672  45.186  1.00  0.00     0.285 C
HETATM    6  C4  UNL     1     -25.743  36.697  45.129  1.00  0.00     0.226 C
ENDROOT
BRANCH   5   7
HETATM    7  O2  UNL     1     -27.686  36.421  46.462  1.00  0.00    -0.233 OA
BRANCH   7   8
HETATM    8  S2  UNL     1     -29.001  37.346  46.916  1.00  0.00     0.357 S
HETATM    9  O3  UNL     1     -29.180  37.329  48.409  1.00  0.00    -0.176 OA
HETATM   10  O4  UNL     1     -28.735  38.776  46.527  1.00  0.00    -0.176 OA
BRANCH   8  11
HETATM   11  N4  UNL     1     -30.474  36.796  46.231  1.00  0.00    -0.306 N
ATOM     12  H42 UNL     1     -30.968  35.973  46.575  1.00  0.00     0.171 HD
ATOM     13  H41 UNL     1     -30.792  37.377  45.455  1.00  0.00     0.171 HD
ENDBRANCH   8  11
ENDBRANCH   7   8
ENDBRANCH   5   7
BRANCH   6  14
HETATM   14  O5  UNL     1     -25.144  35.674  45.820  1.00  0.00    -0.248 OA
BRANCH  14  15
HETATM   15  S3  UNL     1     -24.316  36.155  47.177  1.00  0.00     0.356 S
HETATM   16  O6  UNL     1     -23.707  34.914  47.801  1.00  0.00    -0.176 OA
HETATM   17  O7  UNL     1     -23.205  37.116  46.862  1.00  0.00    -0.176 OA
BRANCH  15  18
HETATM   18  N5  UNL     1     -25.329  36.867  48.369  1.00  0.00    -0.306 N
ATOM     19  H52 UNL     1     -25.859  36.313  49.042  1.00  0.00     0.171 HD
ATOM     20  H51 UNL     1     -25.340  37.886  48.329  1.00  0.00     0.171 HD
ENDBRANCH  15  18
ENDBRANCH  14  15
ENDBRANCH   6  14
BRANCH   1  21
HETATM   21  N1  UNL     1     -23.847  36.691  43.610  1.00  0.00    -0.069 N
ATOM     22  H13 UNL     1     -23.530  36.069  42.865  1.00  0.00     0.275 HD
ATOM     23  H12 UNL     1     -23.477  37.575  43.261  1.00  0.00     0.275 HD
ATOM     24  H11 UNL     1     -23.411  36.442  44.498  1.00  0.00     0.275 HD
ENDBRANCH   1  21
BRANCH   2  25
HETATM   25  O1  UNL     1     -25.441  35.305  41.729  1.00  0.00    -0.282 OA
HETATM   26  S1  UNL     1     -26.236  33.984  40.973  1.00  0.00     0.095 SA
ENDBRANCH   2  25
TORSDOF 8
ENDMDL