MODEL 1
REMARK VINA RESULT: -8.777442382      0.000      0.000
REMARK  11 active torsions:
REMARK  status: ('A' for Active; 'I' for Inactive)
REMARK    1  A    between atoms: C2_5  and  N2_6
REMARK    2  A    between atoms: N2_6  and  C3_8
REMARK    3  A    between atoms: C5_10  and  N3_11
REMARK    4  A    between atoms: N3_11  and  O2_13
REMARK    5  A    between atoms: N7_24  and  C8_25
REMARK    6  A    between atoms: C8_25  and  C9_26
REMARK    7  A    between atoms: C9_26  and  O4_27
REMARK    8  A    between atoms: C9_26  and  C10_29
REMARK    9  A    between atoms: C10_29  and  O5_30
REMARK   10  A    between atoms: C10_29  and  C11_32
REMARK   11  A    between atoms: C11_32  and  O6_33
ROOT
HETATM    1  O1  UNL     1     -27.727  37.820  45.969  1.00  0.00    -0.244 OA
HETATM    2  C1  UNL     1     -26.700  37.222  46.437  1.00  0.00     0.349 A
HETATM    3  N1  UNL     1     -26.013  37.557  47.542  1.00  0.00    -0.271 N
ATOM      4  H1  UNL     1     -26.218  38.340  48.163  1.00  0.00     0.174 HD
HETATM    5  C2  UNL     1     -25.012  36.680  47.682  1.00  0.00     0.253 A
HETATM    6  O3  UNL     1     -25.088  35.841  46.697  1.00  0.00    -0.194 OA
HETATM    7  N7  UNL     1     -26.091  36.137  45.929  1.00  0.00    -0.196 N
ENDROOT
BRANCH   5   8
HETATM    8  N2  UNL     1     -24.139  36.668  48.616  1.00  0.00    -0.305 N
ATOM      9  H2  UNL     1     -24.254  37.279  49.425  1.00  0.00     0.171 HD
BRANCH   8  10
HETATM   10  C3  UNL     1     -22.995  35.801  48.534  1.00  0.00     0.128 A
HETATM   11  C4  UNL     1     -21.853  35.592  49.170  1.00  0.00     0.098 A
HETATM   12  C5  UNL     1     -20.973  35.911  50.183  1.00  0.00     0.143 A
HETATM   13  C7  UNL     1     -21.480  34.564  48.331  1.00  0.00     0.125 A
HETATM   14  N4  UNL     1     -19.792  35.245  50.348  1.00  0.00    -0.336 N
HETATM   15  C6  UNL     1     -19.456  34.250  49.519  1.00  0.00     0.183 A
ATOM     16  H4  UNL     1     -19.164  35.506  51.107  1.00  0.00     0.168 HD
HETATM   17  N5  UNL     1     -20.295  33.919  48.524  1.00  0.00    -0.338 N
ATOM     18  H5  UNL     1     -20.036  33.160  47.894  1.00  0.00     0.168 HD
HETATM   19  N6  UNL     1     -22.582  34.737  47.686  1.00  0.00    -0.327 N
ATOM     20  H6  UNL     1     -22.999  34.282  46.875  1.00  0.00     0.169 HD
BRANCH  12  21
HETATM   21  N3  UNL     1     -21.291  36.866  50.984  1.00  0.00    -0.252 N
ATOM     22  H3  UNL     1     -22.202  36.835  51.441  1.00  0.00     0.196 HD
BRANCH  21  23
HETATM   23  O2  UNL     1     -20.469  37.917  51.251  1.00  0.00    -0.288 OA
ATOM     24  H2  UNL     1     -19.664  37.833  51.749  1.00  0.00     0.244 HD
ENDBRANCH  21  23
ENDBRANCH  12  21
ENDBRANCH   8  10
ENDBRANCH   5   8
BRANCH   7  25
HETATM   25  C8  UNL     1     -26.503  35.426  44.719  1.00  0.00     0.196 C
BRANCH  25  26
HETATM   26  C9  UNL     1     -25.660  35.963  43.592  1.00  0.00     0.169 C
BRANCH  26  27
HETATM   27  O4  UNL     1     -25.308  37.261  43.890  1.00  0.00    -0.391 OA
ATOM     28  H4  UNL     1     -24.919  37.653  43.117  1.00  0.00     0.210 HD
ENDBRANCH  26  27
BRANCH  26  29
HETATM   29  C10 UNL     1     -26.407  35.854  42.266  1.00  0.00     0.172 C
BRANCH  29  30
HETATM   30  O5  UNL     1     -26.204  37.074  41.611  1.00  0.00    -0.391 OA
ATOM     31  H5  UNL     1     -26.458  37.746  42.233  1.00  0.00     0.210 HD
ENDBRANCH  29  30
BRANCH  29  32
HETATM   32  C11 UNL     1     -25.882  34.697  41.438  1.00  0.00     0.198 C
BRANCH  32  33
HETATM   33  O6  UNL     1     -27.013  33.961  41.043  1.00  0.00    -0.398 OA
ATOM     34  H6  UNL     1     -27.478  34.510  40.423  1.00  0.00     0.209 HD
ENDBRANCH  32  33
ENDBRANCH  29  32
ENDBRANCH  26  29
ENDBRANCH  25  26
ENDBRANCH   7  25
TORSDOF 11
ENDMDL