MODEL 2
REMARK VINA RESULT: -8.621493542      1.357      1.704
REMARK  8 active torsions:
REMARK  status: ('A' for Active; 'I' for Inactive)
REMARK    1  A    between atoms: N1_2  and  C2_3
REMARK       I    between atoms: N1_2  and  C4_7
REMARK    2  A    between atoms: C2_3  and  C3_4
REMARK    3  A    between atoms: C4_7  and  C5_9
REMARK    4  A    between atoms: N2_11  and  C7_12
REMARK    5  A    between atoms: C7_12  and  C8_13
REMARK       I    between atoms: C8_13  and  N3_15
REMARK    6  A    between atoms: N3_15  and  N4_17
REMARK    7  A    between atoms: N4_17  and  C9_19
REMARK    8  A    between atoms: C10_22  and  N6_23
ROOT
HETATM    1  C8  UNL     1     -27.368  37.071  46.720  1.00  0.00     0.256 C
HETATM    2  O4  UNL     1     -28.045  38.030  46.278  1.00  0.00    -0.270 OA
HETATM    3  N3  UNL     1     -27.340  35.842  45.977  1.00  0.00    -0.266 N
ATOM      4  H3  UNL     1     -26.793  35.057  46.330  1.00  0.00     0.190 HD
ENDROOT
BRANCH   1   5
HETATM    5  C7  UNL     1     -26.618  37.221  47.986  1.00  0.00     0.254 C
BRANCH   5   6
HETATM    6  N2  UNL     1     -25.197  36.906  47.756  1.00  0.00    -0.278 N
HETATM    7  C6  UNL     1     -24.536  35.872  48.261  1.00  0.00     0.148 A
HETATM    8  C5  UNL     1     -23.233  35.957  47.792  1.00  0.00     0.134 A
HETATM    9  N10 UNL     1     -23.193  37.049  47.027  1.00  0.00    -0.280 N
HETATM   10  N9  UNL     1     -24.380  37.602  47.020  1.00  0.00    -0.240 N
ATOM     11  H10 UNL     1     -22.373  37.397  46.530  1.00  0.00     0.189 HD
ATOM     12  H9  UNL     1     -24.627  38.451  46.512  1.00  0.00     0.208 HD
BRANCH   8  13
HETATM   13  C4  UNL     1     -22.210  34.987  48.140  1.00  0.00     0.273 C
HETATM   14  N1  UNL     1     -21.366  35.213  49.238  1.00  0.00    -0.341 N
HETATM   15  C1  UNL     1     -21.479  36.392  50.046  1.00  0.00     0.153 C
HETATM   16  O3  UNL     1     -22.083  33.935  47.448  1.00  0.00    -0.266 OA
BRANCH  14  17
HETATM   17  C2  UNL     1     -20.359  34.231  49.565  1.00  0.00     0.238 C
BRANCH  17  18
HETATM   18  C3  UNL     1     -19.116  34.371  48.800  1.00  0.00     0.191 C
HETATM   19  O1  UNL     1     -19.008  35.239  47.906  1.00  0.00    -0.647 OA
HETATM   20  O2  UNL     1     -18.041  33.533  49.066  1.00  0.00    -0.647 OA
ENDBRANCH  17  18
ENDBRANCH  14  17
ENDBRANCH   8  13
ENDBRANCH   5   6
ENDBRANCH   1   5
BRANCH   3  21
HETATM   21  N4  UNL     1     -28.039  35.704  44.796  1.00  0.00    -0.268 N
ATOM     22  H4  UNL     1     -29.056  35.770  44.795  1.00  0.00     0.190 HD
BRANCH  21  23
HETATM   23  C9  UNL     1     -27.342  35.470  43.582  1.00  0.00     0.209 C
HETATM   24  N5  UNL     1     -26.094  35.699  43.377  1.00  0.00    -0.318 N
HETATM   25  C10 UNL     1     -25.801  35.322  42.018  1.00  0.00     0.399 C
ATOM     26  H5  UNL     1     -25.432  36.079  44.053  1.00  0.00     0.166 HD
HETATM   27  N7  UNL     1     -26.817  34.340  41.713  1.00  0.00    -0.084 NA
HETATM   28  N8  UNL     1     -27.925  34.929  42.381  1.00  0.00    -0.270 N
ATOM     29  H8  UNL     1     -28.900  34.961  42.082  1.00  0.00     0.185 HD
BRANCH  25  30
HETATM   30  N6  UNL     1     -26.035  36.494  41.193  1.00  0.00    -0.042 N
ATOM     31  H63 UNL     1     -26.322  37.312  41.730  1.00  0.00     0.278 HD
ATOM     32  H62 UNL     1     -25.178  36.889  40.805  1.00  0.00     0.278 HD
ATOM     33  H61 UNL     1     -26.711  36.224  40.479  1.00  0.00     0.278 HD
ENDBRANCH  25  30
ENDBRANCH  21  23
ENDBRANCH   3  21
TORSDOF 8
ENDMDL