MODEL 4
REMARK VINA RESULT: -8.610495266      1.200      1.303
REMARK  8 active torsions:
REMARK  status: ('A' for Active; 'I' for Inactive)
REMARK    1  A    between atoms: N1_1  and  N2_4
REMARK    2  A    between atoms: C1_5  and  N3_6
REMARK    3  A    between atoms: N3_6  and  C2_8
REMARK    4  A    between atoms: C2_8  and  C3_9
REMARK    5  A    between atoms: C3_9  and  N4_10
REMARK    6  A    between atoms: N4_10  and  C4_12
REMARK    7  A    between atoms: C4_12  and  C5_13
REMARK       I    between atoms: C5_13  and  N5_15
REMARK    8  A    between atoms: N5_15  and  N6_17
REMARK       I    between atoms: N6_17  and  C6_19
ROOT
HETATM    1  N2  UNL     1     -24.962  38.008  45.520  1.00  0.00    -0.052 N
HETATM    2  C1  UNL     1     -25.960  37.502  46.221  1.00  0.00     0.702 A
HETATM    3  N7  UNL     1     -26.753  36.542  45.643  1.00  0.00    -0.188 N
ATOM      4  H7  UNL     1     -27.526  36.149  46.180  1.00  0.00     0.184 HD
HETATM    5  C7  UNL     1     -26.544  36.111  44.409  1.00  0.00     0.082 A
HETATM    6  C8  UNL     1     -27.362  35.134  43.843  1.00  0.00     0.038 A
HETATM    7  C9  UNL     1     -27.094  34.730  42.567  1.00  0.00     0.077 A
HETATM    8  C10 UNL     1     -26.033  35.289  41.873  1.00  0.00     0.245 A
HETATM    9  O4  UNL     1     -25.771  34.926  40.688  1.00  0.00    -0.268 OA
HETATM   10  N8  UNL     1     -25.259  36.223  42.427  1.00  0.00    -0.317 N
ATOM     11  H8  UNL     1     -24.486  36.619  41.893  1.00  0.00     0.169 HD
HETATM   12  C11 UNL     1     -25.489  36.652  43.687  1.00  0.00     0.134 A
HETATM   13  C12 UNL     1     -24.684  37.617  44.252  1.00  0.00     0.310 A
HETATM   14  O5  UNL     1     -23.734  38.100  43.592  1.00  0.00    -0.263 OA
ENDROOT
BRANCH   2  15
HETATM   15  N3  UNL     1     -26.209  37.840  47.412  1.00  0.00    -0.223 N
ATOM     16  H3  UNL     1     -26.354  38.844  47.514  1.00  0.00     0.177 HD
BRANCH  15  17
HETATM   17  C2  UNL     1     -26.332  37.150  48.630  1.00  0.00     0.157 C
BRANCH  17  18
HETATM   18  C3  UNL     1     -24.916  36.820  49.199  1.00  0.00     0.134 C
BRANCH  18  19
HETATM   19  N4  UNL     1     -24.365  35.698  48.519  1.00  0.00    -0.412 N
ATOM     20  H4  UNL     1     -24.788  34.773  48.599  1.00  0.00     0.153 HD
BRANCH  19  21
HETATM   21  C4  UNL     1     -23.208  35.907  47.727  1.00  0.00     0.219 C
BRANCH  21  22
HETATM   22  C5  UNL     1     -22.126  34.925  48.063  1.00  0.00     0.253 C
HETATM   23  O1  UNL     1     -22.048  33.883  47.378  1.00  0.00    -0.270 OA
HETATM   24  N5  UNL     1     -21.243  35.215  49.128  1.00  0.00    -0.264 N
ATOM     25  H5  UNL     1     -21.384  36.085  49.642  1.00  0.00     0.190 HD
BRANCH  24  26
HETATM   26  N6  UNL     1     -20.193  34.392  49.520  1.00  0.00    -0.241 N
HETATM   27  C6  UNL     1     -18.966  34.364  48.822  1.00  0.00     0.303 C
HETATM   28  O2  UNL     1     -18.685  35.048  47.814  1.00  0.00    -0.628 OA
HETATM   29  O3  UNL     1     -17.961  33.501  49.283  1.00  0.00    -0.628 OA
ATOM     30  H6  UNL     1     -20.314  33.791  50.336  1.00  0.00     0.193 HD
ENDBRANCH  24  26
ENDBRANCH  21  22
ENDBRANCH  19  21
ENDBRANCH  18  19
ENDBRANCH  17  18
ENDBRANCH  15  17
ENDBRANCH   2  15
BRANCH   1  31
HETATM   31  N1  UNL     1     -24.100  39.009  46.011  1.00  0.00    -0.321 N
ATOM     32  H12 UNL     1     -23.895  38.926  47.006  1.00  0.00     0.178 HD
ATOM     33  H11 UNL     1     -23.706  39.745  45.425  1.00  0.00     0.178 HD
ENDBRANCH   1  31
TORSDOF 8
ENDMDL