MODEL 1
REMARK VINA RESULT: -8.084202282      0.000      0.000
REMARK  15 active torsions:
REMARK  status: ('A' for Active; 'I' for Inactive)
REMARK    1  A    between atoms: C5_7  and  N2_8
REMARK    2  A    between atoms: N2_8  and  C6_10
REMARK    3  A    between atoms: C6_10  and  O1_11
REMARK    4  A    between atoms: C6_10  and  C7_13
REMARK    5  A    between atoms: C7_13  and  O2_14
REMARK    6  A    between atoms: C7_13  and  C11_22
REMARK    7  A    between atoms: O2_14  and  C8_15
REMARK    8  A    between atoms: C8_15  and  C9_17
REMARK    9  A    between atoms: C10_18  and  N3_19
REMARK   10  A    between atoms: C11_22  and  O4_23
REMARK   11  A    between atoms: C11_22  and  C12_25
REMARK   12  A    between atoms: C12_25  and  O5_26
REMARK   13  A    between atoms: C12_25  and  C13_28
REMARK   14  A    between atoms: C13_28  and  N4_29
REMARK   15  A    between atoms: C13_28  and  O6_33
ROOT
HETATM    1  C1  UNL     1     -19.824  34.873  51.479  1.00  0.00     0.019 C
HETATM    2  C2  UNL     1     -20.608  35.000  50.567  1.00  0.00    -0.058 C
HETATM    3  C3  UNL     1     -21.525  35.131  49.477  1.00  0.00     0.101 A
HETATM    4  C4  UNL     1     -21.539  34.246  48.420  1.00  0.00     0.128 A
HETATM    5  N1  UNL     1     -22.411  34.379  47.397  1.00  0.00    -0.349 N
ATOM      6  H1  UNL     1     -22.397  33.707  46.631  1.00  0.00     0.167 HD
HETATM    7  C5  UNL     1     -23.291  35.385  47.381  1.00  0.00     0.118 A
HETATM    8  C14 UNL     1     -23.297  36.279  48.422  1.00  0.00     0.137 A
HETATM    9  N5  UNL     1     -22.426  36.124  49.421  1.00  0.00    -0.354 N
ATOM     10  H5  UNL     1     -22.446  36.798  50.186  1.00  0.00     0.166 HD
ENDROOT
BRANCH   7  11
HETATM   11  N2  UNL     1     -24.116  35.502  46.400  1.00  0.00    -0.347 N
ATOM     12  H2  UNL     1     -24.451  34.654  45.943  1.00  0.00     0.163 HD
BRANCH  11  13
HETATM   13  C6  UNL     1     -24.584  36.766  45.921  1.00  0.00     0.251 C
BRANCH  13  14
HETATM   14  O1  UNL     1     -24.121  36.889  44.581  1.00  0.00    -0.374 OA
ATOM     15  H1  UNL     1     -24.877  37.118  44.053  1.00  0.00     0.212 HD
ENDBRANCH  13  14
BRANCH  13  16
HETATM   16  C7  UNL     1     -26.086  36.815  45.915  1.00  0.00     0.212 C
BRANCH  16  17
HETATM   17  O2  UNL     1     -26.623  36.776  44.618  1.00  0.00    -0.298 OA
BRANCH  17  18
HETATM   18  C8  UNL     1     -27.209  35.610  44.163  1.00  0.00     0.341 C
HETATM   19  O3  UNL     1     -28.064  34.979  44.873  1.00  0.00    -0.249 OA
BRANCH  18  20
HETATM   20  C9  UNL     1     -26.867  35.075  42.867  1.00  0.00     0.025 C
HETATM   21  C10 UNL     1     -26.590  34.639  41.774  1.00  0.00     0.014 C
BRANCH  21  22
HETATM   22  N3  UNL     1     -26.270  34.146  40.487  1.00  0.00    -0.359 N
ATOM     23  H32 UNL     1     -26.276  34.983  41.070  1.00  0.00     0.166 HD
ATOM     24  H31 UNL     1     -26.043  33.778  39.564  1.00  0.00     0.166 HD
ENDBRANCH  21  22
ENDBRANCH  18  20
ENDBRANCH  17  18
ENDBRANCH  16  17
BRANCH  16  25
HETATM   25  C11 UNL     1     -26.675  37.890  46.789  1.00  0.00     0.185 C
BRANCH  25  26
HETATM   26  O4  UNL     1     -26.547  37.502  48.139  1.00  0.00    -0.390 OA
ATOM     27  H4  UNL     1     -27.247  36.896  48.353  1.00  0.00     0.210 HD
ENDBRANCH  25  26
BRANCH  25  28
HETATM   28  C12 UNL     1     -28.094  38.241  46.502  1.00  0.00     0.205 C
BRANCH  28  29
HETATM   29  O5  UNL     1     -28.382  39.567  46.923  1.00  0.00    -0.389 OA
ATOM     30  H5  UNL     1     -28.429  40.156  46.179  1.00  0.00     0.210 HD
ENDBRANCH  28  29
BRANCH  28  31
HETATM   31  C13 UNL     1     -29.000  37.288  47.267  1.00  0.00     0.347 C
BRANCH  31  32
HETATM   32  N4  UNL     1     -30.066  36.776  46.482  1.00  0.00    -0.051 N
ATOM     33  H43 UNL     1     -30.116  37.253  45.582  1.00  0.00     0.277 HD
ATOM     34  H42 UNL     1     -29.858  35.830  46.159  1.00  0.00     0.277 HD
ATOM     35  H41 UNL     1     -30.968  36.806  46.958  1.00  0.00     0.277 HD
ENDBRANCH  31  32
BRANCH  31  36
HETATM   36  O6  UNL     1     -29.477  37.893  48.441  1.00  0.00    -0.368 OA
ATOM     37  H6  UNL     1     -29.559  37.253  49.137  1.00  0.00     0.212 HD
ENDBRANCH  31  36
ENDBRANCH  28  31
ENDBRANCH  25  28
ENDBRANCH  16  25
ENDBRANCH  13  16
ENDBRANCH  11  13
ENDBRANCH   7  11
TORSDOF 15
ENDMDL