MODEL 1
REMARK VINA RESULT: -7.278833692      0.000      0.000
REMARK  8 active torsions:
REMARK  status: ('A' for Active; 'I' for Inactive)
REMARK    1  A    between atoms: N1_2  and  C3_4
REMARK    2  A    between atoms: C4_7  and  N3_8
REMARK    3  A    between atoms: N3_8  and  N4_10
REMARK    4  A    between atoms: N4_10  and  O1_11
REMARK    5  A    between atoms: N4_10  and  C5_13
REMARK    6  A    between atoms: C7_16  and  N5_17
REMARK    7  A    between atoms: N5_17  and  N6_19
REMARK       I    between atoms: N6_19  and  C8_20
REMARK       I    between atoms: C8_20  and  N7_22
REMARK    8  A    between atoms: N7_22  and  N8_24
ROOT
HETATM    1  C3  UNL     1     -25.532  36.423  42.427  1.00  0.00     0.682 A
HETATM    2  N2  UNL     1     -26.032  36.108  43.661  1.00  0.00    -0.174 N
ATOM      3  H2  UNL     1     -26.702  35.342  43.724  1.00  0.00     0.186 HD
HETATM    4  C4  UNL     1     -25.694  36.747  44.796  1.00  0.00     0.155 A
HETATM    5  C6  UNL     1     -24.761  37.799  44.645  1.00  0.00     0.101 A
HETATM    6  C7  UNL     1     -24.325  38.529  45.720  1.00  0.00     0.153 A
HETATM    7  N9  UNL     1     -23.440  39.523  45.565  1.00  0.00    -0.292 N
ATOM      8  H9  UNL     1     -23.139  40.047  46.386  1.00  0.00     0.172 HD
HETATM    9  C9  UNL     1     -22.932  39.856  44.351  1.00  0.00     0.327 A
HETATM   10  O4  UNL     1     -22.101  40.801  44.233  1.00  0.00    -0.247 OA
HETATM   11  N10 UNL     1     -23.346  39.149  43.290  1.00  0.00    -0.293 N
ATOM     12  H10 UNL     1     -22.981  39.376  42.365  1.00  0.00     0.172 HD
HETATM   13  C10 UNL     1     -24.249  38.129  43.426  1.00  0.00     0.142 A
HETATM   14  N11 UNL     1     -24.655  37.425  42.355  1.00  0.00    -0.175 N
ATOM     15  H11 UNL     1     -24.274  37.670  41.441  1.00  0.00     0.186 HD
ENDROOT
BRANCH   6  16
HETATM   16  N5  UNL     1     -24.826  38.183  46.883  1.00  0.00    -0.213 N
ATOM     17  H5  UNL     1     -25.707  38.587  47.202  1.00  0.00     0.204 HD
BRANCH  16  18
HETATM   18  N6  UNL     1     -24.187  37.310  47.638  1.00  0.00    -0.262 NA
HETATM   19  C8  UNL     1     -23.528  36.412  48.414  1.00  0.00     0.430 C
HETATM   20  O3  UNL     1     -23.313  36.445  49.659  1.00  0.00    -0.227 OA
HETATM   21  N7  UNL     1     -22.955  35.210  47.802  1.00  0.00    -0.245 N
ATOM     22  H7  UNL     1     -23.068  35.069  46.798  1.00  0.00     0.192 HD
BRANCH  21  23
HETATM   23  N8  UNL     1     -22.261  34.254  48.539  1.00  0.00    -0.340 N
ATOM     24  H82 UNL     1     -22.326  33.282  48.237  1.00  0.00     0.177 HD
ATOM     25  H81 UNL     1     -21.702  34.495  49.357  1.00  0.00     0.177 HD
ENDBRANCH  21  23
ENDBRANCH  16  18
ENDBRANCH   6  16
BRANCH   4  26
HETATM   26  N3  UNL     1     -26.149  36.476  45.918  1.00  0.00    -0.255 N
ATOM     27  H3  UNL     1     -25.431  36.005  46.469  1.00  0.00     0.191 HD
BRANCH  26  28
HETATM   28  N4  UNL     1     -27.249  36.592  46.641  1.00  0.00    -0.135 N
BRANCH  28  29
HETATM   29  O1  UNL     1     -27.068  36.901  48.006  1.00  0.00    -0.266 OA
ATOM     30  H1  UNL     1     -27.160  37.816  48.246  1.00  0.00     0.247 HD
ENDBRANCH  28  29
BRANCH  28  31
HETATM   31  C5  UNL     1     -28.624  36.468  46.320  1.00  0.00     0.401 C
HETATM   32  O2  UNL     1     -29.094  36.416  45.172  1.00  0.00    -0.279 OA
ENDBRANCH  28  31
ENDBRANCH  26  28
ENDBRANCH   4  26
BRANCH   1  33
HETATM   33  N1  UNL     1     -25.958  35.678  41.297  1.00  0.00    -0.226 N
HETATM   34  C1  UNL     1     -25.932  36.235  39.974  1.00  0.00     0.168 C
HETATM   35  C2  UNL     1     -26.442  34.301  41.457  1.00  0.00     0.168 C
ENDBRANCH   1  33
TORSDOF 8
ENDMDL