MODEL 1
REMARK VINA RESULT: -8.190758332      0.000      0.000
REMARK  10 active torsions:
REMARK  status: ('A' for Active; 'I' for Inactive)
REMARK    1  A    between atoms: N4_5  and  O1_6
REMARK    2  A    between atoms: C2_8  and  C3_9
REMARK    3  A    between atoms: C3_9  and  C4_10
REMARK    4  A    between atoms: N5_12  and  N6_14
REMARK       I    between atoms: N6_14  and  C5_15
REMARK       I    between atoms: C5_15  and  N7_17
REMARK    5  A    between atoms: N7_17  and  C6_19
REMARK    6  A    between atoms: C6_19  and  O3_20
REMARK    7  A    between atoms: N8_22  and  C7_24
REMARK    8  A    between atoms: C7_24  and  C8_25
REMARK    9  A    between atoms: C8_25  and  N9_26
REMARK   10  A    between atoms: C8_25  and  O4_30
ROOT
HETATM    1  N6  UNL     1     -23.895  35.423  47.215  1.00  0.00    -0.265 NA
HETATM    2  C5  UNL     1     -22.550  34.898  47.818  1.00  0.00     0.419 C
HETATM    3  O2  UNL     1     -22.253  34.009  47.112  1.00  0.00    -0.228 OA
HETATM    4  N7  UNL     1     -22.386  35.689  48.840  1.00  0.00    -0.261 N
ATOM      5  H7  UNL     1     -23.034  36.311  49.323  1.00  0.00     0.175 HD
ENDROOT
BRANCH   1   6
HETATM    6  N5  UNL     1     -24.913  35.821  46.759  1.00  0.00    -0.230 N
HETATM    7  C3  UNL     1     -25.550  36.509  45.879  1.00  0.00     0.097 C
ATOM      8  H5  UNL     1     -25.639  35.422  47.354  1.00  0.00     0.202 HD
BRANCH   7   9
HETATM    9  C2  UNL     1     -26.967  36.559  45.934  1.00  0.00     0.190 A
HETATM   10  N1  UNL     1     -27.910  36.050  45.135  1.00  0.00    -0.262 N
HETATM   11  C1  UNL     1     -27.698  35.066  44.073  1.00  0.00     0.176 C
HETATM   12  N2  UNL     1     -29.130  36.466  45.448  1.00  0.00    -0.003 NA
HETATM   13  N3  UNL     1     -28.972  37.291  46.522  1.00  0.00     0.022 NA
HETATM   14  N4  UNL     1     -27.669  37.338  46.806  1.00  0.00    -0.129 N
BRANCH  14  15
HETATM   15  O1  UNL     1     -27.205  38.070  47.842  1.00  0.00    -0.268 OA
ATOM     16  H1  UNL     1     -26.496  38.691  47.727  1.00  0.00     0.246 HD
ENDBRANCH  14  15
ENDBRANCH   7   9
BRANCH   7  17
HETATM   17  C4  UNL     1     -24.742  37.245  44.843  1.00  0.00     0.149 C
HETATM   18  S1  UNL     1     -24.182  38.790  45.526  1.00  0.00    -0.091 SA
ENDBRANCH   7  17
ENDBRANCH   1   6
BRANCH   4  19
HETATM   19  C6  UNL     1     -20.743  35.347  49.105  1.00  0.00     0.221 C
HETATM   20  N8  UNL     1     -19.951  34.617  48.467  1.00  0.00    -0.352 N
ATOM     21  H8  UNL     1     -20.364  33.945  47.821  1.00  0.00     0.163 HD
BRANCH  19  22
HETATM   22  O3  UNL     1     -20.527  36.172  50.201  1.00  0.00    -0.332 OA
ATOM     23  H3  UNL     1     -20.702  35.544  50.893  1.00  0.00     0.220 HD
ENDBRANCH  19  22
BRANCH  20  24
HETATM   24  C7  UNL     1     -18.481  34.631  48.556  1.00  0.00     0.184 C
BRANCH  24  25
HETATM   25  C8  UNL     1     -17.852  33.569  49.293  1.00  0.00     0.334 C
BRANCH  25  26
HETATM   26  N9  UNL     1     -16.609  32.967  49.126  1.00  0.00    -0.051 N
ATOM     27  H93 UNL     1     -16.312  33.233  48.188  1.00  0.00     0.277 HD
ATOM     28  H92 UNL     1     -15.982  33.484  49.742  1.00  0.00     0.277 HD
ATOM     29  H91 UNL     1     -16.327  31.992  49.223  1.00  0.00     0.277 HD
ENDBRANCH  25  26
BRANCH  25  30
HETATM   30  O4  UNL     1     -18.571  33.099  50.268  1.00  0.00    -0.369 OA
ATOM     31  H4  UNL     1     -18.065  32.739  50.987  1.00  0.00     0.212 HD
ENDBRANCH  25  30
ENDBRANCH  24  25
ENDBRANCH  20  24
ENDBRANCH   4  19
TORSDOF 10
ENDMDL