MODEL 3
REMARK VINA RESULT: -7.239404291      1.619      4.308
REMARK  3 active torsions:
REMARK  status: ('A' for Active; 'I' for Inactive)
REMARK    1  A    between atoms: C1_2  and  C2_4
REMARK    2  A    between atoms: C4_8  and  C5_9
REMARK    3  A    between atoms: C7_15  and  N5_16
ROOT
HETATM    1  C2  UNL     1     -11.939 -28.696 -27.516  1.00  0.00     0.172 A
HETATM    2  N2  UNL     1     -12.504 -28.080 -26.469  1.00  0.00    -0.334 N
ATOM      3  H2  UNL     1     -11.997 -27.614 -25.716  1.00  0.00     0.168 HD
HETATM    4  C3  UNL     1     -13.854 -28.171 -26.564  1.00  0.00     0.095 A
HETATM    5  C4  UNL     1     -14.859 -27.703 -25.746  1.00  0.00     0.127 A
HETATM    6  N4  UNL     1     -16.147 -27.918 -26.055  1.00  0.00    -0.357 N
ATOM      7  H4  UNL     1     -16.881 -27.565 -25.442  1.00  0.00     0.165 HD
HETATM    8  C6  UNL     1     -16.469 -28.589 -27.158  1.00  0.00     0.127 A
HETATM    9  C7  UNL     1     -15.482 -29.087 -28.024  1.00  0.00     0.147 A
HETATM   10  C8  UNL     1     -14.159 -28.866 -27.708  1.00  0.00     0.098 A
HETATM   11  N6  UNL     1     -12.965 -29.166 -28.257  1.00  0.00    -0.334 N
ATOM     12  H6  UNL     1     -12.851 -29.685 -29.127  1.00  0.00     0.168 HD
ENDROOT
BRANCH   1  13
HETATM   13  C1  UNL     1     -10.538 -28.861 -27.852  1.00  0.00     0.298 C
HETATM   14  N1  UNL     1     -10.056 -28.516 -29.149  1.00  0.00    -0.054 NA
HETATM   15  O1  UNL     1      -9.724 -29.314 -27.000  1.00  0.00    -0.268 OA
ENDBRANCH   1  13
BRANCH   5  16
HETATM   16  C5  UNL     1     -14.481 -26.972 -24.544  1.00  0.00     0.283 C
HETATM   17  N3  UNL     1     -14.828 -27.477 -23.280  1.00  0.00    -0.056 NA
HETATM   18  O2  UNL     1     -13.853 -25.905 -24.670  1.00  0.00    -0.269 OA
ENDBRANCH   5  16
BRANCH   9  19
HETATM   19  N5  UNL     1     -15.814 -29.790 -29.187  1.00  0.00    -0.112 N
HETATM   20  O3  UNL     1     -17.010 -29.971 -29.486  1.00  0.00    -0.532 OA
HETATM   21  O4  UNL     1     -14.854 -30.287 -30.005  1.00  0.00    -0.532 OA
ENDBRANCH   9  19
TORSDOF 3
ENDMDL