MODEL 3
REMARK VINA RESULT: -5.656927062      2.483      2.935
REMARK  7 active torsions:
REMARK  status: ('A' for Active; 'I' for Inactive)
REMARK    1  A    between atoms: N1_1  and  O1_4
REMARK    2  A    between atoms: O1_4  and  N2_5
REMARK    3  A    between atoms: N2_5  and  C1_7
REMARK    4  A    between atoms: C1_7  and  N3_9
REMARK    5  A    between atoms: N3_9  and  C2_11
REMARK    6  A    between atoms: C2_11  and  N4_13
REMARK    7  A    between atoms: N4_13  and  N5_15
ROOT
HETATM    1  N3  UNL     1     -12.211 -29.919 -27.906  1.00  0.00    -0.308 N
ATOM      2  H3  UNL     1     -12.567 -30.851 -27.696  1.00  0.00     0.170 HD
ENDROOT
BRANCH   1   3
HETATM    3  C1  UNL     1     -10.910 -29.899 -28.424  1.00  0.00     0.200 C
HETATM    4  S1  UNL     1      -9.525 -29.900 -27.572  1.00  0.00    -0.039 SA
BRANCH   3   5
HETATM    5  N2  UNL     1     -10.729 -29.875 -29.853  1.00  0.00    -0.216 N
ATOM      6  H2  UNL     1      -9.825 -29.647 -30.268  1.00  0.00     0.199 HD
BRANCH   5   7
HETATM    7  O1  UNL     1     -11.804 -30.167 -30.625  1.00  0.00    -0.162 OA
BRANCH   7   8
HETATM    8  N1  UNL     1     -11.484 -31.216 -31.411  1.00  0.00    -0.286 N
ATOM      9  H12 UNL     1     -10.537 -31.481 -31.680  1.00  0.00     0.186 HD
ATOM     10  H11 UNL     1     -12.349 -31.686 -31.680  1.00  0.00     0.186 HD
ENDBRANCH   7   8
ENDBRANCH   5   7
ENDBRANCH   3   5
ENDBRANCH   1   3
BRANCH   1  11
HETATM   11  C2  UNL     1     -13.098 -28.891 -27.628  1.00  0.00     0.188 C
HETATM   12  S2  UNL     1     -12.544 -27.638 -26.669  1.00  0.00    -0.040 SA
BRANCH  11  13
HETATM   13  N4  UNL     1     -14.424 -28.760 -28.052  1.00  0.00    -0.295 N
ATOM     14  H4  UNL     1     -14.840 -27.831 -28.100  1.00  0.00     0.183 HD
BRANCH  13  15
HETATM   15  N5  UNL     1     -15.213 -29.892 -28.422  1.00  0.00    -0.229 NA
HETATM   16  C3  UNL     1     -15.320 -29.933 -29.857  1.00  0.00     0.113 C
HETATM   17  C4  UNL     1     -16.624 -30.660 -30.063  1.00  0.00     0.017 C
HETATM   18  C5  UNL     1     -17.513 -30.135 -28.970  1.00  0.00     0.017 C
HETATM   19  C6  UNL     1     -16.549 -29.792 -27.884  1.00  0.00     0.113 C
ENDBRANCH  13  15
ENDBRANCH  11  13
ENDBRANCH   1  11
TORSDOF 7
ENDMDL