MODEL 5
REMARK VINA RESULT: -7.490406507      1.051      1.440
REMARK  5 active torsions:
REMARK  status: ('A' for Active; 'I' for Inactive)
REMARK    1  A    between atoms: N1_1  and  C1_4
REMARK    2  A    between atoms: N3_9  and  C3_10
REMARK    3  A    between atoms: C4_12  and  N4_13
REMARK    4  A    between atoms: N4_13  and  N5_14
REMARK    5  A    between atoms: N5_14  and  C5_16
ROOT
HETATM    1  C1  UNL     1      -9.861 -29.288 -26.774  1.00  0.00     0.683 A
HETATM    2  N2  UNL     1      -9.588 -29.250 -28.091  1.00  0.00    -0.141 N
ATOM      3  H2  UNL     1      -8.631 -29.070 -28.393  1.00  0.00     0.189 HD
HETATM    4  C2  UNL     1     -10.537 -29.443 -29.018  1.00  0.00     0.350 A
HETATM    5  O1  UNL     1     -10.246 -29.403 -30.257  1.00  0.00    -0.245 OA
HETATM    6  N3  UNL     1     -11.817 -29.685 -28.669  1.00  0.00    -0.196 N
HETATM    7  C4  UNL     1     -12.129 -29.728 -27.349  1.00  0.00     0.308 A
HETATM    8  N6  UNL     1     -11.111 -29.523 -26.414  1.00  0.00    -0.147 N
ATOM      9  H6  UNL     1     -11.341 -29.554 -25.421  1.00  0.00     0.188 HD
ENDROOT
BRANCH   7  10
HETATM   10  N4  UNL     1     -13.252 -29.920 -26.964  1.00  0.00    -0.286 NA
BRANCH  10  11
HETATM   11  N5  UNL     1     -14.453 -30.112 -26.544  1.00  0.00    -0.233 N
ATOM     12  H5  UNL     1     -14.866 -31.031 -26.705  1.00  0.00     0.202 HD
BRANCH  11  13
HETATM   13  C5  UNL     1     -15.271 -29.120 -25.855  1.00  0.00     0.060 A
HETATM   14  C6  UNL     1     -16.320 -29.473 -25.067  1.00  0.00     0.032 A
HETATM   15  C7  UNL     1     -17.058 -28.450 -24.485  1.00  0.00     0.002 A
HETATM   16  C8  UNL     1     -16.751 -27.127 -24.686  1.00  0.00     0.000 A
HETATM   17  C9  UNL     1     -15.692 -26.775 -25.481  1.00  0.00     0.002 A
HETATM   18  C10 UNL     1     -14.946 -27.785 -26.069  1.00  0.00     0.032 A
ENDBRANCH  11  13
ENDBRANCH  10  11
ENDBRANCH   7  10
BRANCH   6  19
HETATM   19  C3  UNL     1     -12.794 -29.893 -29.671  1.00  0.00     0.367 C
HETATM   20  O2  UNL     1     -13.069 -30.936 -30.262  1.00  0.00    -0.283 OA
ENDBRANCH   6  19
BRANCH   1  21
HETATM   21  N1  UNL     1      -8.909 -29.091 -25.914  1.00  0.00    -0.234 N
ATOM     22  H12 UNL     1      -8.080 -29.684 -25.865  1.00  0.00     0.174 HD
ATOM     23  H11 UNL     1      -8.978 -28.319 -25.251  1.00  0.00     0.174 HD
ENDBRANCH   1  21
TORSDOF 5
ENDMDL