MODEL 5
REMARK VINA RESULT: -6.259869953      1.212      1.217
REMARK  4 active torsions:
REMARK  status: ('A' for Active; 'I' for Inactive)
REMARK    1  A    between atoms: N1_1  and  C1_4
REMARK    2  A    between atoms: C2_7  and  N3_8
REMARK    3  A    between atoms: C5_11  and  C6_12
REMARK    4  A    between atoms: C8_17  and  N6_18
ROOT
HETATM    1  C1  UNL     1     -12.736 -27.940 -26.891  1.00  0.00     0.136 A
HETATM    2  N2  UNL     1     -13.939 -27.796 -26.352  1.00  0.00    -0.326 N
ATOM      3  H2  UNL     1     -14.057 -27.178 -25.548  1.00  0.00     0.169 HD
HETATM    4  C2  UNL     1     -15.033 -28.464 -26.855  1.00  0.00     0.122 A
HETATM    5  C5  UNL     1     -14.856 -29.283 -27.925  1.00  0.00     0.100 A
HETATM    6  C7  UNL     1     -13.579 -29.432 -28.493  1.00  0.00     0.102 A
HETATM    7  N5  UNL     1     -13.375 -30.289 -29.610  1.00  0.00    -0.098 NA
HETATM    8  C8  UNL     1     -12.513 -28.762 -27.978  1.00  0.00     0.171 A
ENDROOT
BRANCH   1   9
HETATM    9  N1  UNL     1     -11.689 -27.307 -26.424  1.00  0.00    -0.383 N
ATOM     10  H12 UNL     1     -11.324 -27.643 -25.532  1.00  0.00     0.157 HD
ATOM     11  H11 UNL     1     -11.265 -26.525 -26.923  1.00  0.00     0.157 HD
ENDBRANCH   1   9
BRANCH   8  12
HETATM   12  N6  UNL     1     -11.218 -28.913 -28.560  1.00  0.00    -0.110 N
HETATM   13  O2  UNL     1     -10.856 -28.175 -29.476  1.00  0.00    -0.532 OA
HETATM   14  O3  UNL     1     -10.360 -29.878 -28.112  1.00  0.00    -0.532 OA
ENDBRANCH   8  12
BRANCH   4  15
HETATM   15  N3  UNL     1     -16.287 -28.244 -26.209  1.00  0.00    -0.363 N
HETATM   16  C3  UNL     1     -17.621 -27.722 -26.082  1.00  0.00     0.144 A
HETATM   17  C4  UNL     1     -17.067 -28.610 -25.005  1.00  0.00     0.144 A
ENDBRANCH   4  15
BRANCH   5  18
HETATM   18  C6  UNL     1     -15.930 -30.024 -28.535  1.00  0.00     0.270 C
HETATM   19  N4  UNL     1     -16.512 -29.767 -29.793  1.00  0.00    -0.057 NA
HETATM   20  O1  UNL     1     -16.432 -31.018 -27.906  1.00  0.00    -0.271 OA
ENDBRANCH   5  18
TORSDOF 4
ENDMDL