MODEL 3
REMARK VINA RESULT: -7.410772664      1.322      1.986
REMARK  4 active torsions:
REMARK  status: ('A' for Active; 'I' for Inactive)
REMARK    1  A    between atoms: C4_11  and  N4_12
REMARK    2  A    between atoms: N4_12  and  C5_14
REMARK    3  A    between atoms: C5_14  and  C6_15
REMARK    4  A    between atoms: C8_21  and  C9_22
ROOT
HETATM    1  N4  UNL     1     -12.974 -29.326 -28.487  1.00  0.00    -0.356 N
ATOM      2  H4  UNL     1     -13.173 -29.743 -29.397  1.00  0.00     0.165 HD
ENDROOT
BRANCH   1   3
HETATM    3  C4  UNL     1     -11.660 -29.438 -27.958  1.00  0.00     0.142 A
HETATM    4  C1  UNL     1     -11.429 -30.241 -26.859  1.00  0.00     0.152 A
HETATM    5  N1  UNL     1     -12.494 -30.955 -26.256  1.00  0.00    -0.080 NA
HETATM    6  N2  UNL     1     -10.165 -30.334 -26.367  1.00  0.00    -0.295 N
HETATM    7  C2  UNL     1      -9.147 -29.661 -26.932  1.00  0.00     0.328 A
ATOM      8  H2  UNL     1      -9.985 -30.925 -25.556  1.00  0.00     0.172 HD
HETATM    9  O1  UNL     1      -7.960 -29.741 -26.480  1.00  0.00    -0.247 OA
HETATM   10  N3  UNL     1      -9.331 -28.864 -28.008  1.00  0.00    -0.273 N
HETATM   11  C3  UNL     1     -10.577 -28.770 -28.495  1.00  0.00     0.279 A
ATOM     12  H3  UNL     1      -8.554 -28.355 -28.431  1.00  0.00     0.173 HD
HETATM   13  O2  UNL     1     -10.786 -28.037 -29.496  1.00  0.00    -0.265 OA
ENDBRANCH   1   3
BRANCH   1  14
HETATM   14  C5  UNL     1     -13.927 -28.719 -27.863  1.00  0.00     0.120 C
BRANCH  14  15
HETATM   15  C6  UNL     1     -15.329 -29.074 -28.058  1.00  0.00     0.078 A
HETATM   16  N5  UNL     1     -15.822 -29.796 -29.111  1.00  0.00    -0.349 N
HETATM   17  C7  UNL     1     -17.138 -29.945 -28.987  1.00  0.00     0.181 A
ATOM     18  H5  UNL     1     -15.262 -30.167 -29.879  1.00  0.00     0.166 HD
HETATM   19  N6  UNL     1     -17.527 -29.337 -27.878  1.00  0.00    -0.348 N
HETATM   20  C8  UNL     1     -16.433 -28.792 -27.285  1.00  0.00     0.099 A
ATOM     21  H6  UNL     1     -18.484 -29.286 -27.528  1.00  0.00     0.167 HD
BRANCH  20  22
HETATM   22  C9  UNL     1     -16.443 -28.040 -26.045  1.00  0.00     0.290 C
HETATM   23  O3  UNL     1     -16.298 -26.801 -25.981  1.00  0.00    -0.300 OA
ENDBRANCH  20  22
ENDBRANCH  14  15
ENDBRANCH   1  14
TORSDOF 4
ENDMDL