MODEL 3
REMARK VINA RESULT: -7.567914025      3.444      4.894
REMARK  2 active torsions:
REMARK  status: ('A' for Active; 'I' for Inactive)
REMARK       I    between atoms: C1_4  and  N3_6
REMARK       I    between atoms: N3_6  and  C2_8
REMARK    1  A    between atoms: C2_8  and  C3_10
REMARK    2  A    between atoms: N4_12  and  C5_13
ROOT
HETATM    1  C3  UNL     1     -12.416 -29.361 -28.832  1.00  0.00     0.135 A
HETATM    2  C4  UNL     1     -13.587 -29.167 -28.091  1.00  0.00     0.155 A
HETATM    3  N4  UNL     1     -14.637 -29.552 -28.825  1.00  0.00    -0.249 N
HETATM    4  N6  UNL     1     -14.164 -29.971 -29.976  1.00  0.00    -0.235 N
ATOM      5  H6  UNL     1     -14.735 -30.327 -30.742  1.00  0.00     0.209 HD
HETATM    6  N7  UNL     1     -12.846 -29.868 -30.007  1.00  0.00    -0.279 N
ATOM      7  H7  UNL     1     -12.251 -30.130 -30.793  1.00  0.00     0.189 HD
ENDROOT
BRANCH   1   8
HETATM    8  C2  UNL     1     -11.090 -29.078 -28.390  1.00  0.00     0.277 C
HETATM    9  N3  UNL     1     -10.468 -29.968 -27.405  1.00  0.00    -0.296 N
HETATM   10  C1  UNL     1      -9.182 -29.688 -26.971  1.00  0.00     0.188 C
ATOM     11  H3  UNL     1     -10.972 -30.779 -27.046  1.00  0.00     0.171 HD
HETATM   12  N1  UNL     1      -8.081 -29.448 -26.601  1.00  0.00    -0.373 N
HETATM   13  N2  UNL     1      -9.149 -31.107 -25.912  1.00  0.00    -0.064 NA
ATOM     14  H12 UNL     1      -7.135 -29.242 -26.281  1.00  0.00     0.158 HD
ATOM     15  H11 UNL     1      -8.100 -28.631 -27.211  1.00  0.00     0.158 HD
HETATM   16  O1  UNL     1     -10.431 -28.118 -28.791  1.00  0.00    -0.266 OA
ENDBRANCH   1   8
BRANCH   3  17
HETATM   17  C5  UNL     1     -16.010 -29.500 -28.399  1.00  0.00     0.081 A
HETATM   18  C6  UNL     1     -16.423 -28.679 -27.375  1.00  0.00     0.033 A
HETATM   19  C7  UNL     1     -17.742 -28.623 -26.976  1.00  0.00     0.002 A
HETATM   20  C8  UNL     1     -18.688 -29.393 -27.592  1.00  0.00     0.002 A
HETATM   21  C9  UNL     1     -18.299 -30.224 -28.618  1.00  0.00     0.029 A
HETATM   22  C10 UNL     1     -16.962 -30.274 -29.016  1.00  0.00     0.075 A
HETATM   23  N5  UNL     1     -16.643 -31.164 -30.084  1.00  0.00    -0.100 NA
ENDBRANCH   3  17
TORSDOF 2
ENDMDL