MODEL 1
REMARK VINA RESULT: -7.306270415      0.000      0.000
REMARK  3 active torsions:
REMARK  status: ('A' for Active; 'I' for Inactive)
REMARK       I    between atoms: C1_2  and  N1_3
REMARK    1  A    between atoms: C1_2  and  C5_17
REMARK    2  A    between atoms: N1_3  and  N2_5
REMARK    3  A    between atoms: C2_7  and  C3_8
ROOT
HETATM    1  N2  UNL     1     -14.240 -27.489 -24.381  1.00  0.00    -0.307 N
ATOM      2  H2  UNL     1     -13.302 -27.845 -24.199  1.00  0.00     0.186 HD
HETATM    3  C2  UNL     1     -14.679 -26.522 -23.656  1.00  0.00     0.143 C
ENDROOT
BRANCH   1   4
HETATM    4  N1  UNL     1     -14.987 -28.074 -25.406  1.00  0.00    -0.265 N
HETATM    5  C1  UNL     1     -14.371 -28.401 -26.617  1.00  0.00     0.286 C
HETATM    6  O1  UNL     1     -13.129 -28.172 -26.801  1.00  0.00    -0.264 OA
ATOM      7  H1  UNL     1     -15.981 -28.263 -25.271  1.00  0.00     0.190 HD
BRANCH   5   8
HETATM    8  C5  UNL     1     -15.106 -29.018 -27.731  1.00  0.00     0.102 A
HETATM    9  C6  UNL     1     -16.462 -29.224 -27.716  1.00  0.00     0.035 A
HETATM   10  C7  UNL     1     -17.171 -29.804 -28.759  1.00  0.00     0.004 A
HETATM   11  C8  UNL     1     -16.448 -30.191 -29.864  1.00  0.00     0.017 A
HETATM   12  C9  UNL     1     -15.080 -29.985 -29.882  1.00  0.00     0.088 A
HETATM   13  N6  UNL     1     -14.436 -29.419 -28.850  1.00  0.00    -0.361 N
ATOM     14  H6  UNL     1     -13.426 -29.286 -28.903  1.00  0.00     0.165 HD
ENDBRANCH   5   8
ENDBRANCH   1   4
BRANCH   3  15
HETATM   15  C3  UNL     1     -13.863 -25.951 -22.605  1.00  0.00     0.135 A
HETATM   16  N3  UNL     1     -13.519 -24.649 -22.453  1.00  0.00    -0.280 N
HETATM   17  N4  UNL     1     -12.769 -24.511 -21.382  1.00  0.00    -0.239 N
ATOM     18  H3  UNL     1     -13.799 -23.892 -23.077  1.00  0.00     0.189 HD
HETATM   19  N5  UNL     1     -12.588 -25.674 -20.795  1.00  0.00    -0.250 N
ATOM     20  H4  UNL     1     -12.383 -23.627 -21.052  1.00  0.00     0.208 HD
HETATM   21  C4  UNL     1     -13.260 -26.590 -21.537  1.00  0.00     0.290 A
ATOM     22  H5  UNL     1     -12.048 -25.852 -19.948  1.00  0.00     0.192 HD
HETATM   23  O2  UNL     1     -13.339 -27.810 -21.317  1.00  0.00    -0.264 OA
ENDBRANCH   3  15
TORSDOF 3
ENDMDL