MODEL 4
REMARK VINA RESULT: -7.210438294      2.497      5.677
REMARK  4 active torsions:
REMARK  status: ('A' for Active; 'I' for Inactive)
REMARK    1  A    between atoms: C2_3  and  N2_4
REMARK    2  A    between atoms: N2_4  and  C3_6
REMARK    3  A    between atoms: C3_6  and  N3_7
REMARK    4  A    between atoms: N3_7  and  O1_9
ROOT
HETATM    1  N1  UNL     1     -11.423 -27.774 -27.102  1.00  0.00    -0.092 NA
HETATM    2  C1  UNL     1     -11.622 -28.626 -28.232  1.00  0.00     0.158 A
HETATM    3  C2  UNL     1     -12.917 -28.971 -28.565  1.00  0.00     0.137 A
HETATM    4  N4  UNL     1     -13.052 -29.772 -29.635  1.00  0.00    -0.293 N
ATOM      5  H4  UNL     1     -13.990 -30.050 -29.917  1.00  0.00     0.172 HD
HETATM    6  C8  UNL     1     -12.008 -30.223 -30.349  1.00  0.00     0.328 A
HETATM    7  O2  UNL     1     -12.192 -30.974 -31.346  1.00  0.00    -0.247 OA
HETATM    8  N5  UNL     1     -10.746 -29.886 -30.022  1.00  0.00    -0.274 N
ATOM      9  H5  UNL     1      -9.957 -30.232 -30.569  1.00  0.00     0.173 HD
HETATM   10  C9  UNL     1     -10.545 -29.086 -28.963  1.00  0.00     0.277 A
HETATM   11  O3  UNL     1      -9.373 -28.771 -28.656  1.00  0.00    -0.266 OA
ENDROOT
BRANCH   3  12
HETATM   12  N2  UNL     1     -14.034 -28.523 -27.853  1.00  0.00    -0.346 N
ATOM     13  H2  UNL     1     -14.070 -27.525 -27.640  1.00  0.00     0.163 HD
BRANCH  12  14
HETATM   14  C3  UNL     1     -15.124 -29.313 -27.394  1.00  0.00     0.133 A
HETATM   15  C4  UNL     1     -16.462 -28.555 -27.227  1.00  0.00     0.070 A
HETATM   16  C5  UNL     1     -16.312 -29.647 -28.114  1.00  0.00     0.010 A
HETATM   17  C6  UNL     1     -17.030 -30.863 -28.304  1.00  0.00     0.015 A
HETATM   18  C7  UNL     1     -16.602 -29.914 -29.468  1.00  0.00     0.015 A
BRANCH  14  19
HETATM   19  N3  UNL     1     -14.757 -30.208 -26.304  1.00  0.00    -0.275 N
ATOM     20  H3  UNL     1     -15.349 -30.324 -25.481  1.00  0.00     0.190 HD
BRANCH  19  21
HETATM   21  O1  UNL     1     -13.741 -30.790 -26.422  1.00  0.00    -0.292 OA
ATOM     22  H1  UNL     1     -12.964 -30.359 -26.088  1.00  0.00     0.244 HD
ENDBRANCH  19  21
ENDBRANCH  14  19
ENDBRANCH  12  14
ENDBRANCH   3  12
TORSDOF 4
ENDMDL