MODEL 3
REMARK VINA RESULT: -8.496969112      3.805      6.101
REMARK  4 active torsions:
REMARK  status: ('A' for Active; 'I' for Inactive)
REMARK    1  A    between atoms: C2_2  and  S1_3
REMARK    2  A    between atoms: C2_2  and  C11_17
REMARK    3  A    between atoms: S1_3  and  C3_4
REMARK    4  A    between atoms: C4_10  and  C5_11
REMARK       I    between atoms: C11_17  and  N3_19
REMARK       I    between atoms: N3_19  and  C12_21
ROOT
HETATM    1  C3  UNL     1      -1.790   6.551  25.008  1.00  0.00     0.101 A
HETATM    2  N1  UNL     1      -3.059   6.749  24.675  1.00  0.00    -0.305 N
ATOM      3  H1  UNL     1      -3.425   7.421  24.000  1.00  0.00     0.176 HD
HETATM    4  S2  UNL     1      -3.929   5.663  25.600  1.00  0.00     0.068 SA
HETATM    5  N2  UNL     1      -2.637   4.964  26.408  1.00  0.00    -0.313 N
ATOM      6  H2  UNL     1      -2.675   4.220  27.105  1.00  0.00     0.175 HD
HETATM    7  C4  UNL     1      -1.549   5.584  25.948  1.00  0.00     0.055 A
ENDROOT
BRANCH   1   8
HETATM    8  S1  UNL     1      -0.443   7.507  24.248  1.00  0.00    -0.096 SA
BRANCH   8   9
HETATM    9  C2  UNL     1      -1.126   9.020  23.500  1.00  0.00     0.142 C
HETATM   10  C1  UNL     1      -1.434   8.677  22.061  1.00  0.00     0.031 C
BRANCH   9  11
HETATM   11  C11 UNL     1      -0.135  10.132  23.571  1.00  0.00     0.237 C
HETATM   12  O1  UNL     1      -0.333  11.190  22.936  1.00  0.00    -0.272 OA
HETATM   13  N3  UNL     1       1.038  10.008  24.352  1.00  0.00    -0.300 N
HETATM   14  C12 UNL     1       2.018  11.015  24.464  1.00  0.00     0.188 C
ATOM     15  H3  UNL     1       1.184   9.139  24.864  1.00  0.00     0.171 HD
HETATM   16  N4  UNL     1       3.076  10.867  25.187  1.00  0.00    -0.373 N
HETATM   17  N5  UNL     1       1.843  12.244  23.756  1.00  0.00    -0.064 NA
ATOM     18  H42 UNL     1       3.202   9.990  25.693  1.00  0.00     0.158 HD
ATOM     19  H41 UNL     1       3.785  11.596  25.269  1.00  0.00     0.158 HD
ENDBRANCH   9  11
ENDBRANCH   8   9
ENDBRANCH   1   8
BRANCH   7  20
HETATM   20  C5  UNL     1      -0.206   5.180  26.489  1.00  0.00     0.039 C
HETATM   21  C6  UNL     1      -0.262   3.777  27.045  1.00  0.00     0.011 C
HETATM   22  C7  UNL     1       1.147   3.327  27.254  1.00  0.00     0.001 C
HETATM   23  C8  UNL     1       1.961   4.247  28.107  1.00  0.00     0.000 C
HETATM   24  C9  UNL     1       1.742   5.704  27.835  1.00  0.00     0.001 C
HETATM   25  C10 UNL     1       0.279   6.052  27.606  1.00  0.00     0.011 C
ENDBRANCH   7  20
TORSDOF 4
ENDMDL