MODEL 3
REMARK VINA RESULT: -7.871644009      1.029      1.148
REMARK  8 active torsions:
REMARK  status: ('A' for Active; 'I' for Inactive)
REMARK    1  A    between atoms: C2_2  and  C4_4
REMARK    2  A    between atoms: C4_4  and  O2_9
REMARK    3  A    between atoms: N1_5  and  O1_7
REMARK    4  A    between atoms: O2_9  and  C5_10
REMARK    5  A    between atoms: C5_10  and  C6_11
REMARK    6  A    between atoms: C7_13  and  O4_14
REMARK    7  A    between atoms: C8_16  and  O5_17
REMARK    8  A    between atoms: C9_19  and  C10_20
ROOT
HETATM    1  C6  UNL     1      -0.651   7.940  23.586  1.00  0.00     0.089 A
HETATM    2  O3  UNL     1       0.246   8.475  24.346  1.00  0.00    -0.287 OA
HETATM    3  C7  UNL     1       0.157   9.771  24.373  1.00  0.00     0.218 A
HETATM    4  C8  UNL     1      -0.894  10.161  23.552  1.00  0.00     0.133 A
HETATM    5  C9  UNL     1      -1.384   8.984  23.076  1.00  0.00     0.018 A
ENDROOT
BRANCH   1   6
HETATM    6  C5  UNL     1      -0.821   6.463  23.340  1.00  0.00     0.242 C
BRANCH   6   7
HETATM    7  O2  UNL     1      -0.269   5.735  24.423  1.00  0.00    -0.331 OA
BRANCH   7   8
HETATM    8  C4  UNL     1      -1.270   5.257  25.339  1.00  0.00     0.141 C
HETATM    9  N1  UNL     1      -2.418   5.324  24.931  1.00  0.00    -0.251 N
ATOM     10  H1  UNL     1      -2.334   5.732  24.000  1.00  0.00     0.196 HD
BRANCH   8  11
HETATM   11  C2  UNL     1      -0.852   4.724  26.665  1.00  0.00     0.054 C
HETATM   12  C1  UNL     1      -0.641   3.243  26.559  1.00  0.00     0.018 C
HETATM   13  C3  UNL     1       0.387   5.426  27.177  1.00  0.00     0.018 C
ENDBRANCH   8  11
BRANCH   9  14
HETATM   14  O1  UNL     1      -3.667   5.140  25.083  1.00  0.00    -0.288 OA
ATOM     15  H1  UNL     1      -4.551   5.102  24.738  1.00  0.00     0.244 HD
ENDBRANCH   9  14
ENDBRANCH   7   8
ENDBRANCH   6   7
ENDBRANCH   1   6
BRANCH   5  16
HETATM   16  C10 UNL     1      -2.426   8.810  22.025  1.00  0.00     0.048 C
HETATM   17  C11 UNL     1      -3.743   9.288  22.623  1.00  0.00     0.011 C
HETATM   18  C12 UNL     1      -4.716  10.050  21.819  1.00  0.00     0.003 C
HETATM   19  C13 UNL     1      -4.986   9.584  20.441  1.00  0.00     0.026 C
HETATM   20  C14 UNL     1      -3.892  10.171  19.549  1.00  0.00     0.167 C
HETATM   21  O6  UNL     1      -2.813   9.272  19.719  1.00  0.00    -0.390 OA
HETATM   22  C15 UNL     1      -2.146   9.726  20.845  1.00  0.00     0.177 C
ENDBRANCH   5  16
BRANCH   3  23
HETATM   23  O4  UNL     1       0.920  10.696  25.068  1.00  0.00    -0.339 OA
ATOM     24  H4  UNL     1       0.876  10.954  25.981  1.00  0.00     0.220 HD
ENDBRANCH   3  23
BRANCH   4  25
HETATM   25  O5  UNL     1      -1.325  11.484  23.288  1.00  0.00    -0.356 OA
ATOM     26  H5  UNL     1      -2.084  11.748  22.780  1.00  0.00     0.218 HD
ENDBRANCH   4  25
TORSDOF 8
ENDMDL