MODEL 5
REMARK VINA RESULT: -7.176450363      1.342      3.690
REMARK  6 active torsions:
REMARK  status: ('A' for Active; 'I' for Inactive)
REMARK    1  A    between atoms: C2_3  and  C3_8
REMARK    2  A    between atoms: N2_4  and  O1_6
REMARK    3  A    between atoms: C4_9  and  O2_10
REMARK    4  A    between atoms: C5_12  and  O3_13
REMARK    5  A    between atoms: N3_15  and  C6_16
REMARK    6  A    between atoms: C12_22  and  C13_23
ROOT
HETATM    1  N1  UNL     1       0.154   3.178  27.051  1.00  0.00    -0.190 NA
HETATM    2  C1  UNL     1       0.249   4.326  27.020  1.00  0.00     0.120 C
HETATM    3  C2  UNL     1       0.378   5.782  27.004  1.00  0.00     0.149 C
HETATM    4  N2  UNL     1       1.123   6.260  27.889  1.00  0.00    -0.258 N
ATOM      5  H2  UNL     1       1.251   7.271  27.925  1.00  0.00     0.195 HD
ENDROOT
BRANCH   3   6
HETATM    6  C3  UNL     1      -0.326   6.573  26.017  1.00  0.00     0.070 A
HETATM    7  C4  UNL     1      -1.627   6.227  25.619  1.00  0.00     0.132 A
HETATM    8  C5  UNL     1      -1.981   7.106  24.652  1.00  0.00     0.178 A
HETATM    9  N3  UNL     1      -1.003   7.967  24.427  1.00  0.00    -0.317 N
HETATM   10  C12 UNL     1       0.029   7.642  25.276  1.00  0.00     0.088 A
BRANCH   7  11
HETATM   11  O2  UNL     1      -2.393   5.197  26.112  1.00  0.00    -0.356 OA
ATOM     12  H2  UNL     1      -2.670   4.419  25.643  1.00  0.00     0.218 HD
ENDBRANCH   7  11
BRANCH   8  13
HETATM   13  O3  UNL     1      -3.214   7.078  24.006  1.00  0.00    -0.344 OA
ATOM     14  H3  UNL     1      -3.329   7.296  23.089  1.00  0.00     0.219 HD
ENDBRANCH   8  13
BRANCH   9  15
HETATM   15  C6  UNL     1      -0.984   9.049  23.502  1.00  0.00     0.092 C
HETATM   16  C7  UNL     1      -1.286   8.605  22.078  1.00  0.00     0.026 C
HETATM   17  C8  UNL     1      -1.074   9.883  21.242  1.00  0.00     0.002 C
HETATM   18  C9  UNL     1      -2.322  10.720  21.507  1.00  0.00     0.000 C
HETATM   19  C10 UNL     1      -2.968  10.367  22.810  1.00  0.00     0.002 C
HETATM   20  C11 UNL     1      -1.895  10.204  23.884  1.00  0.00     0.026 C
ENDBRANCH   9  15
BRANCH  10  21
HETATM   21  C13 UNL     1       1.219   8.484  25.390  1.00  0.00     0.120 A
HETATM   22  C14 UNL     1       1.549   9.708  24.935  1.00  0.00     0.129 A
HETATM   23  N4  UNL     1       2.824  10.006  25.339  1.00  0.00    -0.354 N
HETATM   24  C15 UNL     1       3.238   8.944  26.034  1.00  0.00     0.233 A
ATOM     25  H4  UNL     1       3.347  10.860  25.148  1.00  0.00     0.166 HD
HETATM   26  O4  UNL     1       2.288   8.060  26.056  1.00  0.00    -0.302 OA
ENDBRANCH  10  21
ENDBRANCH   3   6
BRANCH   4  27
HETATM   27  O1  UNL     1       1.768   5.495  28.802  1.00  0.00    -0.289 OA
ATOM     28  H1  UNL     1       1.677   5.621  29.739  1.00  0.00     0.244 HD
ENDBRANCH   4  27
TORSDOF 6
ENDMDL