MODEL 1
REMARK VINA RESULT: -8.667859958      0.000      0.000
REMARK  9 active torsions:
REMARK  status: ('A' for Active; 'I' for Inactive)
REMARK    1  A    between atoms: C2_2  and  O1_3
REMARK    2  A    between atoms: O1_3  and  C3_4
REMARK    3  A    between atoms: C3_4  and  C4_6
REMARK    4  A    between atoms: C6_8  and  N1_9
REMARK    5  A    between atoms: N1_9  and  O3_11
REMARK    6  A    between atoms: C10_17  and  C11_18
REMARK    7  A    between atoms: C12_19  and  C13_20
REMARK    8  A    between atoms: C13_20  and  O4_21
REMARK    9  A    between atoms: N3_23  and  O5_25
ROOT
HETATM    1  C4  UNL     1      -0.586   7.384  25.230  1.00  0.00     0.076 A
HETATM    2  C5  UNL     1      -1.680   6.653  24.856  1.00  0.00     0.054 A
HETATM    3  C6  UNL     1      -1.967   5.378  25.295  1.00  0.00     0.080 A
HETATM    4  C7  UNL     1      -1.078   4.806  26.177  1.00  0.00     0.088 A
HETATM    5  N2  UNL     1      -1.310   3.494  26.671  1.00  0.00    -0.099 NA
HETATM    6  C8  UNL     1       0.035   5.508  26.579  1.00  0.00     0.028 A
HETATM    7  C9  UNL     1       1.102   5.219  27.440  1.00  0.00     0.053 A
HETATM    8  C10 UNL     1       1.951   6.283  27.483  1.00  0.00     0.077 A
HETATM    9  O6  UNL     1       1.388   7.197  26.650  1.00  0.00    -0.309 OA
HETATM   10  C14 UNL     1       0.296   6.766  26.130  1.00  0.00     0.104 A
ENDROOT
BRANCH   8  11
HETATM   11  C11 UNL     1       3.189   6.561  28.178  1.00  0.00     0.041 C
HETATM   12  C12 UNL     1       4.098   7.442  28.117  1.00  0.00     0.060 C
BRANCH  12  13
HETATM   13  C13 UNL     1       4.409   8.615  27.361  1.00  0.00     0.159 C
HETATM   14  N3  UNL     1       3.437   9.266  26.714  1.00  0.00    -0.248 N
ATOM     15  H3  UNL     1       2.480   8.917  26.768  1.00  0.00     0.196 HD
BRANCH  13  16
HETATM   16  O4  UNL     1       5.666   9.144  27.238  1.00  0.00    -0.345 OA
ATOM     17  H4  UNL     1       5.848  10.036  26.966  1.00  0.00     0.219 HD
ENDBRANCH  13  16
BRANCH  14  18
HETATM   18  O5  UNL     1       3.698  10.385  25.985  1.00  0.00    -0.288 OA
ATOM     19  H5  UNL     1       3.924  10.332  25.064  1.00  0.00     0.244 HD
ENDBRANCH  14  18
ENDBRANCH  12  13
ENDBRANCH   8  11
BRANCH   1  20
HETATM   20  C3  UNL     1      -0.282   8.726  24.769  1.00  0.00     0.296 C
HETATM   21  O2  UNL     1       0.846   9.226  25.003  1.00  0.00    -0.259 OA
BRANCH  20  22
HETATM   22  O1  UNL     1      -1.183   9.499  24.073  1.00  0.00    -0.318 OA
BRANCH  22  23
HETATM   23  C2  UNL     1      -0.873  10.186  22.873  1.00  0.00     0.174 C
HETATM   24  C1  UNL     1      -1.320   9.276  21.733  1.00  0.00     0.034 C
ENDBRANCH  22  23
ENDBRANCH  20  22
ENDBRANCH   1  20
BRANCH   3  25
HETATM   25  N1  UNL     1      -3.143   4.681  24.850  1.00  0.00    -0.267 N
ATOM     26  H1  UNL     1      -4.088   4.988  25.081  1.00  0.00     0.194 HD
BRANCH  25  27
HETATM   27  O3  UNL     1      -2.909   3.655  24.147  1.00  0.00    -0.289 OA
ATOM     28  H3  UNL     1      -2.712   2.872  24.649  1.00  0.00     0.244 HD
ENDBRANCH  25  27
ENDBRANCH   3  25
TORSDOF 9
ENDMDL