MODEL 2
REMARK VINA RESULT: -6.590858243      4.037      6.702
REMARK  8 active torsions:
REMARK  status: ('A' for Active; 'I' for Inactive)
REMARK    1  A    between atoms: C2_2  and  O1_3
REMARK    2  A    between atoms: O1_3  and  C3_4
REMARK    3  A    between atoms: C3_4  and  C4_6
REMARK    4  A    between atoms: C5_7  and  N1_8
REMARK    5  A    between atoms: N1_8  and  C6_10
REMARK    6  A    between atoms: C6_10  and  O3_11
REMARK    7  A    between atoms: N2_13  and  O4_15
REMARK    8  A    between atoms: O4_15  and  C7_16
ROOT
HETATM    1  N1  UNL     1      -0.926  10.605  20.995  1.00  0.00    -0.314 N
ATOM      2  H1  UNL     1      -0.037  10.442  20.523  1.00  0.00     0.170 HD
ENDROOT
BRANCH   1   3
HETATM    3  C5  UNL     1      -2.058  11.052  20.227  1.00  0.00     0.102 A
HETATM    4  C4  UNL     1      -3.230  10.407  19.977  1.00  0.00     0.102 A
HETATM    5  C9  UNL     1      -4.171  11.025  19.217  1.00  0.00     0.097 A
HETATM    6  S2  UNL     1      -3.793  12.579  18.634  1.00  0.00    -0.038 SA
HETATM    7  S3  UNL     1      -5.680  10.424  18.783  1.00  0.00    -0.070 SA
HETATM    8  S1  UNL     1      -1.931  12.623  19.513  1.00  0.00    -0.032 SA
BRANCH   4   9
HETATM    9  C3  UNL     1      -3.493   9.052  20.520  1.00  0.00     0.298 C
HETATM   10  O2  UNL     1      -2.751   8.118  20.120  1.00  0.00    -0.259 OA
BRANCH   9  11
HETATM   11  O1  UNL     1      -4.473   8.751  21.414  1.00  0.00    -0.318 OA
BRANCH  11  12
HETATM   12  C2  UNL     1      -4.304   9.064  22.783  1.00  0.00     0.174 C
HETATM   13  C1  UNL     1      -4.893  10.426  23.080  1.00  0.00     0.034 C
ENDBRANCH  11  12
ENDBRANCH   9  11
ENDBRANCH   4   9
ENDBRANCH   1   3
BRANCH   1  14
HETATM   14  C6  UNL     1      -1.016  10.383  22.402  1.00  0.00     0.242 C
HETATM   15  N2  UNL     1      -0.685   9.242  22.923  1.00  0.00    -0.223 N
ATOM     16  H2  UNL     1      -0.354   8.479  22.333  1.00  0.00     0.198 HD
BRANCH  14  17
HETATM   17  O3  UNL     1      -1.467  11.429  23.187  1.00  0.00    -0.331 OA
ATOM     18  H3  UNL     1      -1.027  11.578  24.015  1.00  0.00     0.221 HD
ENDBRANCH  14  17
BRANCH  15  19
HETATM   19  O4  UNL     1      -0.788   9.081  24.268  1.00  0.00    -0.222 OA
BRANCH  19  20
HETATM   20  C7  UNL     1       0.266   8.794  25.117  1.00  0.00     0.136 C
HETATM   21  C8  UNL     1       0.398   7.428  25.694  1.00  0.00     0.099 C
HETATM   22  N3  UNL     1       1.110   9.737  25.381  1.00  0.00    -0.382 N
ATOM     23  H32 UNL     1       1.019  10.673  24.985  1.00  0.00     0.158 HD
ATOM     24  H31 UNL     1       1.888   9.525  26.007  1.00  0.00     0.158 HD
ENDBRANCH  19  20
ENDBRANCH  15  19
ENDBRANCH   1  14
TORSDOF 8
ENDMDL