MODEL 3
REMARK VINA RESULT: -6.774616254      1.577      2.074
REMARK  9 active torsions:
REMARK  status: ('A' for Active; 'I' for Inactive)
REMARK    1  A    between atoms: C2_2  and  C3_3
REMARK    2  A    between atoms: C3_3  and  S1_4
REMARK    3  A    between atoms: S1_4  and  C4_5
REMARK    4  A    between atoms: C4_5  and  S3_7
REMARK    5  A    between atoms: S3_7  and  C5_8
REMARK    6  A    between atoms: C8_13  and  C9_14
REMARK    7  A    between atoms: C9_14  and  C10_15
REMARK    8  A    between atoms: C10_15  and  O1_16
REMARK    9  A    between atoms: N2_18  and  O2_20
ROOT
HETATM    1  C5  UNL     1      -1.894   8.111  22.775  1.00  0.00     0.110 C
HETATM    2  N1  UNL     1      -3.050   8.129  23.300  1.00  0.00    -0.379 N
ATOM      3  H1  UNL     1      -3.199   7.512  24.098  1.00  0.00     0.160 HD
HETATM    4  C6  UNL     1      -4.158   8.920  22.893  1.00  0.00     0.122 C
HETATM    5  C7  UNL     1      -3.668  10.304  22.416  1.00  0.00     0.035 C
HETATM    6  C8  UNL     1      -3.097  10.059  21.043  1.00  0.00     0.063 C
HETATM    7  S4  UNL     1      -1.520   9.169  21.349  1.00  0.00    -0.100 SA
ENDROOT
BRANCH   6   8
HETATM    8  C9  UNL     1      -2.918  11.262  20.196  1.00  0.00     0.101 C
BRANCH   8   9
HETATM    9  C10 UNL     1      -3.750  11.277  18.974  1.00  0.00     0.136 C
HETATM   10  N2  UNL     1      -4.151  12.357  18.412  1.00  0.00    -0.251 N
ATOM     11  H2  UNL     1      -3.893  13.257  18.817  1.00  0.00     0.196 HD
BRANCH   9  12
HETATM   12  O1  UNL     1      -4.137  10.068  18.371  1.00  0.00    -0.348 OA
ATOM     13  H1  UNL     1      -4.351   9.315  18.908  1.00  0.00     0.219 HD
ENDBRANCH   9  12
BRANCH  10  14
HETATM   14  O2  UNL     1      -4.919  12.324  17.281  1.00  0.00    -0.288 OA
ATOM     15  H2  UNL     1      -4.854  13.005  16.622  1.00  0.00     0.244 HD
ENDBRANCH  10  14
ENDBRANCH   8   9
ENDBRANCH   6   8
BRANCH   1  16
HETATM   16  S3  UNL     1      -0.558   7.078  23.359  1.00  0.00    -0.047 SA
BRANCH  16  17
HETATM   17  C4  UNL     1      -0.201   7.454  25.052  1.00  0.00     0.111 C
HETATM   18  S2  UNL     1       0.108   8.791  25.428  1.00  0.00    -0.064 SA
BRANCH  17  19
HETATM   19  S1  UNL     1      -0.228   6.170  26.268  1.00  0.00    -0.107 SA
BRANCH  19  20
HETATM   20  C3  UNL     1      -1.821   5.318  26.215  1.00  0.00     0.107 C
BRANCH  20  21
HETATM   21  C2  UNL     1      -1.589   3.902  25.872  1.00  0.00    -0.026 C
HETATM   22  C1  UNL     1      -0.665   3.209  26.513  1.00  0.00     0.007 C
ENDBRANCH  20  21
ENDBRANCH  19  20
ENDBRANCH  17  19
ENDBRANCH  16  17
ENDBRANCH   1  16
TORSDOF 9
ENDMDL