MODEL 3
REMARK VINA RESULT: -7.792046896      3.238      5.629
REMARK  4 active torsions:
REMARK  status: ('A' for Active; 'I' for Inactive)
REMARK    1  A    between atoms: C5_6  and  N2_7
REMARK    2  A    between atoms: C8_15  and  N5_16
REMARK    3  A    between atoms: N5_16  and  C9_18
REMARK    4  A    between atoms: C14_23  and  S1_24
ROOT
HETATM    1  C1  UNL     1      -1.480  11.312  21.262  1.00  0.00     0.051 C
HETATM    2  C2  UNL     1      -0.912  10.508  22.379  1.00  0.00    -0.019 A
HETATM    3  C3  UNL     1       0.057  11.037  23.183  1.00  0.00     0.081 A
HETATM    4  C4  UNL     1       0.541  12.373  22.961  1.00  0.00     0.102 C
HETATM    5  N1  UNL     1       0.914  13.449  22.763  1.00  0.00    -0.191 NA
HETATM    6  C5  UNL     1       0.543  10.248  24.200  1.00  0.00     0.091 A
HETATM    7  C6  UNL     1       0.077   8.972  24.408  1.00  0.00     0.102 A
HETATM    8  C7  UNL     1       0.612   8.187  25.458  1.00  0.00     0.104 C
HETATM    9  N4  UNL     1       1.067   7.527  26.310  1.00  0.00    -0.191 NA
HETATM   10  C8  UNL     1      -0.924   8.423  23.579  1.00  0.00     0.070 A
HETATM   11  C14 UNL     1      -1.396   9.202  22.582  1.00  0.00     0.051 A
ENDROOT
BRANCH   6  12
HETATM   12  N2  UNL     1       1.555  10.840  25.017  1.00  0.00    -0.304 N
HETATM   13  N3  UNL     1       2.783  10.598  24.809  1.00  0.00    -0.345 N
ATOM     14  H32 UNL     1       3.034   9.970  24.044  1.00  0.00     0.176 HD
ATOM     15  H31 UNL     1       3.505  11.020  25.392  1.00  0.00     0.176 HD
ATOM     16  H2  UNL     1       1.288  11.465  25.777  1.00  0.00     0.186 HD
ENDBRANCH   6  12
BRANCH  11  17
HETATM   17  S1  UNL     1      -2.584   8.617  21.405  1.00  0.00    -0.008 SA
HETATM   18  C15 UNL     1      -4.176   9.245  21.683  1.00  0.00     0.139 C
HETATM   19  N6  UNL     1      -5.242   9.670  21.848  1.00  0.00    -0.184 NA
ENDBRANCH  11  17
BRANCH  10  20
HETATM   20  N5  UNL     1      -1.313   7.098  23.793  1.00  0.00    -0.383 N
ATOM     21  H5  UNL     1      -1.193   6.476  22.994  1.00  0.00     0.160 HD
BRANCH  20  22
HETATM   22  C9  UNL     1      -1.851   6.488  24.956  1.00  0.00     0.082 C
HETATM   23  C10 UNL     1      -3.320   6.386  25.095  1.00  0.00     0.025 C
HETATM   24  C11 UNL     1      -3.508   5.309  26.151  1.00  0.00     0.002 C
HETATM   25  C12 UNL     1      -2.170   4.672  26.370  1.00  0.00     0.002 C
HETATM   26  C13 UNL     1      -1.416   5.026  25.085  1.00  0.00     0.025 C
ENDBRANCH  20  22
ENDBRANCH  10  20
TORSDOF 4
ENDMDL