MODEL 4
REMARK VINA RESULT: -6.538021411      2.920      5.728
REMARK  6 active torsions:
REMARK  status: ('A' for Active; 'I' for Inactive)
REMARK    1  A    between atoms: C2_2  and  C3_3
REMARK    2  A    between atoms: C3_3  and  C4_4
REMARK    3  A    between atoms: C4_4  and  O1_5
REMARK    4  A    between atoms: O1_5  and  C5_6
REMARK    5  A    between atoms: C5_6  and  O2_7
REMARK    6  A    between atoms: C5_6  and  C6_9
ROOT
HETATM    1  C6  UNL     1      -0.358   9.326  24.045  1.00  0.00     0.080 A
HETATM    2  S1  UNL     1      -1.078   7.786  24.482  1.00  0.00    -0.067 SA
HETATM    3  C7  UNL     1       0.125   7.196  25.513  1.00  0.00     0.122 A
HETATM    4  N1  UNL     1       0.175   5.938  26.243  1.00  0.00    -0.091 NA
HETATM    5  C8  UNL     1       1.055   8.199  25.498  1.00  0.00     0.124 A
HETATM    6  O3  UNL     1       2.196   8.125  26.206  1.00  0.00    -0.281 OA
HETATM    7  C9  UNL     1       3.104   9.038  26.227  1.00  0.00     0.220 A
HETATM    8  S2  UNL     1       4.451   8.793  27.151  1.00  0.00    -0.032 SA
HETATM    9  N2  UNL     1       2.942  10.138  25.520  1.00  0.00    -0.317 N
ATOM     10  H2  UNL     1       3.652  10.870  25.526  1.00  0.00     0.169 HD
HETATM   11  C10 UNL     1       1.805  10.278  24.778  1.00  0.00     0.117 A
HETATM   12  S3  UNL     1       1.679  11.655  23.938  1.00  0.00    -0.059 SA
HETATM   13  C11 UNL     1       0.804   9.288  24.745  1.00  0.00     0.060 A
ENDROOT
BRANCH   1  14
HETATM   14  C5  UNL     1      -1.024  10.244  23.145  1.00  0.00     0.197 C
BRANCH  14  15
HETATM   15  O1  UNL     1      -0.922  10.489  21.822  1.00  0.00    -0.330 OA
BRANCH  15  16
HETATM   16  C4  UNL     1      -1.471   9.754  20.761  1.00  0.00     0.178 C
BRANCH  16  17
HETATM   17  C3  UNL     1      -2.414  10.519  19.879  1.00  0.00     0.026 C
BRANCH  17  18
HETATM   18  C2  UNL     1      -1.881  11.960  19.838  1.00  0.00    -0.002 C
HETATM   19  C1  UNL     1      -2.803  12.821  19.015  1.00  0.00     0.005 C
ENDBRANCH  17  18
ENDBRANCH  16  17
ENDBRANCH  15  16
ENDBRANCH  14  15
BRANCH  14  20
HETATM   20  O2  UNL     1      -1.931  11.025  23.694  1.00  0.00    -0.340 OA
ATOM     21  H2  UNL     1      -1.549  11.860  23.940  1.00  0.00     0.220 HD
ENDBRANCH  14  20
ENDBRANCH   1  14
TORSDOF 6
ENDMDL