MODEL 2
REMARK VINA RESULT: -8.650702902      1.758      2.044
REMARK  7 active torsions:
REMARK  status: ('A' for Active; 'I' for Inactive)
REMARK    1  A    between atoms: O1_2  and  C2_3
REMARK    2  A    between atoms: C2_3  and  C3_4
REMARK    3  A    between atoms: C2_3  and  C10_11
REMARK    4  A    between atoms: C3_4  and  C4_5
REMARK    5  A    between atoms: C12_13  and  O2_14
REMARK    6  A    between atoms: C13_16  and  N1_17
REMARK       I    between atoms: N2_19  and  C14_21
REMARK       I    between atoms: C14_21  and  N3_23
REMARK    7  A    between atoms: N3_23  and  O4_25
ROOT
HETATM    1  C10 UNL     1      -1.426   8.479  23.119  1.00  0.00     0.016 A
HETATM    2  C11 UNL     1      -0.885   9.010  21.988  1.00  0.00     0.056 A
HETATM    3  C12 UNL     1      -1.731   9.337  20.994  1.00  0.00     0.101 A
HETATM    4  C13 UNL     1      -3.063   9.102  21.209  1.00  0.00     0.122 A
HETATM    5  S1  UNL     1      -3.095   8.441  22.780  1.00  0.00    -0.070 SA
ENDROOT
BRANCH   1   6
HETATM    6  C2  UNL     1      -0.722   8.025  24.385  1.00  0.00     0.161 C
BRANCH   6   7
HETATM    7  O1  UNL     1      -0.485   9.144  25.125  1.00  0.00    -0.386 OA
HETATM    8  C1  UNL     1       0.884   9.454  25.193  1.00  0.00     0.202 C
ENDBRANCH   6   7
BRANCH   6   9
HETATM    9  C3  UNL     1      -1.631   7.053  25.036  1.00  0.00     0.042 C
BRANCH   9  10
HETATM   10  C4  UNL     1      -1.072   5.767  25.500  1.00  0.00    -0.012 C
HETATM   11  C5  UNL     1      -0.348   5.842  26.826  1.00  0.00     0.005 C
HETATM   12  C6  UNL     1       0.508   4.568  26.893  1.00  0.00     0.000 C
HETATM   13  C7  UNL     1      -0.477   3.426  26.996  1.00  0.00     0.000 C
HETATM   14  C8  UNL     1      -1.390   3.303  25.835  1.00  0.00     0.000 C
HETATM   15  C9  UNL     1      -1.957   4.601  25.335  1.00  0.00     0.005 C
ENDBRANCH   9  10
ENDBRANCH   6   9
ENDBRANCH   1   6
BRANCH   3  16
HETATM   16  O2  UNL     1      -1.287   9.897  19.769  1.00  0.00    -0.358 OA
ATOM     17  H2  UNL     1      -1.874  10.339  19.168  1.00  0.00     0.217 HD
ENDBRANCH   3  16
BRANCH   4  18
HETATM   18  N1  UNL     1      -4.158   9.366  20.298  1.00  0.00    -0.287 N
HETATM   19  N2  UNL     1      -4.021  10.434  19.609  1.00  0.00    -0.249 N
HETATM   20  C14 UNL     1      -5.051  10.783  18.678  1.00  0.00     0.358 C
ATOM     21  H2  UNL     1      -3.196  11.024  19.720  1.00  0.00     0.192 HD
HETATM   22  O3  UNL     1      -5.269  11.984  18.360  1.00  0.00    -0.243 OA
HETATM   23  N3  UNL     1      -5.826   9.736  18.117  1.00  0.00    -0.218 N
ATOM     24  H3  UNL     1      -5.650   8.764  18.372  1.00  0.00     0.199 HD
ATOM     25  H1  UNL     1      -4.969   8.754  20.215  1.00  0.00     0.188 HD
BRANCH  23  26
HETATM   26  O4  UNL     1      -6.811  10.054  17.229  1.00  0.00    -0.286 OA
ATOM     27  H4  UNL     1      -7.486   9.412  17.048  1.00  0.00     0.244 HD
ENDBRANCH  23  26
ENDBRANCH   4  18
TORSDOF 7
ENDMDL