MODEL 5
REMARK VINA RESULT: -7.877790419      4.744      6.182
REMARK  6 active torsions:
REMARK  status: ('A' for Active; 'I' for Inactive)
REMARK    1  A    between atoms: O1_2  and  N1_3
REMARK    2  A    between atoms: C2_5  and  N2_6
REMARK    3  A    between atoms: C2_5  and  C9_23
REMARK    4  A    between atoms: N3_8  and  C3_10
REMARK    5  A    between atoms: C5_14  and  C6_15
REMARK    6  A    between atoms: N5_17  and  O2_19
ROOT
HETATM    1  N2  UNL     1      -0.362   6.642  26.254  1.00  0.00    -0.287 N
ATOM      2  H2  UNL     1      -1.220   7.186  26.350  1.00  0.00     0.188 HD
HETATM    3  N3  UNL     1       0.611   7.098  25.577  1.00  0.00    -0.295 N
ATOM      4  H3  UNL     1       1.471   6.557  25.479  1.00  0.00     0.187 HD
ENDROOT
BRANCH   3   5
HETATM    5  C3  UNL     1       0.482   8.411  24.940  1.00  0.00     0.105 A
HETATM    6  C4  UNL     1      -0.629   8.687  24.194  1.00  0.00     0.117 A
HETATM    7  N4  UNL     1      -1.752   7.813  23.935  1.00  0.00    -0.092 NA
HETATM    8  S1  UNL     1      -0.352  10.279  23.666  1.00  0.00    -0.069 SA
HETATM    9  C5  UNL     1       1.184  10.568  24.409  1.00  0.00     0.057 A
HETATM   10  C8  UNL     1       1.419   9.388  25.049  1.00  0.00     0.096 A
HETATM   11  N6  UNL     1       2.628   9.172  25.826  1.00  0.00    -0.098 NA
BRANCH   9  12
HETATM   12  C6  UNL     1       1.962  11.808  24.317  1.00  0.00     0.047 C
HETATM   13  C7  UNL     1       1.376  12.858  23.370  1.00  0.00     0.071 C
HETATM   14  N5  UNL     1       3.002  12.136  24.873  1.00  0.00    -0.272 N
ATOM     15  H5  UNL     1       3.244  13.076  24.560  1.00  0.00     0.194 HD
BRANCH  14  16
HETATM   16  O2  UNL     1       3.919  11.741  25.713  1.00  0.00    -0.290 OA
ATOM     17  H2  UNL     1       4.732  11.991  26.135  1.00  0.00     0.244 HD
ENDBRANCH  14  16
ENDBRANCH   9  12
ENDBRANCH   3   5
BRANCH   1  18
HETATM   18  C2  UNL     1      -0.248   5.340  26.891  1.00  0.00     0.120 C
HETATM   19  N1  UNL     1       0.870   5.068  27.377  1.00  0.00    -0.253 N
ATOM     20  H1  UNL     1       1.566   5.805  27.263  1.00  0.00     0.195 HD
BRANCH  19  21
HETATM   21  O1  UNL     1       1.321   3.981  28.022  1.00  0.00    -0.284 OA
HETATM   22  C1  UNL     1       1.669   2.782  27.333  1.00  0.00     0.237 C
ENDBRANCH  19  21
BRANCH  18  23
HETATM   23  C9  UNL     1      -1.450   4.526  26.876  1.00  0.00     0.056 C
HETATM   24  C10 UNL     1      -2.690   5.382  26.656  1.00  0.00     0.012 C
HETATM   25  C11 UNL     1      -3.299   4.917  25.360  1.00  0.00     0.001 C
HETATM   26  C12 UNL     1      -2.268   4.038  24.677  1.00  0.00     0.001 C
HETATM   27  C13 UNL     1      -1.539   3.434  25.854  1.00  0.00     0.012 C
ENDBRANCH  18  23
ENDBRANCH   1  18
TORSDOF 6
ENDMDL