MODEL 3
REMARK VINA RESULT: -6.659457306      1.188      1.271
REMARK  4 active torsions:
REMARK  status: ('A' for Active; 'I' for Inactive)
REMARK    1  A    between atoms: C2_2  and  O1_3
REMARK    2  A    between atoms: O1_3  and  C3_4
REMARK    3  A    between atoms: C9_19  and  S2_20
REMARK    4  A    between atoms: S2_20  and  C10_21
ROOT
HETATM    1  C3  UNL     1      14.545  -6.643  12.030  1.00  0.00     0.155 C
HETATM    2  C4  UNL     1      14.780  -6.500  10.541  1.00  0.00     0.092 C
HETATM    3  C5  UNL     1      13.398  -6.387   9.986  1.00  0.00     0.231 C
HETATM    4  N1  UNL     1      12.516  -6.060  11.087  1.00  0.00    -0.044 N
ATOM      5  H11 UNL     1      11.527  -6.225  10.899  1.00  0.00     0.280 HD
ATOM      6  H12 UNL     1      12.423  -5.062  11.273  1.00  0.00     0.280 HD
HETATM    7  C6  UNL     1      13.049  -6.820  12.173  1.00  0.00     0.213 C
HETATM    8  C7  UNL     1      12.680  -8.265  12.046  1.00  0.00     0.043 C
HETATM    9  S1  UNL     1      12.855  -7.889   9.130  1.00  0.00    -0.048 SA
HETATM   10  C8  UNL     1      12.131  -7.011   7.755  1.00  0.00     0.141 C
HETATM   11  N2  UNL     1      11.312  -7.472   6.915  1.00  0.00    -0.380 N
ATOM     12  H21 UNL     1      10.898  -6.970   6.129  1.00  0.00     0.158 HD
ATOM     13  H22 UNL     1      10.903  -8.404   6.837  1.00  0.00     0.158 HD
HETATM   14  N3  UNL     1      12.684  -5.749   7.860  1.00  0.00    -0.332 N
ATOM     15  H3  UNL     1      12.591  -5.096   7.082  1.00  0.00     0.168 HD
HETATM   16  C9  UNL     1      13.295  -5.396   8.886  1.00  0.00     0.101 C
ENDROOT
BRANCH  16  17
HETATM   17  S2  UNL     1      14.064  -3.760   9.130  1.00  0.00    -0.065 SA
BRANCH  17  18
HETATM   18  C10 UNL     1      14.729  -3.230   7.536  1.00  0.00     0.061 A
HETATM   19  C11 UNL     1      14.154  -2.900   6.352  1.00  0.00     0.084 A
HETATM   20  S3  UNL     1      15.483  -2.530   5.408  1.00  0.00    -0.062 SA
HETATM   21  S4  UNL     1      16.381  -3.006   7.128  1.00  0.00    -0.045 SA
ENDBRANCH  17  18
ENDBRANCH  16  17
BRANCH   1  22
HETATM   22  O1  UNL     1      15.156  -7.765  12.565  1.00  0.00    -0.384 OA
BRANCH  22  23
HETATM   23  C2  UNL     1      16.193  -7.375  13.416  1.00  0.00     0.163 C
HETATM   24  C1  UNL     1      15.725  -6.990  14.780  1.00  0.00     0.033 C
ENDBRANCH  22  23
ENDBRANCH   1  22
TORSDOF 4
ENDMDL