MODEL 5
REMARK VINA RESULT: -7.853331902      1.185      1.445
REMARK  6 active torsions:
REMARK  status: ('A' for Active; 'I' for Inactive)
REMARK    1  A    between atoms: C2_2  and  O2_4
REMARK    2  A    between atoms: O2_4  and  N1_5
REMARK       I    between atoms: C3_7  and  N2_8
REMARK       I    between atoms: C3_7  and  N5_21
REMARK    3  A    between atoms: N3_10  and  C4_12
REMARK    4  A    between atoms: C7_18  and  O3_19
REMARK    5  A    between atoms: N5_21  and  C8_23
REMARK    6  A    between atoms: C8_23  and  C9_24
ROOT
HETATM    1  N1  UNL     1      17.166  -2.910   8.983  1.00  0.00    -0.087 N
ATOM      2  H1  UNL     1      17.519  -3.037   9.931  1.00  0.00     0.214 HD
HETATM    3  C3  UNL     1      16.246  -3.691   8.480  1.00  0.00     0.713 C
HETATM    4  N2  UNL     1      15.720  -4.750   9.273  1.00  0.00    -0.130 N
ATOM      5  H2  UNL     1      14.712  -4.906   9.276  1.00  0.00     0.205 HD
HETATM    6  N3  UNL     1      16.451  -5.501   9.972  1.00  0.00    -0.276 N
ATOM      7  H3  UNL     1      17.465  -5.395  10.010  1.00  0.00     0.188 HD
HETATM    8  N5  UNL     1      15.739  -3.542   7.172  1.00  0.00    -0.223 N
ATOM      9  H5  UNL     1      15.590  -2.611   6.782  1.00  0.00     0.177 HD
ENDROOT
BRANCH   1  10
HETATM   10  O2  UNL     1      17.631  -1.908   8.163  1.00  0.00    -0.185 OA
BRANCH  10  11
HETATM   11  C2  UNL     1      17.542  -0.601   8.602  1.00  0.00     0.278 C
HETATM   12  C1  UNL     1      18.587   0.409   8.337  1.00  0.00     0.128 C
HETATM   13  O1  UNL     1      16.530  -0.251   9.257  1.00  0.00    -0.264 OA
ENDBRANCH  10  11
ENDBRANCH   1  10
BRANCH   8  14
HETATM   14  C8  UNL     1      15.432  -4.714   6.394  1.00  0.00     0.142 C
BRANCH  14  15
HETATM   15  C9  UNL     1      14.037  -4.609   5.831  1.00  0.00    -0.004 C
HETATM   16  C10 UNL     1      13.054  -5.165   6.815  1.00  0.00     0.011 C
HETATM   17  C11 UNL     1      13.773  -3.156   5.489  1.00  0.00     0.011 C
ENDBRANCH  14  15
ENDBRANCH   8  14
BRANCH   6  18
HETATM   18  C4  UNL     1      15.752  -6.528  10.719  1.00  0.00     0.143 A
HETATM   19  S1  UNL     1      14.231  -7.236  10.440  1.00  0.00    -0.037 SA
HETATM   20  C5  UNL     1      14.211  -8.309  11.762  1.00  0.00     0.148 A
HETATM   21  S2  UNL     1      13.036  -9.392  12.214  1.00  0.00    -0.052 SA
HETATM   22  N4  UNL     1      15.373  -8.082  12.366  1.00  0.00    -0.315 N
HETATM   23  C6  UNL     1      15.718  -8.861  13.597  1.00  0.00     0.160 C
HETATM   24  C7  UNL     1      16.178  -7.173  11.847  1.00  0.00     0.179 A
BRANCH  24  25
HETATM   25  O3  UNL     1      17.455  -6.848  12.416  1.00  0.00    -0.344 OA
ATOM     26  H3  UNL     1      18.248  -7.202  12.032  1.00  0.00     0.219 HD
ENDBRANCH  24  25
ENDBRANCH   6  18
TORSDOF 6
ENDMDL