MODEL 3
REMARK VINA RESULT: -7.567757505      0.574      1.343
REMARK  6 active torsions:
REMARK  status: ('A' for Active; 'I' for Inactive)
REMARK    1  A    between atoms: C2_2  and  C3_3
REMARK    2  A    between atoms: C3_3  and  C5_5
REMARK    3  A    between atoms: C5_5  and  C7_8
REMARK    4  A    between atoms: C7_8  and  C8_9
REMARK    5  A    between atoms: C11_14  and  O1_15
REMARK       I    between atoms: N2_17  and  C12_18
REMARK    6  A    between atoms: C14_21  and  O3_22
ROOT
HETATM    1  C5  UNL     1      15.509  -4.466   8.722  1.00  0.00     0.120 C
HETATM    2  C6  UNL     1      16.209  -5.371   7.814  1.00  0.00     0.068 C
HETATM    3  N1  UNL     1      16.773  -6.116   7.097  1.00  0.00    -0.197 NA
ENDROOT
BRANCH   1   4
HETATM    4  C3  UNL     1      15.411  -3.150   7.956  1.00  0.00     0.002 C
HETATM    5  C4  UNL     1      15.903  -1.986   8.744  1.00  0.00     0.011 C
BRANCH   4   6
HETATM    6  C2  UNL     1      14.021  -2.882   7.477  1.00  0.00     0.001 C
HETATM    7  C1  UNL     1      14.061  -2.797   5.966  1.00  0.00     0.005 C
ENDBRANCH   4   6
ENDBRANCH   1   4
BRANCH   1   8
HETATM    8  C7  UNL     1      14.189  -5.016   9.043  1.00  0.00     0.013 C
BRANCH   8   9
HETATM    9  C8  UNL     1      13.858  -6.199   9.468  1.00  0.00     0.025 C
HETATM   10  S1  UNL     1      13.314  -7.454   8.224  1.00  0.00    -0.052 SA
HETATM   11  S2  UNL     1      11.682  -7.992   9.603  1.00  0.00    -0.047 SA
HETATM   12  C9  UNL     1      12.789  -7.712  11.012  1.00  0.00     0.079 A
HETATM   13  C10 UNL     1      13.792  -6.862  10.752  1.00  0.00     0.055 A
HETATM   14  C14 UNL     1      12.919  -8.191  12.285  1.00  0.00     0.170 A
HETATM   15  C11 UNL     1      14.554  -6.846  11.937  1.00  0.00     0.164 A
HETATM   16  N2  UNL     1      14.027  -7.650  12.867  1.00  0.00    -0.240 N
HETATM   17  C12 UNL     1      14.488  -7.921  14.196  1.00  0.00     0.228 C
HETATM   18  C13 UNL     1      15.715  -7.259  14.673  1.00  0.00     0.118 C
HETATM   19  O2  UNL     1      13.888  -8.699  14.965  1.00  0.00    -0.273 OA
BRANCH  15  20
HETATM   20  O1  UNL     1      15.719  -6.123  12.193  1.00  0.00    -0.345 OA
ATOM     21  H1  UNL     1      16.471  -6.394  12.707  1.00  0.00     0.219 HD
ENDBRANCH  15  20
BRANCH  14  22
HETATM   22  O3  UNL     1      12.096  -9.093  12.958  1.00  0.00    -0.345 OA
ATOM     23  H3  UNL     1      11.231  -9.398  12.711  1.00  0.00     0.219 HD
ENDBRANCH  14  22
ENDBRANCH   8   9
ENDBRANCH   1   8
TORSDOF 6
ENDMDL