MODEL 4
REMARK VINA RESULT: -8.059076269      1.593      1.865
REMARK  4 active torsions:
REMARK  status: ('A' for Active; 'I' for Inactive)
REMARK    1  A    between atoms: C9_13  and  S1_14
REMARK    2  A    between atoms: S1_14  and  C10_15
REMARK    3  A    between atoms: C10_15  and  C12_18
REMARK    4  A    between atoms: C12_18  and  S2_20
ROOT
HETATM    1  C1  UNL     1      15.158  -6.431  12.149  1.00  0.00     0.051 C
HETATM    2  C2  UNL     1      13.986  -7.285  11.761  1.00  0.00    -0.021 A
HETATM    3  C3  UNL     1      13.498  -8.241  12.605  1.00  0.00     0.074 A
HETATM    4  C4  UNL     1      14.154  -8.399  13.899  1.00  0.00     0.101 C
HETATM    5  N1  UNL     1      14.692  -8.532  14.915  1.00  0.00    -0.191 NA
HETATM    6  C5  UNL     1      12.427  -9.052  12.296  1.00  0.00     0.092 A
HETATM    7  C6  UNL     1      11.944 -10.051  13.228  1.00  0.00     0.103 C
HETATM    8  N2  UNL     1      11.554 -10.848  13.946  1.00  0.00    -0.191 NA
HETATM    9  C7  UNL     1      11.796  -8.919  11.087  1.00  0.00     0.094 A
HETATM   10  N3  UNL     1      10.678  -9.740  10.727  1.00  0.00    -0.099 NA
HETATM   11  C8  UNL     1      12.292  -7.940  10.218  1.00  0.00     0.089 A
HETATM   12  N4  UNL     1      11.567  -7.854   8.993  1.00  0.00    -0.099 NA
HETATM   13  C9  UNL     1      13.355  -7.123  10.505  1.00  0.00     0.035 A
ENDROOT
BRANCH  13  14
HETATM   14  S1  UNL     1      14.029  -5.864   9.503  1.00  0.00    -0.107 SA
BRANCH  14  15
HETATM   15  C10 UNL     1      14.244  -6.165   7.781  1.00  0.00     0.173 C
HETATM   16  C11 UNL     1      15.651  -6.323   7.368  1.00  0.00     0.076 C
HETATM   17  N5  UNL     1      16.762  -6.441   7.056  1.00  0.00    -0.196 NA
BRANCH  15  18
HETATM   18  C12 UNL     1      13.673  -5.052   6.911  1.00  0.00     0.086 C
HETATM   19  C13 UNL     1      13.224  -5.653   5.605  1.00  0.00     0.024 C
BRANCH  18  20
HETATM   20  S2  UNL     1      14.864  -3.739   6.581  1.00  0.00    -0.044 SA
HETATM   21  C14 UNL     1      14.972  -2.618   7.947  1.00  0.00     0.134 C
HETATM   22  N6  UNL     1      15.034  -1.870   8.829  1.00  0.00    -0.184 NA
ENDBRANCH  18  20
ENDBRANCH  15  18
ENDBRANCH  14  15
ENDBRANCH  13  14
TORSDOF 4
ENDMDL