MODEL 2
REMARK VINA RESULT: -7.582151574      1.390      1.458
REMARK  5 active torsions:
REMARK  status: ('A' for Active; 'I' for Inactive)
REMARK    1  A    between atoms: C2_2  and  C3_3
REMARK    2  A    between atoms: C3_3  and  N1_4
REMARK    3  A    between atoms: C4_5  and  S1_6
REMARK    4  A    between atoms: S1_6  and  C5_7
REMARK    5  A    between atoms: C8_14  and  O1_15
ROOT
HETATM    1  N1  UNL     1      12.790  -7.784  11.926  1.00  0.00    -0.313 N
HETATM    2  C4  UNL     1      12.598  -6.802  10.988  1.00  0.00     0.154 A
HETATM    3  N4  UNL     1      11.700  -7.011  10.007  1.00  0.00    -0.345 N
ATOM      4  H4  UNL     1      11.569  -6.272   9.317  1.00  0.00     0.167 HD
HETATM    5  C9  UNL     1      10.971  -8.119   9.878  1.00  0.00     0.116 A
HETATM    6  C10 UNL     1      11.144  -9.116  10.804  1.00  0.00     0.098 A
HETATM    7  C11 UNL     1      10.382 -10.320  10.703  1.00  0.00     0.104 C
HETATM    8  N5  UNL     1       9.763 -11.312  10.616  1.00  0.00    -0.191 NA
HETATM    9  C12 UNL     1      12.074  -8.897  11.818  1.00  0.00     0.127 A
HETATM   10  S3  UNL     1      12.252 -10.107  12.902  1.00  0.00    -0.059 SA
ENDROOT
BRANCH   1  11
HETATM   11  C3  UNL     1      13.737  -7.601  12.974  1.00  0.00     0.158 C
BRANCH  11  12
HETATM   12  C2  UNL     1      15.104  -8.060  12.659  1.00  0.00    -0.017 C
HETATM   13  C1  UNL     1      15.786  -8.761  13.540  1.00  0.00     0.008 C
ENDBRANCH  11  12
ENDBRANCH   1  11
BRANCH   2  14
HETATM   14  S1  UNL     1      13.555  -5.357  11.181  1.00  0.00    -0.032 SA
BRANCH  14  15
HETATM   15  C5  UNL     1      14.047  -4.460   9.775  1.00  0.00     0.131 A
HETATM   16  N2  UNL     1      15.092  -3.559   9.793  1.00  0.00    -0.324 N
HETATM   17  C6  UNL     1      15.217  -3.048   8.583  1.00  0.00     0.180 A
ATOM     18  H2  UNL     1      15.669  -3.328  10.602  1.00  0.00     0.169 HD
HETATM   19  S2  UNL     1      16.320  -1.928   8.095  1.00  0.00    -0.040 SA
HETATM   20  N3  UNL     1      14.307  -3.558   7.741  1.00  0.00    -0.307 N
HETATM   21  C7  UNL     1      14.107  -3.265   6.335  1.00  0.00     0.161 C
HETATM   22  C8  UNL     1      13.582  -4.444   8.506  1.00  0.00     0.179 A
BRANCH  22  23
HETATM   23  O1  UNL     1      12.541  -5.149   7.909  1.00  0.00    -0.344 OA
ATOM     24  H1  UNL     1      12.000  -4.939   7.156  1.00  0.00     0.219 HD
ENDBRANCH  22  23
ENDBRANCH  14  15
ENDBRANCH   2  14
TORSDOF 5
ENDMDL