MODEL 4
REMARK VINA RESULT: -7.826213144      2.154      2.804
REMARK  7 active torsions:
REMARK  status: ('A' for Active; 'I' for Inactive)
REMARK    1  A    between atoms: O1_2  and  C2_3
REMARK    2  A    between atoms: C2_3  and  C3_5
REMARK    3  A    between atoms: C4_6  and  C5_7
REMARK    4  A    between atoms: N1_8  and  C6_10
REMARK    5  A    between atoms: C11_17  and  C12_18
REMARK    6  A    between atoms: C15_22  and  O5_23
REMARK    7  A    between atoms: C16_25  and  O6_26
ROOT
HETATM    1  C6  UNL     1      12.750  -6.706  10.481  1.00  0.00     0.156 A
HETATM    2  O3  UNL     1      12.326  -6.421   9.281  1.00  0.00    -0.296 OA
HETATM    3  C7  UNL     1      11.597  -7.374   8.764  1.00  0.00     0.073 A
HETATM    4  C8  UNL     1      10.953  -7.391   7.426  1.00  0.00     0.078 C
HETATM    5  C9  UNL     1      11.507  -8.417   9.695  1.00  0.00     0.084 A
HETATM    6  C10 UNL     1      10.799  -9.653   9.518  1.00  0.00     0.102 C
HETATM    7  N2  UNL     1      10.239 -10.629   9.354  1.00  0.00    -0.191 NA
HETATM    8  C11 UNL     1      12.241  -7.979  10.773  1.00  0.00     0.020 A
ENDROOT
BRANCH   8   9
HETATM    9  C12 UNL     1      12.508  -8.664  12.037  1.00  0.00     0.016 C
HETATM   10  C13 UNL     1      11.471  -9.652  12.467  1.00  0.00     0.015 C
HETATM   11  C14 UNL     1      13.823  -9.467  11.961  1.00  0.00     0.015 C
ENDBRANCH   8   9
BRANCH   1  12
HETATM   12  N1  UNL     1      13.563  -5.863  11.291  1.00  0.00    -0.343 N
HETATM   13  C5  UNL     1      14.572  -5.195  10.916  1.00  0.00     0.128 C
ATOM     14  H1  UNL     1      13.305  -5.788  12.275  1.00  0.00     0.167 HD
BRANCH  13  15
HETATM   15  C4  UNL     1      15.128  -5.136   9.576  1.00  0.00     0.113 A
HETATM   16  C3  UNL     1      15.175  -4.093   8.687  1.00  0.00     0.112 A
HETATM   17  C16 UNL     1      15.816  -4.549   7.527  1.00  0.00     0.143 A
HETATM   18  C15 UNL     1      16.125  -5.859   7.785  1.00  0.00     0.219 A
HETATM   19  O4  UNL     1      15.711  -6.181   8.995  1.00  0.00    -0.283 OA
BRANCH  16  20
HETATM   20  C2  UNL     1      14.663  -2.749   8.888  1.00  0.00     0.298 C
HETATM   21  O2  UNL     1      13.420  -2.518   8.675  1.00  0.00    -0.259 OA
BRANCH  20  22
HETATM   22  O1  UNL     1      15.397  -1.667   9.297  1.00  0.00    -0.322 OA
HETATM   23  C1  UNL     1      16.725  -1.388   8.982  1.00  0.00     0.213 C
ENDBRANCH  20  22
ENDBRANCH  16  20
BRANCH  17  24
HETATM   24  O6  UNL     1      16.094  -3.862   6.367  1.00  0.00    -0.355 OA
ATOM     25  H6  UNL     1      16.812  -3.267   6.185  1.00  0.00     0.218 HD
ENDBRANCH  17  24
BRANCH  18  26
HETATM   26  O5  UNL     1      16.777  -6.708   6.895  1.00  0.00    -0.339 OA
ATOM     27  H5  UNL     1      17.535  -7.245   7.094  1.00  0.00     0.220 HD
ENDBRANCH  18  26
ENDBRANCH  13  15
ENDBRANCH   1  12
TORSDOF 7
ENDMDL