MODEL 2
REMARK VINA RESULT: -6.307283165      2.104      2.606
REMARK  9 active torsions:
REMARK  status: ('A' for Active; 'I' for Inactive)
REMARK    1  A    between atoms: O1_2  and  C2_3
REMARK    2  A    between atoms: C2_3  and  C3_4
REMARK    3  A    between atoms: C3_4  and  C4_5
REMARK    4  A    between atoms: C4_5  and  N1_6
REMARK    5  A    between atoms: N1_6  and  O2_7
REMARK    6  A    between atoms: N1_6  and  C5_9
REMARK    7  A    between atoms: C5_9  and  S2_11
REMARK    8  A    between atoms: S2_11  and  C6_12
REMARK    9  A    between atoms: N3_18  and  O3_20
ROOT
HETATM    1  C6  UNL     1      15.499  -3.551   8.762  1.00  0.00     0.083 A
HETATM    2  S3  UNL     1      15.956  -1.941   8.816  1.00  0.00    -0.042 SA
HETATM    3  S4  UNL     1      17.288  -2.682   7.571  1.00  0.00    -0.039 SA
HETATM    4  C7  UNL     1      16.410  -4.061   7.909  1.00  0.00     0.116 A
HETATM    5  C8  UNL     1      16.629  -5.435   7.384  1.00  0.00     0.109 C
HETATM    6  N2  UNL     1      16.826  -6.514   6.953  1.00  0.00    -0.191 NA
ENDROOT
BRANCH   1   7
HETATM    7  S2  UNL     1      14.109  -4.386   9.623  1.00  0.00    -0.049 SA
BRANCH   7   8
HETATM    8  C5  UNL     1      14.377  -6.133   9.737  1.00  0.00     0.165 C
HETATM    9  S1  UNL     1      13.589  -7.130   8.676  1.00  0.00    -0.050 SA
BRANCH   8  10
HETATM   10  N1  UNL     1      15.251  -6.667  10.701  1.00  0.00    -0.243 N
BRANCH  10  11
HETATM   11  C4  UNL     1      14.884  -7.739  11.604  1.00  0.00     0.165 C
BRANCH  11  12
HETATM   12  C3  UNL     1      15.928  -8.082  12.610  1.00  0.00     0.108 C
BRANCH  12  13
HETATM   13  C2  UNL     1      15.564  -7.403  13.912  1.00  0.00     0.138 C
HETATM   14  N3  UNL     1      16.393  -6.598  14.462  1.00  0.00    -0.251 N
ATOM     15  H3  UNL     1      17.279  -6.450  13.980  1.00  0.00     0.196 HD
BRANCH  13  16
HETATM   16  O1  UNL     1      14.340  -7.661  14.494  1.00  0.00    -0.343 OA
HETATM   17  C1  UNL     1      13.954  -8.904  15.004  1.00  0.00     0.211 C
ENDBRANCH  13  16
BRANCH  14  18
HETATM   18  O3  UNL     1      16.206  -5.924  15.622  1.00  0.00    -0.288 OA
ATOM     19  H3  UNL     1      16.853  -5.397  16.077  1.00  0.00     0.244 HD
ENDBRANCH  14  18
ENDBRANCH  12  13
ENDBRANCH  11  12
ENDBRANCH  10  11
BRANCH  10  20
HETATM   20  O2  UNL     1      16.496  -6.171  10.819  1.00  0.00    -0.286 OA
ATOM     21  H2  UNL     1      16.978  -6.025  10.014  1.00  0.00     0.244 HD
ENDBRANCH  10  20
ENDBRANCH   8  10
ENDBRANCH   7   8
ENDBRANCH   1   7
TORSDOF 9
ENDMDL