MODEL 2
REMARK VINA RESULT: -7.792679010      1.306      1.615
REMARK  5 active torsions:
REMARK  status: ('A' for Active; 'I' for Inactive)
REMARK    1  A    between atoms: C2_2  and  C3_4
REMARK    2  A    between atoms: C5_8  and  C6_9
REMARK    3  A    between atoms: N2_10  and  N3_12
REMARK    4  A    between atoms: N4_14  and  C7_16
REMARK    5  A    between atoms: C8_17  and  O1_18
ROOT
HETATM    1  N3  UNL     1      13.719  -4.694   9.698  1.00  0.00    -0.241 N
ATOM      2  H3  UNL     1      12.988  -5.165  10.231  1.00  0.00     0.208 HD
HETATM    3  N4  UNL     1      13.407  -3.757   8.912  1.00  0.00    -0.267 N
ATOM      4  H4  UNL     1      12.434  -3.468   8.805  1.00  0.00     0.190 HD
ENDROOT
BRANCH   1   5
HETATM    5  N2  UNL     1      15.014  -5.088   9.846  1.00  0.00    -0.295 N
HETATM    6  C6  UNL     1      15.405  -6.201  10.252  1.00  0.00     0.138 C
ATOM      7  H2  UNL     1      15.733  -4.407   9.602  1.00  0.00     0.187 HD
BRANCH   6   8
HETATM    8  C5  UNL     1      14.561  -7.292  10.643  1.00  0.00     0.050 A
HETATM    9  N1  UNL     1      13.868  -8.190   9.954  1.00  0.00    -0.364 N
HETATM   10  C4  UNL     1      13.218  -9.028  10.814  1.00  0.00     0.101 A
ATOM     11  H1  UNL     1      13.827  -8.246   8.937  1.00  0.00     0.165 HD
HETATM   12  C3  UNL     1      13.496  -8.664  12.105  1.00  0.00    -0.002 A
HETATM   13  C12 UNL     1      14.331  -7.584  12.003  1.00  0.00     0.045 A
BRANCH  12  14
HETATM   14  C2  UNL     1      13.006  -9.293  13.348  1.00  0.00     0.017 C
HETATM   15  C1  UNL     1      13.732  -8.952  14.602  1.00  0.00     0.062 C
HETATM   16  S1  UNL     1      11.742 -10.292  13.287  1.00  0.00    -0.084 SA
ENDBRANCH  12  14
ENDBRANCH   6   8
ENDBRANCH   1   5
BRANCH   3  17
HETATM   17  C7  UNL     1      14.440  -3.116   8.182  1.00  0.00     0.177 A
HETATM   18  C8  UNL     1      15.486  -2.333   8.629  1.00  0.00     0.191 A
HETATM   19  N5  UNL     1      16.214  -1.942   7.565  1.00  0.00    -0.306 N
HETATM   20  C9  UNL     1      17.396  -1.111   7.600  1.00  0.00     0.161 C
HETATM   21  C10 UNL     1      15.640  -2.469   6.470  1.00  0.00     0.183 A
HETATM   22  S2  UNL     1      16.166  -2.274   4.937  1.00  0.00    -0.040 SA
HETATM   23  N6  UNL     1      14.554  -3.187   6.846  1.00  0.00    -0.309 N
HETATM   24  C11 UNL     1      13.674  -3.904   5.955  1.00  0.00     0.160 C
BRANCH  18  25
HETATM   25  O1  UNL     1      15.710  -2.024   9.969  1.00  0.00    -0.343 OA
ATOM     26  H1  UNL     1      16.481  -1.569  10.287  1.00  0.00     0.219 HD
ENDBRANCH  18  25
ENDBRANCH   3  17
TORSDOF 5
ENDMDL