MODEL 4
REMARK VINA RESULT: -7.189107266      2.249      3.062
REMARK  7 active torsions:
REMARK  status: ('A' for Active; 'I' for Inactive)
REMARK    1  A    between atoms: C4_4  and  C5_5
REMARK    2  A    between atoms: C5_5  and  S1_6
REMARK    3  A    between atoms: S1_6  and  C6_7
REMARK    4  A    between atoms: C8_11  and  O1_12
REMARK    5  A    between atoms: N2_14  and  C9_15
REMARK    6  A    between atoms: C9_15  and  O2_16
REMARK    7  A    between atoms: N3_18  and  O3_20
ROOT
HETATM    1  C6  UNL     1      14.987  -6.724  11.270  1.00  0.00     0.114 A
HETATM    2  N1  UNL     1      15.643  -6.445  10.202  1.00  0.00    -0.340 N
ATOM      3  H1  UNL     1      16.422  -7.039   9.917  1.00  0.00     0.167 HD
HETATM    4  C7  UNL     1      15.309  -5.377   9.457  1.00  0.00     0.111 A
HETATM    5  C8  UNL     1      15.872  -4.890   8.277  1.00  0.00     0.185 A
HETATM    6  N2  UNL     1      15.331  -3.811   7.764  1.00  0.00    -0.221 N
HETATM    7  S2  UNL     1      14.080  -3.384   8.781  1.00  0.00     0.008 SA
HETATM    8  C10 UNL     1      14.255  -4.658   9.929  1.00  0.00     0.096 A
HETATM    9  S3  UNL     1      13.801  -5.507  11.368  1.00  0.00    -0.054 SA
ENDROOT
BRANCH   6  10
HETATM   10  C9  UNL     1      15.679  -3.083   6.586  1.00  0.00     0.256 C
HETATM   11  N3  UNL     1      15.436  -3.555   5.400  1.00  0.00    -0.232 N
ATOM     12  H3  UNL     1      15.691  -3.021   4.568  1.00  0.00     0.198 HD
BRANCH  10  13
HETATM   13  O2  UNL     1      16.288  -1.845   6.719  1.00  0.00    -0.330 OA
ATOM     14  H2  UNL     1      16.296  -1.255   5.974  1.00  0.00     0.221 HD
ENDBRANCH  10  13
BRANCH  11  15
HETATM   15  O3  UNL     1      14.833  -4.779   5.282  1.00  0.00    -0.287 OA
ATOM     16  H3  UNL     1      14.424  -5.014   4.458  1.00  0.00     0.244 HD
ENDBRANCH  11  15
ENDBRANCH   6  10
BRANCH   5  17
HETATM   17  O1  UNL     1      16.882  -5.410   7.643  1.00  0.00    -0.344 OA
ATOM     18  H1  UNL     1      16.864  -5.761   6.761  1.00  0.00     0.219 HD
ENDBRANCH   5  17
BRANCH   1  19
HETATM   19  S1  UNL     1      15.242  -8.091  12.438  1.00  0.00    -0.101 SA
BRANCH  19  20
HETATM   20  C5  UNL     1      13.637  -8.368  13.248  1.00  0.00     0.108 C
BRANCH  20  21
HETATM   21  C4  UNL     1      12.621  -8.925  12.320  1.00  0.00    -0.014 C
HETATM   22  C2  UNL     1      11.795  -9.860  12.721  1.00  0.00    -0.091 C
HETATM   23  C1  UNL     1      11.871 -10.369  14.102  1.00  0.00     0.042 C
HETATM   24  C3  UNL     1      10.785 -10.395  11.761  1.00  0.00     0.042 C
ENDBRANCH  20  21
ENDBRANCH  19  20
ENDBRANCH   1  19
TORSDOF 7
ENDMDL