MODEL 4
REMARK VINA RESULT: -8.048871763      2.241      2.880
REMARK  10 active torsions:
REMARK  status: ('A' for Active; 'I' for Inactive)
REMARK    1  A    between atoms: O1_2  and  C2_3
REMARK    2  A    between atoms: C2_3  and  O3_5
REMARK    3  A    between atoms: O3_5  and  N1_6
REMARK    4  A    between atoms: N1_6  and  C3_8
REMARK    5  A    between atoms: C3_8  and  N2_10
REMARK    6  A    between atoms: N2_10  and  N3_12
REMARK    7  A    between atoms: N3_12  and  C4_14
REMARK    8  A    between atoms: N5_18  and  C6_19
REMARK    9  A    between atoms: C6_19  and  C7_20
REMARK   10  A    between atoms: C13_26  and  O4_27
ROOT
HETATM    1  C4  UNL     1      15.061  -3.833   9.033  1.00  0.00     0.173 A
HETATM    2  N4  UNL     1      13.717  -3.981   9.205  1.00  0.00    -0.334 N
ATOM      3  H4  UNL     1      13.005  -3.285   8.981  1.00  0.00     0.168 HD
HETATM    4  C5  UNL     1      13.491  -5.203   9.722  1.00  0.00     0.186 A
HETATM    5  N5  UNL     1      14.648  -5.859   9.892  1.00  0.00    -0.320 N
HETATM    6  C13 UNL     1      15.617  -5.007   9.464  1.00  0.00     0.190 A
ENDROOT
BRANCH   1   7
HETATM    7  N3  UNL     1      15.747  -2.706   8.516  1.00  0.00    -0.280 N
ATOM      8  H3  UNL     1      15.244  -2.004   7.973  1.00  0.00     0.189 HD
BRANCH   7   9
HETATM    9  N2  UNL     1      16.979  -2.578   8.733  1.00  0.00    -0.273 N
ATOM     10  H2  UNL     1      17.552  -3.388   8.972  1.00  0.00     0.189 HD
BRANCH   9  11
HETATM   11  C3  UNL     1      17.558  -1.283   8.639  1.00  0.00     0.211 C
HETATM   12  S1  UNL     1      17.045  -0.111   9.666  1.00  0.00    -0.037 SA
BRANCH  11  13
HETATM   13  N1  UNL     1      18.559  -1.025   7.671  1.00  0.00    -0.229 N
ATOM     14  H1  UNL     1      19.342  -0.410   7.893  1.00  0.00     0.197 HD
BRANCH  13  15
HETATM   15  O3  UNL     1      18.469  -1.602   6.444  1.00  0.00    -0.173 OA
BRANCH  15  16
HETATM   16  C2  UNL     1      17.442  -1.279   5.565  1.00  0.00     0.428 C
HETATM   17  O2  UNL     1      17.679  -0.453   4.663  1.00  0.00    -0.227 OA
BRANCH  16  18
HETATM   18  O1  UNL     1      16.180  -1.833   5.650  1.00  0.00    -0.302 OA
HETATM   19  C1  UNL     1      15.446  -2.318   4.568  1.00  0.00     0.215 C
ENDBRANCH  16  18
ENDBRANCH  15  16
ENDBRANCH  13  15
ENDBRANCH  11  13
ENDBRANCH   9  11
ENDBRANCH   7   9
ENDBRANCH   1   7
BRANCH   6  20
HETATM   20  O4  UNL     1      16.961  -5.323   9.480  1.00  0.00    -0.343 OA
ATOM     21  H4  UNL     1      17.674  -4.755   9.750  1.00  0.00     0.219 HD
ENDBRANCH   6  20
BRANCH   5  22
HETATM   22  C6  UNL     1      14.832  -7.200  10.423  1.00  0.00     0.136 C
BRANCH  22  23
HETATM   23  C7  UNL     1      14.741  -7.176  11.933  1.00  0.00     0.004 C
HETATM   24  C8  UNL     1      16.070  -7.701  12.483  1.00  0.00     0.006 C
HETATM   25  C9  UNL     1      16.035  -7.325  13.958  1.00  0.00     0.000 C
HETATM   26  C10 UNL     1      14.958  -8.082  14.649  1.00  0.00     0.000 C
HETATM   27  C11 UNL     1      13.880  -8.622  13.811  1.00  0.00     0.000 C
HETATM   28  C12 UNL     1      13.656  -8.018  12.479  1.00  0.00     0.006 C
ENDBRANCH  22  23
ENDBRANCH   5  22
TORSDOF 10
ENDMDL