MODEL 2
REMARK VINA RESULT: -9.271377725      1.360      1.842
REMARK  7 active torsions:
REMARK  status: ('A' for Active; 'I' for Inactive)
REMARK    1  A    between atoms: O1_2  and  C2_3
REMARK    2  A    between atoms: C2_3  and  O3_5
REMARK    3  A    between atoms: O3_5  and  C3_6
REMARK    4  A    between atoms: C5_8  and  C6_9
REMARK    5  A    between atoms: C7_10  and  C8_11
REMARK    6  A    between atoms: C10_13  and  C11_14
REMARK    7  A    between atoms: C18_24  and  O5_25
ROOT
HETATM    1  C3  UNL     1      29.575  46.555  15.601  1.00  0.00     0.115 A
HETATM    2  C4  UNL     1      29.064  45.591  14.775  1.00  0.00     0.051 A
HETATM    3  C5  UNL     1      28.071  45.887  13.831  1.00  0.00    -0.033 A
HETATM    4  C16 UNL     1      27.616  47.191  13.759  1.00  0.00     0.014 A
HETATM    5  C17 UNL     1      28.124  48.186  14.592  1.00  0.00     0.040 A
HETATM    6  C18 UNL     1      29.105  47.837  15.505  1.00  0.00     0.099 A
ENDROOT
BRANCH   3   7
HETATM    7  C6  UNL     1      27.566  44.821  12.979  1.00  0.00     0.014 C
HETATM    8  C7  UNL     1      28.231  44.356  11.947  1.00  0.00     0.040 C
BRANCH   8   9
HETATM    9  C8  UNL     1      27.658  43.280  11.133  1.00  0.00     0.100 A
HETATM   10  C9  UNL     1      27.316  43.368   9.795  1.00  0.00     0.066 A
HETATM   11  C10 UNL     1      26.818  42.150   9.415  1.00  0.00     0.039 A
HETATM   12  N1  UNL     1      26.875  41.382  10.519  1.00  0.00    -0.265 N
HETATM   13  O4  UNL     1      27.370  42.070  11.503  1.00  0.00    -0.238 OA
ATOM     14  H1  UNL     1      26.575  40.408  10.575  1.00  0.00     0.194 HD
BRANCH  11  15
HETATM   15  C11 UNL     1      26.330  41.801   8.059  1.00  0.00     0.037 C
HETATM   16  C12 UNL     1      25.047  42.535   7.773  1.00  0.00     0.011 C
HETATM   17  C13 UNL     1      24.133  41.604   7.051  1.00  0.00     0.001 C
HETATM   18  C14 UNL     1      24.567  40.240   7.507  1.00  0.00     0.001 C
HETATM   19  C15 UNL     1      25.990  40.330   7.949  1.00  0.00     0.011 C
ENDBRANCH  11  15
ENDBRANCH   8   9
ENDBRANCH   3   7
BRANCH   1  20
HETATM   20  O3  UNL     1      30.543  46.246  16.514  1.00  0.00    -0.253 OA
BRANCH  20  21
HETATM   21  C2  UNL     1      31.112  44.980  16.557  1.00  0.00     0.411 C
HETATM   22  O2  UNL     1      32.207  44.839  15.914  1.00  0.00    -0.229 OA
BRANCH  21  23
HETATM   23  O1  UNL     1      30.543  43.923  17.252  1.00  0.00    -0.303 OA
HETATM   24  C1  UNL     1      31.381  43.068  17.999  1.00  0.00     0.215 C
ENDBRANCH  21  23
ENDBRANCH  20  21
ENDBRANCH   1  20
BRANCH   6  25
HETATM   25  O5  UNL     1      29.626  48.798  16.343  1.00  0.00    -0.358 OA
ATOM     26  H5  UNL     1      29.579  49.709  16.078  1.00  0.00     0.217 HD
ENDBRANCH   6  25
TORSDOF 7
ENDMDL