MODEL 1
REMARK VINA RESULT: -8.237713986      0.000      0.000
REMARK  4 active torsions:
REMARK  status: ('A' for Active; 'I' for Inactive)
REMARK    1  A    between atoms: C2_3  and  N2_4
REMARK    2  A    between atoms: N2_4  and  C3_6
REMARK    3  A    between atoms: C6_9  and  N3_10
REMARK    4  A    between atoms: C7_13  and  N4_14
ROOT
HETATM    1  N1  UNL     1      26.083  41.745  12.105  1.00  0.00    -0.195 NA
HETATM    2  C1  UNL     1      26.903  42.086  11.332  1.00  0.00     0.090 C
HETATM    3  C2  UNL     1      27.948  42.557  10.366  1.00  0.00     0.120 C
HETATM    4  C9  UNL     1      28.663  41.375   9.844  1.00  0.00     0.046 C
HETATM    5  C10 UNL     1      27.930  40.048   9.974  1.00  0.00     0.004 C
HETATM    6  C11 UNL     1      27.262  39.669   8.669  1.00  0.00     0.000 C
HETATM    7  C12 UNL     1      25.914  40.270   8.462  1.00  0.00     0.000 C
HETATM    8  C13 UNL     1      26.057  41.657   7.898  1.00  0.00     0.000 C
HETATM    9  C14 UNL     1      25.889  42.737   8.933  1.00  0.00     0.004 C
HETATM   10  C15 UNL     1      27.211  43.369   9.325  1.00  0.00     0.046 C
ENDROOT
BRANCH   3  11
HETATM   11  N2  UNL     1      28.799  43.430  11.114  1.00  0.00    -0.368 N
ATOM     12  H2  UNL     1      29.784  43.165  11.142  1.00  0.00     0.161 HD
BRANCH  11  13
HETATM   13  C3  UNL     1      28.466  44.610  11.823  1.00  0.00     0.031 A
HETATM   14  C4  UNL     1      28.123  45.769  11.119  1.00  0.00     0.032 A
HETATM   15  C5  UNL     1      27.790  46.939  11.731  1.00  0.00     0.041 A
HETATM   16  C6  UNL     1      27.769  47.063  13.141  1.00  0.00     0.136 A
HETATM   17  C7  UNL     1      28.099  45.938  13.835  1.00  0.00     0.138 A
HETATM   18  C8  UNL     1      28.440  44.741  13.178  1.00  0.00     0.067 A
BRANCH  16  19
HETATM   19  N3  UNL     1      27.432  48.328  13.678  1.00  0.00    -0.113 N
HETATM   20  O1  UNL     1      28.068  48.914  14.538  1.00  0.00    -0.532 OA
HETATM   21  O2  UNL     1      26.323  48.968  13.148  1.00  0.00    -0.532 OA
ENDBRANCH  16  19
BRANCH  17  22
HETATM   22  N4  UNL     1      28.106  45.929  15.262  1.00  0.00    -0.113 N
HETATM   23  O3  UNL     1      27.176  45.399  15.875  1.00  0.00    -0.532 OA
HETATM   24  O4  UNL     1      29.202  46.470  15.912  1.00  0.00    -0.532 OA
ENDBRANCH  17  22
ENDBRANCH  11  13
ENDBRANCH   3  11
TORSDOF 4
ENDMDL