MODEL 4
REMARK VINA RESULT: -5.867324637      3.353      6.047
REMARK  5 active torsions:
REMARK  status: ('A' for Active; 'I' for Inactive)
REMARK    1  A    between atoms: C2_2  and  O1_3
REMARK    2  A    between atoms: O1_3  and  C3_4
REMARK    3  A    between atoms: C3_4  and  C4_6
REMARK    4  A    between atoms: N1_10  and  C6_11
REMARK    5  A    between atoms: C6_11  and  C7_12
ROOT
HETATM    1  C4  UNL     1      26.446  43.092   9.917  1.00  0.00     0.105 A
HETATM    2  S1  UNL     1      25.152  44.189   9.881  1.00  0.00    -0.052 SA
HETATM    3  C5  UNL     1      25.954  45.518  10.588  1.00  0.00     0.146 A
HETATM    4  S2  UNL     1      25.249  46.969  10.837  1.00  0.00    -0.052 SA
HETATM    5  N1  UNL     1      27.186  45.074  10.828  1.00  0.00    -0.329 N
HETATM    6  C10 UNL     1      27.456  43.822  10.485  1.00  0.00     0.033 A
HETATM    7  C11 UNL     1      28.805  43.127  10.629  1.00  0.00     0.070 C
ENDROOT
BRANCH   5   8
HETATM    8  C6  UNL     1      28.182  45.961  11.430  1.00  0.00     0.188 C
BRANCH   8   9
HETATM    9  C7  UNL     1      28.049  46.185  12.889  1.00  0.00     0.035 A
HETATM   10  C8  UNL     1      27.976  45.106  13.751  1.00  0.00     0.079 A
HETATM   11  S3  UNL     1      27.832  45.819  15.302  1.00  0.00    -0.070 SA
HETATM   12  C9  UNL     1      27.871  47.443  14.797  1.00  0.00     0.143 A
HETATM   13  S4  UNL     1      27.780  48.823  15.729  1.00  0.00    -0.052 SA
HETATM   14  N2  UNL     1      27.991  47.368  13.476  1.00  0.00    -0.343 N
ATOM     15  H2  UNL     1      28.038  48.220  12.917  1.00  0.00     0.167 HD
ENDBRANCH   8   9
ENDBRANCH   5   8
BRANCH   1  16
HETATM   16  C3  UNL     1      26.439  41.691   9.439  1.00  0.00     0.302 C
HETATM   17  O2  UNL     1      25.836  41.361   8.413  1.00  0.00    -0.259 OA
BRANCH  16  18
HETATM   18  O1  UNL     1      27.126  40.748  10.167  1.00  0.00    -0.317 OA
BRANCH  18  19
HETATM   19  C2  UNL     1      27.872  39.703   9.623  1.00  0.00     0.174 C
HETATM   20  C1  UNL     1      29.080  39.466  10.509  1.00  0.00     0.034 C
ENDBRANCH  18  19
ENDBRANCH  16  18
ENDBRANCH   1  16
TORSDOF 5
ENDMDL