MODEL 4
REMARK VINA RESULT: -8.088470136      4.339      7.700
REMARK  6 active torsions:
REMARK  status: ('A' for Active; 'I' for Inactive)
REMARK    1  A    between atoms: O1_2  and  C2_3
REMARK    2  A    between atoms: C4_5  and  O2_6
REMARK    3  A    between atoms: C7_9  and  O3_10
REMARK    4  A    between atoms: C8_12  and  C9_13
REMARK    5  A    between atoms: C9_13  and  O5_15
REMARK    6  A    between atoms: O5_15  and  C10_16
ROOT
HETATM    1  C2  UNL     1      21.742  43.956   6.213  1.00  0.00     0.073 A
HETATM    2  C3  UNL     1      21.257  45.092   6.815  1.00  0.00     0.074 A
HETATM    3  C4  UNL     1      21.896  45.570   7.937  1.00  0.00     0.086 A
HETATM    4  C6  UNL     1      23.011  44.911   8.447  1.00  0.00     0.067 A
HETATM    5  C7  UNL     1      23.849  45.147   9.536  1.00  0.00     0.121 A
HETATM    6  C8  UNL     1      24.800  44.141   9.540  1.00  0.00     0.185 A
HETATM    7  O6  UNL     1      24.549  43.344   8.510  1.00  0.00    -0.301 OA
HETATM    8  C16 UNL     1      23.501  43.774   7.847  1.00  0.00     0.095 A
HETATM    9  C17 UNL     1      22.856  43.299   6.721  1.00  0.00     0.075 A
ENDROOT
BRANCH   6  10
HETATM   10  C9  UNL     1      25.888  43.965  10.489  1.00  0.00     0.320 C
HETATM   11  O4  UNL     1      26.302  44.984  11.132  1.00  0.00    -0.257 OA
BRANCH  10  12
HETATM   12  O5  UNL     1      26.519  42.763  10.752  1.00  0.00    -0.310 OA
BRANCH  12  13
HETATM   13  C10 UNL     1      27.638  42.319   9.966  1.00  0.00     0.132 C
HETATM   14  C11 UNL     1      27.200  41.294   8.986  1.00  0.00     0.032 C
HETATM   15  C12 UNL     1      27.403  39.863   9.401  1.00  0.00     0.002 C
HETATM   16  C13 UNL     1      28.846  39.571   9.751  1.00  0.00     0.000 C
HETATM   17  C14 UNL     1      29.565  40.836  10.194  1.00  0.00     0.002 C
HETATM   18  C15 UNL     1      28.632  41.766  10.922  1.00  0.00     0.032 C
ENDBRANCH  12  13
ENDBRANCH  10  12
ENDBRANCH   6  10
BRANCH   5  19
HETATM   19  O3  UNL     1      23.687  46.213  10.406  1.00  0.00    -0.357 OA
ATOM     20  H3  UNL     1      24.176  46.307  11.215  1.00  0.00     0.218 HD
ENDBRANCH   5  19
BRANCH   3  21
HETATM   21  O2  UNL     1      21.457  46.706   8.589  1.00  0.00    -0.355 OA
HETATM   22  C5  UNL     1      21.492  48.002   8.064  1.00  0.00     0.210 C
ENDBRANCH   3  21
BRANCH   1  23
HETATM   23  O1  UNL     1      21.115  43.452   5.078  1.00  0.00    -0.356 OA
HETATM   24  C1  UNL     1      20.731  44.300   4.002  1.00  0.00     0.210 C
ENDBRANCH   1  23
TORSDOF 6
ENDMDL