MODEL 1
REMARK VINA RESULT: -9.831209420      0.000      0.000
REMARK  4 active torsions:
REMARK  status: ('A' for Active; 'I' for Inactive)
REMARK    1  A    between atoms: C2_2  and  C3_3
REMARK    2  A    between atoms: C5_5  and  C6_6
REMARK    3  A    between atoms: C7_11  and  C8_12
REMARK    4  A    between atoms: C14_19  and  N3_20
ROOT
HETATM    1  C3  UNL     1      27.494  41.557   9.406  1.00  0.00    -0.022 A
HETATM    2  C4  UNL     1      26.295  41.730   8.698  1.00  0.00     0.026 A
HETATM    3  C5  UNL     1      25.499  42.841   8.804  1.00  0.00     0.020 A
HETATM    4  C13 UNL     1      25.867  43.862   9.642  1.00  0.00     0.054 A
HETATM    5  C14 UNL     1      27.033  43.720  10.344  1.00  0.00     0.128 A
HETATM    6  C15 UNL     1      27.847  42.585  10.237  1.00  0.00     0.086 A
HETATM    7  N4  UNL     1      29.040  42.513  10.993  1.00  0.00    -0.099 NA
ENDROOT
BRANCH   3   8
HETATM    8  C6  UNL     1      24.259  42.979   8.048  1.00  0.00     0.174 A
HETATM    9  N1  UNL     1      23.876  42.154   7.060  1.00  0.00    -0.277 N
HETATM   10  N2  UNL     1      22.695  42.554   6.575  1.00  0.00    -0.281 N
ATOM     11  H1  UNL     1      24.404  41.347   6.729  1.00  0.00     0.189 HD
HETATM   12  C7  UNL     1      22.366  43.644   7.292  1.00  0.00     0.144 A
ATOM     13  H2  UNL     1      22.158  42.124   5.822  1.00  0.00     0.189 HD
HETATM   14  O1  UNL     1      23.318  43.874   8.164  1.00  0.00    -0.277 OA
BRANCH  12  15
HETATM   15  C8  UNL     1      21.111  44.406   7.070  1.00  0.00     0.062 C
HETATM   16  C9  UNL     1      21.072  44.860   5.644  1.00  0.00     0.013 C
HETATM   17  C10 UNL     1      20.810  46.333   5.677  1.00  0.00     0.001 C
HETATM   18  C11 UNL     1      21.245  46.829   7.021  1.00  0.00     0.001 C
HETATM   19  C12 UNL     1      21.060  45.655   7.936  1.00  0.00     0.013 C
ENDBRANCH  12  15
ENDBRANCH   3   8
BRANCH   1  20
HETATM   20  C2  UNL     1      28.250  40.319   9.203  1.00  0.00    -0.015 A
HETATM   21  C1  UNL     1      29.576  40.556   8.434  1.00  0.00     0.020 C
HETATM   22  C16 UNL     1      27.627  39.021   8.842  1.00  0.00     0.015 A
HETATM   23  C17 UNL     1      28.375  39.208  10.144  1.00  0.00     0.015 A
ENDBRANCH   1  20
BRANCH   5  24
HETATM   24  N3  UNL     1      27.491  44.728  11.237  1.00  0.00    -0.114 N
HETATM   25  O2  UNL     1      27.937  45.780  10.773  1.00  0.00    -0.532 OA
HETATM   26  O3  UNL     1      27.418  44.492  12.577  1.00  0.00    -0.532 OA
ENDBRANCH   5  24
TORSDOF 4
ENDMDL