MODEL 1
REMARK VINA RESULT: -9.196164827      0.000      0.000
REMARK  4 active torsions:
REMARK  status: ('A' for Active; 'I' for Inactive)
REMARK    1  A    between atoms: C2_2  and  C3_3
REMARK    2  A    between atoms: C3_3  and  C4_4
REMARK    3  A    between atoms: C4_4  and  C5_5
REMARK    4  A    between atoms: N2_14  and  C12_15
ROOT
HETATM    1  C5  UNL     1      26.688  41.578   8.630  1.00  0.00     0.086 A
HETATM    2  N1  UNL     1      25.653  41.425   7.784  1.00  0.00    -0.344 N
ATOM      3  H1  UNL     1      25.535  40.638   7.146  1.00  0.00     0.167 HD
HETATM    4  C6  UNL     1      24.799  42.453   7.895  1.00  0.00     0.061 A
HETATM    5  C7  UNL     1      23.616  42.746   7.254  1.00  0.00     0.042 A
HETATM    6  C8  UNL     1      22.884  43.915   7.546  1.00  0.00    -0.019 A
HETATM    7  C9  UNL     1      23.398  44.743   8.494  1.00  0.00     0.044 A
HETATM    8  C10 UNL     1      24.612  44.407   9.127  1.00  0.00     0.062 A
HETATM    9  C11 UNL     1      25.326  43.279   8.850  1.00  0.00     0.067 A
HETATM   10  N2  UNL     1      26.492  42.721   9.292  1.00  0.00    -0.307 N
HETATM   11  N3  UNL     1      22.760  45.968   8.921  1.00  0.00    -0.317 N
ATOM     12  H3  UNL     1      23.222  46.526   9.639  1.00  0.00     0.169 HD
HETATM   13  C16 UNL     1      21.539  46.434   8.403  1.00  0.00     0.284 C
HETATM   14  O2  UNL     1      21.179  47.609   8.478  1.00  0.00    -0.260 OA
HETATM   15  S1  UNL     1      20.509  45.199   7.610  1.00  0.00    -0.064 SA
HETATM   16  C17 UNL     1      21.619  44.110   6.750  1.00  0.00     0.125 C
ENDROOT
BRANCH  10  17
HETATM   17  C12 UNL     1      27.290  43.340  10.273  1.00  0.00     0.229 C
HETATM   18  C13 UNL     1      27.018  43.167  11.700  1.00  0.00     0.056 C
HETATM   19  C14 UNL     1      27.864  44.333  12.282  1.00  0.00     0.031 C
HETATM   20  C15 UNL     1      27.764  45.336  11.166  1.00  0.00     0.170 C
HETATM   21  O1  UNL     1      27.028  44.739  10.181  1.00  0.00    -0.366 OA
ENDBRANCH  10  17
BRANCH   1  22
HETATM   22  C4  UNL     1      27.783  40.589   8.687  1.00  0.00     0.076 C
BRANCH  22  23
HETATM   23  C3  UNL     1      27.866  39.847  10.004  1.00  0.00     0.007 C
BRANCH  23  24
HETATM   24  C2  UNL     1      29.272  39.917  10.580  1.00  0.00    -0.004 C
HETATM   25  C1  UNL     1      30.012  41.042   9.892  1.00  0.00     0.005 C
ENDBRANCH  23  24
ENDBRANCH  22  23
ENDBRANCH   1  22
TORSDOF 4
ENDMDL