MODEL 3
REMARK VINA RESULT: -8.477499494      4.235      8.300
REMARK  5 active torsions:
REMARK  status: ('A' for Active; 'I' for Inactive)
REMARK    1  A    between atoms: C2_2  and  C3_3
REMARK    2  A    between atoms: C6_8  and  N1_9
REMARK    3  A    between atoms: C14_18  and  O3_19
REMARK    4  A    between atoms: O3_19  and  C15_20
REMARK    5  A    between atoms: C15_20  and  O4_21
ROOT
HETATM    1  C3  UNL     1      27.385  49.632  14.936  1.00  0.00     0.015 A
HETATM    2  C4  UNL     1      26.722  49.798  13.736  1.00  0.00     0.156 A
HETATM    3  O1  UNL     1      26.727  48.898  12.780  1.00  0.00    -0.298 OA
HETATM    4  C5  UNL     1      27.388  47.749  12.926  1.00  0.00     0.209 A
HETATM    5  O2  UNL     1      27.558  46.708  12.163  1.00  0.00    -0.267 OA
HETATM    6  C6  UNL     1      28.289  45.804  12.716  1.00  0.00     0.185 A
HETATM    7  C14 UNL     1      28.685  46.237  14.002  1.00  0.00     0.142 A
HETATM    8  C16 UNL     1      28.074  47.505  14.089  1.00  0.00     0.111 A
HETATM    9  C17 UNL     1      28.078  48.447  15.107  1.00  0.00     0.198 A
HETATM   10  O5  UNL     1      28.718  48.169  16.141  1.00  0.00    -0.287 OA
ENDROOT
BRANCH   6  11
HETATM   11  N1  UNL     1      28.718  44.525  12.237  1.00  0.00    -0.342 N
HETATM   12  C7  UNL     1      28.071  43.908  11.295  1.00  0.00    -0.011 C
HETATM   13  C8  UNL     1      28.596  42.588  10.868  1.00  0.00     0.052 C
HETATM   14  C13 UNL     1      26.874  44.445  10.648  1.00  0.00     0.056 C
HETATM   15  C9  UNL     1      27.443  41.617  10.843  1.00  0.00     0.006 C
HETATM   16  C10 UNL     1      26.380  42.109   9.887  1.00  0.00     0.005 C
HETATM   17  C11 UNL     1      25.823  43.447  10.301  1.00  0.00    -0.013 C
HETATM   18  C12 UNL     1      24.972  43.959   9.158  1.00  0.00     0.010 C
ATOM     19  H1  UNL     1      29.546  44.090  12.643  1.00  0.00     0.167 HD
ENDBRANCH   6  11
BRANCH   7  20
HETATM   20  O3  UNL     1      29.412  45.659  14.894  1.00  0.00    -0.321 OA
BRANCH  20  21
HETATM   21  C15 UNL     1      30.145  45.104  15.796  1.00  0.00     0.341 C
BRANCH  21  22
HETATM   22  O4  UNL     1      30.849  46.092  16.552  1.00  0.00    -0.377 OA
ATOM     23  H4  UNL     1      30.244  46.625  17.055  1.00  0.00     0.212 HD
ENDBRANCH  21  22
ENDBRANCH  20  21
ENDBRANCH   7  20
BRANCH   1  24
HETATM   24  C2  UNL     1      27.388  50.630  16.013  1.00  0.00     0.040 C
HETATM   25  C1  UNL     1      26.305  50.423  17.031  1.00  0.00     0.010 C
ENDBRANCH   1  24
TORSDOF 5
ENDMDL