MODEL 2
REMARK VINA RESULT: -9.056472492      3.972      6.419
REMARK  4 active torsions:
REMARK  status: ('A' for Active; 'I' for Inactive)
REMARK    1  A    between atoms: N1_2  and  C1_4
REMARK    2  A    between atoms: C4_7  and  C5_8
REMARK    3  A    between atoms: N2_9  and  N3_11
REMARK    4  A    between atoms: C6_12  and  C7_13
ROOT
HETATM    1  N3  UNL     1      26.865  43.943  11.140  1.00  0.00    -0.215 N
HETATM    2  C6  UNL     1      27.697  42.888  11.118  1.00  0.00     0.125 A
HETATM    3  N4  UNL     1      28.824  43.301  11.725  1.00  0.00    -0.285 N
ATOM      4  H4  UNL     1      29.654  42.726  11.868  1.00  0.00     0.188 HD
HETATM    5  N5  UNL     1      28.699  44.566  12.111  1.00  0.00    -0.273 N
ATOM      6  H5  UNL     1      29.410  45.116  12.593  1.00  0.00     0.189 HD
HETATM    7  C13 UNL     1      27.471  44.999  11.754  1.00  0.00     0.213 A
HETATM    8  S1  UNL     1      26.813  46.476  11.993  1.00  0.00    -0.037 SA
ENDROOT
BRANCH   1   9
HETATM    9  N2  UNL     1      25.585  43.975  10.623  1.00  0.00    -0.299 N
HETATM   10  C5  UNL     1      25.331  44.501   9.477  1.00  0.00     0.145 C
ATOM     11  H2  UNL     1      24.821  43.570  11.165  1.00  0.00     0.186 HD
BRANCH  10  12
HETATM   12  C4  UNL     1      23.991  44.548   8.908  1.00  0.00     0.095 A
HETATM   13  C3  UNL     1      23.437  43.543   8.140  1.00  0.00     0.043 A
HETATM   14  C2  UNL     1      22.170  43.947   7.789  1.00  0.00     0.065 A
HETATM   15  C1  UNL     1      22.009  45.190   8.362  1.00  0.00     0.215 A
HETATM   16  O3  UNL     1      23.099  45.500   9.005  1.00  0.00    -0.287 OA
BRANCH  15  17
HETATM   17  N1  UNL     1      20.810  45.969   8.234  1.00  0.00    -0.090 N
HETATM   18  O1  UNL     1      19.704  45.438   8.020  1.00  0.00    -0.530 OA
HETATM   19  O2  UNL     1      20.843  47.339   8.345  1.00  0.00    -0.530 OA
ENDBRANCH  15  17
ENDBRANCH  10  12
ENDBRANCH   1   9
BRANCH   2  20
HETATM   20  C7  UNL     1      27.424  41.550  10.544  1.00  0.00     0.057 C
HETATM   21  C8  UNL     1      27.174  41.705   9.055  1.00  0.00     0.012 C
HETATM   22  C9  UNL     1      26.689  40.330   8.580  1.00  0.00     0.001 C
HETATM   23  C10 UNL     1      27.915  39.425   8.646  1.00  0.00     0.000 C
HETATM   24  C11 UNL     1      28.449  39.333  10.055  1.00  0.00     0.001 C
HETATM   25  C12 UNL     1      28.626  40.653  10.715  1.00  0.00     0.012 C
ENDBRANCH   2  20
TORSDOF 4
ENDMDL