MODEL 4
REMARK VINA RESULT: -7.588630108      1.315      1.786
REMARK  6 active torsions:
REMARK  status: ('A' for Active; 'I' for Inactive)
REMARK    1  A    between atoms: S1_2  and  C2_3
REMARK    2  A    between atoms: C4_5  and  C5_6
REMARK    3  A    between atoms: C5_6  and  N1_7
REMARK    4  A    between atoms: N1_7  and  O1_9
REMARK    5  A    between atoms: O1_9  and  C6_10
REMARK    6  A    between atoms: C6_10  and  C9_14
ROOT
HETATM    1  C6  UNL     1      26.894  42.799  10.844  1.00  0.00     0.090 C
HETATM    2  C7  UNL     1      25.804  43.420  10.533  1.00  0.00     0.128 C
HETATM    3  C8  UNL     1      25.157  43.387   9.261  1.00  0.00     0.090 C
HETATM    4  N2  UNL     1      24.594  43.381   8.223  1.00  0.00    -0.192 NA
ENDROOT
BRANCH   1   5
HETATM    5  O1  UNL     1      27.329  43.006  12.201  1.00  0.00    -0.242 OA
BRANCH   5   6
HETATM    6  N1  UNL     1      27.204  44.217  12.786  1.00  0.00    -0.271 N
ATOM      7  H1  UNL     1      26.354  44.392  13.323  1.00  0.00     0.194 HD
BRANCH   6   8
HETATM    8  C5  UNL     1      28.059  45.157  12.723  1.00  0.00     0.128 C
BRANCH   8   9
HETATM    9  C4  UNL     1      27.906  46.405  13.525  1.00  0.00     0.014 A
HETATM   10  C3  UNL     1      27.530  47.579  12.989  1.00  0.00     0.041 A
HETATM   11  C2  UNL     1      27.425  48.649  13.826  1.00  0.00     0.043 A
HETATM   12  S2  UNL     1      27.850  48.005  15.345  1.00  0.00    -0.068 SA
HETATM   13  C15 UNL     1      28.149  46.395  14.878  1.00  0.00     0.100 A
HETATM   14  N3  UNL     1      28.559  45.278  15.687  1.00  0.00    -0.093 NA
BRANCH  11  15
HETATM   15  S1  UNL     1      26.946  50.345  13.395  1.00  0.00    -0.127 SA
HETATM   16  C1  UNL     1      27.653  51.476  14.611  1.00  0.00     0.096 C
ENDBRANCH  11  15
ENDBRANCH   8   9
ENDBRANCH   6   8
ENDBRANCH   5   6
ENDBRANCH   1   5
BRANCH   1  17
HETATM   17  C9  UNL     1      27.779  41.926  10.089  1.00  0.00     0.046 C
HETATM   18  C10 UNL     1      27.442  40.488   9.989  1.00  0.00     0.011 C
HETATM   19  C11 UNL     1      28.351  39.812   8.959  1.00  0.00     0.001 C
HETATM   20  C12 UNL     1      29.617  40.600   8.740  1.00  0.00     0.000 C
HETATM   21  C13 UNL     1      30.163  41.189  10.017  1.00  0.00     0.001 C
HETATM   22  C14 UNL     1      29.188  42.154  10.635  1.00  0.00     0.011 C
ENDBRANCH   1  17
TORSDOF 6
ENDMDL