MODEL 1
REMARK VINA RESULT: -8.550720899      0.000      0.000
REMARK  5 active torsions:
REMARK  status: ('A' for Active; 'I' for Inactive)
REMARK       I    between atoms: C2_2  and  N1_4
REMARK    1  A    between atoms: N1_4  and  N2_6
REMARK    2  A    between atoms: C3_8  and  S1_9
REMARK    3  A    between atoms: C3_8  and  C12_19
REMARK    4  A    between atoms: S1_9  and  S2_10
REMARK    5  A    between atoms: S2_10  and  C4_11
ROOT
HETATM    1  C12 UNL     1      27.625  47.381  12.695  1.00  0.00     0.258 C
HETATM    2  C13 UNL     1      27.373  48.476  13.662  1.00  0.00     0.085 C
HETATM    3  N3  UNL     1      27.173  49.342  14.402  1.00  0.00    -0.195 NA
HETATM    4  C14 UNL     1      26.338  47.007  12.103  1.00  0.00     0.085 C
HETATM    5  N4  UNL     1      25.327  46.713  11.656  1.00  0.00    -0.195 NA
ENDROOT
BRANCH   1   6
HETATM    6  C3  UNL     1      28.234  46.253  13.433  1.00  0.00     0.104 C
HETATM    7  N2  UNL     1      28.201  46.212  14.716  1.00  0.00    -0.293 N
ATOM      8  H2  UNL     1      27.753  46.958  15.248  1.00  0.00     0.187 HD
BRANCH   7   9
HETATM    9  N1  UNL     1      28.788  45.131  15.368  1.00  0.00    -0.270 N
HETATM   10  C2  UNL     1      29.973  45.254  16.112  1.00  0.00     0.232 C
HETATM   11  C1  UNL     1      30.554  44.078  16.784  1.00  0.00     0.119 C
HETATM   12  O1  UNL     1      30.539  46.360  16.207  1.00  0.00    -0.272 OA
ATOM     13  H1  UNL     1      28.342  44.216  15.304  1.00  0.00     0.190 HD
ENDBRANCH   7   9
BRANCH   6  14
HETATM   14  S1  UNL     1      29.013  44.958  12.496  1.00  0.00    -0.039 SA
BRANCH  14  15
HETATM   15  S2  UNL     1      27.697  43.547  11.712  1.00  0.00    -0.074 SA
BRANCH  15  16
HETATM   16  C4  UNL     1      28.185  42.900  10.098  1.00  0.00     0.128 C
HETATM   17  C5  UNL     1      27.195  42.211   9.414  1.00  0.00    -0.166 C
HETATM   18  C6  UNL     1      26.043  41.894   8.664  1.00  0.00     0.085 C
HETATM   19  C7  UNL     1      26.247  40.396   8.275  1.00  0.00     0.038 C
HETATM   20  C8  UNL     1      27.035  39.581   9.187  1.00  0.00    -0.026 C
HETATM   21  C9  UNL     1      28.472  39.558   9.369  1.00  0.00    -0.008 C
HETATM   22  C10 UNL     1      29.367  40.695   9.492  1.00  0.00    -0.025 C
HETATM   23  C11 UNL     1      29.257  41.806  10.444  1.00  0.00     0.055 C
ENDBRANCH  15  16
ENDBRANCH  14  15
ENDBRANCH   6  14
ENDBRANCH   1   6
TORSDOF 5
ENDMDL