MODEL 2
REMARK VINA RESULT: -6.384705208      2.292      7.470
REMARK  20 active torsions:
REMARK  status: ('A' for Active; 'I' for Inactive)
REMARK    1  A    between atoms: C2_2  and  C3_3
REMARK    2  A    between atoms: C3_3  and  O1_4
REMARK    3  A    between atoms: O1_4  and  C4_5
REMARK    4  A    between atoms: C5_7  and  C6_8
REMARK    5  A    between atoms: C10_12  and  O3_13
REMARK    6  A    between atoms: O3_13  and  C11_14
REMARK    7  A    between atoms: C11_14  and  C12_15
REMARK    8  A    between atoms: C12_15  and  O4_16
REMARK    9  A    between atoms: C12_15  and  C13_18
REMARK   10  A    between atoms: C13_18  and  O5_19
REMARK   11  A    between atoms: O5_19  and  C14_20
REMARK   12  A    between atoms: C14_20  and  C15_22
REMARK   13  A    between atoms: C15_22  and  C16_23
REMARK   14  A    between atoms: C20_27  and  O7_28
REMARK   15  A    between atoms: C22_31  and  O8_32
REMARK   16  A    between atoms: C23_34  and  O9_35
REMARK   17  A    between atoms: C24_37  and  C25_38
REMARK   18  A    between atoms: C26_39  and  C27_40
REMARK   19  A    between atoms: C27_40  and  C28_41
REMARK   20  A    between atoms: C32_45  and  O10_46
ROOT
HETATM    1  C6  UNL     1      33.870  24.813  18.247  1.00  0.00     0.047 C
HETATM    2  C7  UNL     1      32.805  25.561  18.973  1.00  0.00     0.016 C
HETATM    3  C8  UNL     1      31.524  25.572  18.135  1.00  0.00     0.013 C
HETATM    4  C9  UNL     1      31.023  24.189  17.881  1.00  0.00     0.012 C
HETATM    5  C10 UNL     1      31.740  26.297  16.820  1.00  0.00     0.156 C
HETATM    6  C22 UNL     1      33.230  26.599  16.661  1.00  0.00     0.176 C
HETATM    7  C23 UNL     1      34.103  25.400  16.878  1.00  0.00     0.156 C
ENDROOT
BRANCH   1   8
HETATM    8  C5  UNL     1      35.029  24.311  18.955  1.00  0.00     0.139 C
HETATM    9  O2  UNL     1      35.527  25.447  19.688  1.00  0.00    -0.352 OA
HETATM   10  C4  UNL     1      36.905  25.310  19.849  1.00  0.00     0.288 C
HETATM   11  C32 UNL     1      37.253  24.081  20.651  1.00  0.00     0.174 C
HETATM   12  C31 UNL     1      36.449  22.864  20.197  1.00  0.00     0.047 C
HETATM   13  C24 UNL     1      34.996  23.237  19.975  1.00  0.00     0.040 C
BRANCH  10  14
HETATM   14  O1  UNL     1      37.582  25.283  18.655  1.00  0.00    -0.359 OA
BRANCH  14  15
HETATM   15  C3  UNL     1      38.526  26.305  18.615  1.00  0.00     0.170 C
BRANCH  15  16
HETATM   16  C2  UNL     1      37.941  27.601  19.131  1.00  0.00     0.022 C
HETATM   17  C1  UNL     1      37.507  28.435  17.948  1.00  0.00     0.007 C
ENDBRANCH  15  16
ENDBRANCH  14  15
ENDBRANCH  10  14
BRANCH  11  18
HETATM   18  O10 UNL     1      37.129  24.289  22.022  1.00  0.00    -0.391 OA
ATOM     19  H10 UNL     1      37.693  23.715  22.528  1.00  0.00     0.210 HD
ENDBRANCH  11  18
BRANCH  13  20
HETATM   20  C25 UNL     1      34.204  22.053  19.734  1.00  0.00    -0.023 C
HETATM   21  C26 UNL     1      33.898  21.342  18.689  1.00  0.00    -0.030 C
BRANCH  21  22
HETATM   22  C27 UNL     1      34.193  21.383  17.278  1.00  0.00     0.030 C
BRANCH  22  23
HETATM   23  C28 UNL     1      35.646  21.179  16.919  1.00  0.00    -0.019 C
HETATM   24  C29 UNL     1      35.696  20.095  15.863  1.00  0.00     0.010 C
HETATM   25  C30 UNL     1      36.337  22.381  16.407  1.00  0.00     0.010 C
ENDBRANCH  22  23
ENDBRANCH  21  22
ENDBRANCH  13  20
ENDBRANCH   1   8
BRANCH   7  26
HETATM   26  O9  UNL     1      35.411  25.830  16.692  1.00  0.00    -0.392 OA
ATOM     27  H9  UNL     1      35.592  26.077  15.793  1.00  0.00     0.210 HD
ENDBRANCH   7  26
BRANCH   6  28
HETATM   28  O8  UNL     1      33.643  27.723  17.324  1.00  0.00    -0.390 OA
ATOM     29  H8  UNL     1      33.817  28.464  16.756  1.00  0.00     0.210 HD
ENDBRANCH   6  28
BRANCH   5  30
HETATM   30  O3  UNL     1      30.937  27.223  16.528  1.00  0.00    -0.380 OA
BRANCH  30  31
HETATM   31  C11 UNL     1      30.143  28.074  16.136  1.00  0.00     0.202 C
BRANCH  31  32
HETATM   32  C12 UNL     1      29.750  29.068  17.262  1.00  0.00     0.166 C
BRANCH  32  33
HETATM   33  O4  UNL     1      29.208  28.396  18.337  1.00  0.00    -0.391 OA
ATOM     34  H4  UNL     1      29.834  28.344  19.050  1.00  0.00     0.210 HD
ENDBRANCH  32  33
BRANCH  32  35
HETATM   35  C13 UNL     1      30.946  29.859  17.728  1.00  0.00     0.212 C
BRANCH  35  36
HETATM   36  O5  UNL     1      31.562  29.252  18.850  1.00  0.00    -0.319 OA
BRANCH  36  37
HETATM   37  C14 UNL     1      32.169  29.969  19.863  1.00  0.00     0.259 C
HETATM   38  O6  UNL     1      32.556  31.146  19.657  1.00  0.00    -0.265 OA
BRANCH  37  39
HETATM   39  C15 UNL     1      32.394  29.401  21.222  1.00  0.00     0.115 C
BRANCH  39  40
HETATM   40  C16 UNL     1      33.582  28.489  21.262  1.00  0.00    -0.003 C
HETATM   41  C17 UNL     1      34.859  29.185  20.850  1.00  0.00     0.005 C
HETATM   42  C18 UNL     1      35.871  29.209  21.974  1.00  0.00     0.003 C
HETATM   43  C19 UNL     1      36.221  27.819  22.445  1.00  0.00     0.032 C
HETATM   44  C20 UNL     1      35.002  26.957  22.486  1.00  0.00     0.118 C
HETATM   45  C21 UNL     1      33.788  27.879  22.631  1.00  0.00     0.037 C
BRANCH  44  46
HETATM   46  O7  UNL     1      35.039  26.009  23.503  1.00  0.00    -0.396 OA
ATOM     47  H7  UNL     1      35.083  25.118  23.179  1.00  0.00     0.210 HD
ENDBRANCH  44  46
ENDBRANCH  39  40
ENDBRANCH  37  39
ENDBRANCH  36  37
ENDBRANCH  35  36
ENDBRANCH  32  35
ENDBRANCH  31  32
ENDBRANCH  30  31
ENDBRANCH   5  30
TORSDOF 20
ENDMDL