MODEL 4
REMARK VINA RESULT: -6.913960131      1.473      2.512
REMARK  22 active torsions:
REMARK  status: ('A' for Active; 'I' for Inactive)
REMARK    1  A    between atoms: C2_2  and  C3_3
REMARK    2  A    between atoms: C3_3  and  C4_4
REMARK    3  A    between atoms: C4_4  and  C5_5
REMARK    4  A    between atoms: C6_6  and  C7_7
REMARK    5  A    between atoms: C7_7  and  C8_8
REMARK    6  A    between atoms: C9_9  and  C10_10
REMARK    7  A    between atoms: C10_10  and  C11_11
REMARK    8  A    between atoms: C11_11  and  C12_12
REMARK    9  A    between atoms: C13_13  and  C14_14
REMARK   10  A    between atoms: C14_14  and  C15_15
REMARK   11  A    between atoms: C14_14  and  C16_18
REMARK   12  A    between atoms: C15_15  and  O1_16
REMARK   13  A    between atoms: C16_18  and  C17_19
REMARK   14  A    between atoms: C16_18  and  O3_28
REMARK   15  A    between atoms: C17_19  and  C18_20
REMARK   16  A    between atoms: O3_28  and  C25_29
REMARK   17  A    between atoms: C26_30  and  O4_31
REMARK   18  A    between atoms: C27_33  and  C28_34
REMARK   19  A    between atoms: C28_34  and  O5_35
REMARK   20  A    between atoms: C31_41  and  C32_42
REMARK   21  A    between atoms: C32_42  and  O8_43
REMARK   22  A    between atoms: C33_46  and  O10_47
ROOT
HETATM    1  C16 UNL     1      36.891  27.140  20.057  1.00  0.00     0.132 C
ENDROOT
BRANCH   1   2
HETATM    2  C14 UNL     1      37.728  28.071  19.357  1.00  0.00     0.061 C
BRANCH   2   3
HETATM    3  C13 UNL     1      37.222  29.228  18.623  1.00  0.00    -0.009 C
HETATM    4  C12 UNL     1      37.003  29.185  17.309  1.00  0.00     0.052 C
BRANCH   4   5
HETATM    5  C11 UNL     1      36.485  30.255  16.549  1.00  0.00    -0.129 C
BRANCH   5   6
HETATM    6  C10 UNL     1      36.044  31.189  15.877  1.00  0.00     0.055 C
BRANCH   6   7
HETATM    7  C9  UNL     1      34.683  31.193  15.233  1.00  0.00     0.004 C
HETATM    8  C8  UNL     1      33.999  30.094  15.261  1.00  0.00    -0.022 C
BRANCH   8   9
HETATM    9  C7  UNL     1      32.692  29.675  14.771  1.00  0.00     0.054 C
BRANCH   9  10
HETATM   10  C6  UNL     1      31.789  29.348  15.895  1.00  0.00    -0.027 C
HETATM   11  C5  UNL     1      30.816  30.175  16.290  1.00  0.00    -0.030 C
BRANCH  11  12
HETATM   12  C4  UNL     1      30.482  31.474  15.722  1.00  0.00     0.027 C
BRANCH  12  13
HETATM   13  C3  UNL     1      31.295  32.630  16.215  1.00  0.00     0.003 C
BRANCH  13  14
HETATM   14  C2  UNL     1      31.213  33.803  15.300  1.00  0.00    -0.004 C
HETATM   15  C1  UNL     1      32.262  33.658  14.175  1.00  0.00     0.005 C
ENDBRANCH  13  14
ENDBRANCH  12  13
ENDBRANCH  11  12
ENDBRANCH   9  10
ENDBRANCH   8   9
ENDBRANCH   6   7
ENDBRANCH   5   6
ENDBRANCH   4   5
ENDBRANCH   2   3
BRANCH   2  16
HETATM   16  C15 UNL     1      38.618  27.342  18.290  1.00  0.00     0.175 C
BRANCH  16  17
HETATM   17  O1  UNL     1      39.599  26.601  18.986  1.00  0.00    -0.400 OA
ATOM     18  H1  UNL     1      40.012  26.014  18.363  1.00  0.00     0.209 HD
ENDBRANCH  16  17
ENDBRANCH   2  16
ENDBRANCH   1   2
BRANCH   1  19
HETATM   19  C17 UNL     1      35.407  27.326  19.613  1.00  0.00     0.046 C
BRANCH  19  20
HETATM   20  C18 UNL     1      34.502  27.864  20.624  1.00  0.00     0.070 C
HETATM   21  C19 UNL     1      34.504  29.345  20.617  1.00  0.00     0.159 C
HETATM   22  O2  UNL     1      35.273  30.148  21.217  1.00  0.00    -0.292 OA
HETATM   23  C20 UNL     1      33.371  29.677  19.725  1.00  0.00    -0.019 C
HETATM   24  C21 UNL     1      33.189  31.012  19.073  1.00  0.00     0.052 C
HETATM   25  C22 UNL     1      32.551  28.637  19.609  1.00  0.00    -0.011 C
HETATM   26  C23 UNL     1      33.070  27.531  20.424  1.00  0.00     0.016 C
HETATM   27  C24 UNL     1      32.772  26.160  19.882  1.00  0.00     0.015 C
ENDBRANCH  19  20
ENDBRANCH   1  19
BRANCH   1  28
HETATM   28  O3  UNL     1      37.237  25.831  20.062  1.00  0.00    -0.374 OA
BRANCH  28  29
HETATM   29  C25 UNL     1      36.180  24.923  19.982  1.00  0.00     0.190 C
HETATM   30  C26 UNL     1      35.986  24.097  21.243  1.00  0.00     0.181 C
HETATM   31  C27 UNL     1      35.064  22.927  20.997  1.00  0.00     0.182 C
HETATM   32  O6  UNL     1      34.528  22.818  19.765  1.00  0.00    -0.320 OA
HETATM   33  C29 UNL     1      35.314  23.024  18.684  1.00  0.00     0.313 C
HETATM   34  O7  UNL     1      34.533  23.586  17.684  1.00  0.00    -0.328 OA
HETATM   35  O9  UNL     1      35.835  21.814  18.208  1.00  0.00    -0.321 OA
HETATM   36  C33 UNL     1      36.503  23.910  18.915  1.00  0.00     0.242 C
HETATM   37  C30 UNL     1      34.494  22.663  16.646  1.00  0.00     0.208 C
HETATM   38  C31 UNL     1      35.861  22.019  16.817  1.00  0.00     0.175 C
BRANCH  30  39
HETATM   39  O4  UNL     1      35.507  24.938  22.235  1.00  0.00    -0.390 OA
ATOM     40  H4  UNL     1      36.236  25.173  22.796  1.00  0.00     0.210 HD
ENDBRANCH  30  39
BRANCH  31  41
HETATM   41  C28 UNL     1      35.634  21.610  21.518  1.00  0.00     0.199 C
BRANCH  41  42
HETATM   42  O5  UNL     1      36.337  21.773  22.708  1.00  0.00    -0.398 OA
ATOM     43  H5  UNL     1      37.208  21.395  22.668  1.00  0.00     0.209 HD
ENDBRANCH  41  42
ENDBRANCH  31  41
BRANCH  38  44
HETATM   44  C32 UNL     1      35.870  20.697  16.088  1.00  0.00     0.198 C
BRANCH  44  45
HETATM   45  O8  UNL     1      35.461  19.710  16.980  1.00  0.00    -0.398 OA
ATOM     46  H8  UNL     1      35.654  18.865  16.592  1.00  0.00     0.209 HD
ENDBRANCH  44  45
ENDBRANCH  38  44
BRANCH  36  47
HETATM   47  O10 UNL     1      37.654  23.174  19.247  1.00  0.00    -0.385 OA
ATOM     48  H10 UNL     1      37.777  22.444  18.652  1.00  0.00     0.210 HD
ENDBRANCH  36  47
ENDBRANCH  28  29
ENDBRANCH   1  28
TORSDOF 22
ENDMDL