MODEL 4
REMARK VINA RESULT: -5.796331113      2.636      6.803
REMARK  17 active torsions:
REMARK  status: ('A' for Active; 'I' for Inactive)
REMARK    1  A    between atoms: N1_1  and  C1_4
REMARK    2  A    between atoms: C2_7  and  C3_8
REMARK    3  A    between atoms: C3_8  and  C4_9
REMARK    4  A    between atoms: N3_11  and  C6_12
REMARK    5  A    between atoms: C6_12  and  C7_13
REMARK    6  A    between atoms: C7_13  and  C8_14
REMARK    7  A    between atoms: C8_14  and  C9_15
REMARK    8  A    between atoms: C9_15  and  N4_16
REMARK    9  A    between atoms: N4_16  and  C10_19
REMARK   10  A    between atoms: C10_19  and  C11_20
REMARK   11  A    between atoms: C11_20  and  C12_21
REMARK   12  A    between atoms: C12_21  and  N5_22
REMARK   13  A    between atoms: N5_22  and  C13_25
REMARK   14  A    between atoms: C13_25  and  C14_26
REMARK   15  A    between atoms: C14_26  and  C15_27
REMARK       I    between atoms: C15_27  and  N6_29
REMARK   16  A    between atoms: N6_29  and  C16_31
REMARK   17  A    between atoms: C17_34  and  N8_35
ROOT
HETATM    1  N4  UNL     1      33.453  23.778  15.751  1.00  0.00    -0.075 N
ATOM      2  H41 UNL     1      34.334  23.820  16.264  1.00  0.00     0.277 HD
ATOM      3  H42 UNL     1      33.702  23.072  15.058  1.00  0.00     0.277 HD
ENDROOT
BRANCH   1   4
HETATM    4  C9  UNL     1      33.156  25.047  15.119  1.00  0.00     0.232 C
BRANCH   4   5
HETATM    5  C8  UNL     1      34.271  26.005  15.392  1.00  0.00     0.029 C
BRANCH   5   6
HETATM    6  C7  UNL     1      33.990  27.012  16.455  1.00  0.00     0.022 C
BRANCH   6   7
HETATM    7  C6  UNL     1      32.543  27.209  16.790  1.00  0.00     0.128 C
BRANCH   7   8
HETATM    8  N3  UNL     1      32.534  28.141  17.931  1.00  0.00    -0.359 N
HETATM    9  C5  UNL     1      32.711  27.767  19.204  1.00  0.00     0.099 A
HETATM   10  C4  UNL     1      32.685  28.899  20.041  1.00  0.00    -0.029 A
HETATM   11  C23 UNL     1      32.482  29.958  19.186  1.00  0.00    -0.027 A
HETATM   12  C22 UNL     1      32.389  29.473  17.875  1.00  0.00     0.018 A
HETATM   13  C24 UNL     1      32.390  31.414  19.409  1.00  0.00     0.041 C
HETATM   14  C27 UNL     1      32.164  30.315  16.686  1.00  0.00     0.058 C
HETATM   15  C26 UNL     1      31.968  31.757  16.983  1.00  0.00     0.006 C
HETATM   16  C25 UNL     1      31.454  32.024  18.377  1.00  0.00     0.005 C
BRANCH  10  17
HETATM   17  C3  UNL     1      32.843  28.839  21.502  1.00  0.00     0.098 C
BRANCH  17  18
HETATM   18  C2  UNL     1      34.102  28.119  21.946  1.00  0.00     0.022 A
HETATM   19  N2  UNL     1      35.281  28.682  21.927  1.00  0.00    -0.340 N
HETATM   20  C1  UNL     1      36.332  27.983  22.360  1.00  0.00     0.142 A
ATOM     21  H2  UNL     1      35.396  29.637  21.587  1.00  0.00     0.168 HD
HETATM   22  S2  UNL     1      35.648  26.491  22.809  1.00  0.00    -0.064 SA
HETATM   23  C28 UNL     1      34.028  26.831  22.416  1.00  0.00     0.078 A
BRANCH  20  24
HETATM   24  N1  UNL     1      37.587  28.388  22.416  1.00  0.00    -0.380 N
ATOM     25  H12 UNL     1      38.062  29.119  21.885  1.00  0.00     0.158 HD
ATOM     26  H11 UNL     1      38.324  28.025  23.021  1.00  0.00     0.158 HD
ENDBRANCH  20  24
ENDBRANCH  17  18
ENDBRANCH  10  17
ENDBRANCH   7   8
ENDBRANCH   6   7
ENDBRANCH   5   6
ENDBRANCH   4   5
ENDBRANCH   1   4
BRANCH   1  27
HETATM   27  C10 UNL     1      32.379  23.320  16.599  1.00  0.00     0.233 C
BRANCH  27  28
HETATM   28  C11 UNL     1      32.513  23.833  18.034  1.00  0.00     0.055 C
BRANCH  28  29
HETATM   29  C12 UNL     1      33.953  23.564  18.496  1.00  0.00     0.233 C
BRANCH  29  30
HETATM   30  N5  UNL     1      34.384  24.468  19.517  1.00  0.00    -0.075 N
ATOM     31  H52 UNL     1      33.870  25.348  19.476  1.00  0.00     0.277 HD
ATOM     32  H51 UNL     1      34.088  24.155  20.442  1.00  0.00     0.277 HD
BRANCH  30  33
HETATM   33  C13 UNL     1      35.791  24.682  19.465  1.00  0.00     0.241 C
BRANCH  33  34
HETATM   34  C14 UNL     1      36.083  26.105  19.072  1.00  0.00     0.130 C
BRANCH  34  35
HETATM   35  C15 UNL     1      37.505  26.462  19.116  1.00  0.00     0.225 C
HETATM   36  O1  UNL     1      38.359  25.548  19.371  1.00  0.00    -0.273 OA
HETATM   37  N6  UNL     1      37.999  27.740  18.898  1.00  0.00    -0.306 N
ATOM     38  H6  UNL     1      38.929  27.977  19.243  1.00  0.00     0.171 HD
BRANCH  37  39
HETATM   39  C16 UNL     1      37.307  28.646  18.266  1.00  0.00     0.183 A
HETATM   40  N7  UNL     1      37.275  28.832  16.942  1.00  0.00    -0.168 N
HETATM   41  C17 UNL     1      36.546  29.773  16.442  1.00  0.00     0.688 A
ATOM     42  H7  UNL     1      37.826  28.231  16.329  1.00  0.00     0.186 HD
HETATM   43  N9  UNL     1      35.839  30.535  17.294  1.00  0.00    -0.157 N
HETATM   44  S1  UNL     1      36.244  29.874  18.787  1.00  0.00     0.039 SA
ATOM     45  H9  UNL     1      35.216  31.316  17.088  1.00  0.00     0.193 HD
BRANCH  41  46
HETATM   46  N8  UNL     1      36.481  30.018  15.014  1.00  0.00    -0.213 N
HETATM   47  C18 UNL     1      37.592  30.469  14.226  1.00  0.00     0.167 C
HETATM   48  C19 UNL     1      37.670  29.529  13.020  1.00  0.00     0.188 C
HETATM   49  O2  UNL     1      36.817  28.441  13.168  1.00  0.00    -0.388 OA
HETATM   50  C20 UNL     1      35.475  28.806  13.225  1.00  0.00     0.188 C
HETATM   51  C21 UNL     1      35.228  29.804  14.350  1.00  0.00     0.167 C
ENDBRANCH  41  46
ENDBRANCH  37  39
ENDBRANCH  34  35
ENDBRANCH  33  34
ENDBRANCH  30  33
ENDBRANCH  29  30
ENDBRANCH  28  29
ENDBRANCH  27  28
ENDBRANCH   1  27
TORSDOF 17
ENDMDL