MODEL 4
REMARK VINA RESULT: -5.957925865      2.261      4.794
REMARK  20 active torsions:
REMARK  status: ('A' for Active; 'I' for Inactive)
REMARK    1  A    between atoms: C2_2  and  C3_3
REMARK    2  A    between atoms: C3_3  and  C4_4
REMARK    3  A    between atoms: C3_3  and  C15_16
REMARK    4  A    between atoms: C4_4  and  C5_5
REMARK    5  A    between atoms: C7_7  and  C8_8
REMARK    6  A    between atoms: C8_8  and  N1_9
REMARK    7  A    between atoms: N1_9  and  C9_10
REMARK    8  A    between atoms: N1_9  and  C12_13
REMARK    9  A    between atoms: C15_16  and  C16_17
REMARK   10  A    between atoms: C16_17  and  O1_18
REMARK   11  A    between atoms: C16_17  and  C17_20
REMARK   12  A    between atoms: C18_21  and  C19_22
REMARK   13  A    between atoms: C19_22  and  C20_24
REMARK   14  A    between atoms: C23_28  and  O4_29
REMARK   15  A    between atoms: O4_29  and  C24_30
REMARK   16  A    between atoms: C26_33  and  O6_34
REMARK   17  A    between atoms: C26_33  and  C27_36
REMARK   18  A    between atoms: C27_36  and  O7_37
REMARK   19  A    between atoms: C28_39  and  O8_40
REMARK   20  A    between atoms: C29_42  and  O9_43
ROOT
HETATM    1  C20 UNL     1      32.688  29.011  20.263  1.00  0.00     0.199 C
HETATM    2  O3  UNL     1      33.853  29.443  20.861  1.00  0.00    -0.370 OA
HETATM    3  C21 UNL     1      34.689  28.401  21.243  1.00  0.00     0.147 C
HETATM    4  C22 UNL     1      34.010  27.735  22.443  1.00  0.00     0.042 C
HETATM    5  C23 UNL     1      34.994  27.417  20.177  1.00  0.00     0.153 C
HETATM    6  C30 UNL     1      34.402  27.860  18.855  1.00  0.00     0.042 C
HETATM    7  C31 UNL     1      32.952  28.154  19.045  1.00  0.00     0.021 C
HETATM    8  C32 UNL     1      32.200  26.852  19.178  1.00  0.00     0.013 C
ENDROOT
BRANCH   1   9
HETATM    9  C19 UNL     1      31.914  30.192  19.833  1.00  0.00     0.178 C
HETATM   10  O2  UNL     1      30.991  30.639  20.592  1.00  0.00    -0.290 OA
BRANCH   9  11
HETATM   11  C18 UNL     1      32.208  30.827  18.566  1.00  0.00     0.051 C
HETATM   12  C17 UNL     1      31.244  31.093  17.741  1.00  0.00     0.008 C
BRANCH  12  13
HETATM   13  C16 UNL     1      31.448  31.756  16.387  1.00  0.00     0.141 C
BRANCH  13  14
HETATM   14  C15 UNL     1      32.912  31.738  16.165  1.00  0.00     0.040 C
BRANCH  14  15
HETATM   15  C3  UNL     1      33.431  31.761  14.787  1.00  0.00    -0.008 C
BRANCH  15  16
HETATM   16  C2  UNL     1      33.567  33.183  14.252  1.00  0.00     0.000 C
HETATM   17  C1  UNL     1      34.931  33.604  13.883  1.00  0.00     0.005 C
ENDBRANCH  15  16
BRANCH  15  18
HETATM   18  C4  UNL     1      34.526  30.873  14.351  1.00  0.00     0.038 C
BRANCH  18  19
HETATM   19  C5  UNL     1      35.214  30.055  15.330  1.00  0.00    -0.086 C
HETATM   20  C6  UNL     1      36.230  30.530  16.340  1.00  0.00     0.043 C
HETATM   21  C7  UNL     1      35.020  28.712  15.427  1.00  0.00    -0.005 C
BRANCH  21  22
HETATM   22  C8  UNL     1      34.104  27.957  14.561  1.00  0.00     0.145 C
BRANCH  22  23
HETATM   23  N1  UNL     1      32.977  27.358  15.173  1.00  0.00    -0.402 N
BRANCH  23  24
HETATM   24  C9  UNL     1      31.916  28.256  15.344  1.00  0.00     0.071 C
HETATM   25  C10 UNL     1      30.695  27.724  16.015  1.00  0.00     0.031 C
HETATM   26  C11 UNL     1      31.479  28.761  13.962  1.00  0.00     0.031 C
ENDBRANCH  23  24
BRANCH  23  27
HETATM   27  C12 UNL     1      32.808  25.989  15.287  1.00  0.00     0.071 C
HETATM   28  C13 UNL     1      32.867  25.284  13.927  1.00  0.00     0.031 C
HETATM   29  C14 UNL     1      33.859  25.361  16.165  1.00  0.00     0.031 C
ENDBRANCH  23  27
ENDBRANCH  22  23
ENDBRANCH  21  22
ENDBRANCH  18  19
ENDBRANCH  15  18
ENDBRANCH  14  15
ENDBRANCH  13  14
BRANCH  13  30
HETATM   30  O1  UNL     1      30.805  32.953  16.493  1.00  0.00    -0.392 OA
ATOM     31  H1  UNL     1      30.062  33.134  15.928  1.00  0.00     0.210 HD
ENDBRANCH  13  30
ENDBRANCH  12  13
ENDBRANCH   9  11
ENDBRANCH   1   9
BRANCH   5  32
HETATM   32  O4  UNL     1      34.680  26.100  20.468  1.00  0.00    -0.351 OA
BRANCH  32  33
HETATM   33  C24 UNL     1      35.779  25.255  20.462  1.00  0.00     0.291 C
HETATM   34  O5  UNL     1      35.734  24.530  19.269  1.00  0.00    -0.355 OA
HETATM   35  C25 UNL     1      35.008  23.349  19.422  1.00  0.00     0.213 C
HETATM   36  C26 UNL     1      35.885  22.416  20.225  1.00  0.00     0.128 C
HETATM   37  C28 UNL     1      36.589  23.119  21.335  1.00  0.00     0.190 C
HETATM   38  C29 UNL     1      35.822  24.389  21.676  1.00  0.00     0.205 C
BRANCH  36  39
HETATM   39  O6  UNL     1      36.868  21.942  19.338  1.00  0.00    -0.383 OA
ATOM     40  H6  UNL     1      37.313  21.236  19.791  1.00  0.00     0.210 HD
ENDBRANCH  36  39
BRANCH  36  41
HETATM   41  C27 UNL     1      35.083  21.231  20.711  1.00  0.00     0.206 C
BRANCH  41  42
HETATM   42  O7  UNL     1      33.943  21.674  21.377  1.00  0.00    -0.398 OA
ATOM     43  H7  UNL     1      33.315  20.965  21.445  1.00  0.00     0.209 HD
ENDBRANCH  41  42
ENDBRANCH  36  41
BRANCH  37  44
HETATM   44  O8  UNL     1      36.589  22.321  22.482  1.00  0.00    -0.390 OA
ATOM     45  H8  UNL     1      36.916  22.817  23.223  1.00  0.00     0.210 HD
ENDBRANCH  37  44
BRANCH  38  46
HETATM   46  O9  UNL     1      36.499  25.102  22.680  1.00  0.00    -0.388 OA
ATOM     47  H9  UNL     1      36.105  25.965  22.732  1.00  0.00     0.210 HD
ENDBRANCH  38  46
ENDBRANCH  32  33
ENDBRANCH   5  32
TORSDOF 20
ENDMDL