MODEL 2
REMARK VINA RESULT: -6.372029125      1.146      2.148
REMARK  20 active torsions:
REMARK  status: ('A' for Active; 'I' for Inactive)
REMARK    1  A    between atoms: C2_2  and  C3_3
REMARK    2  A    between atoms: C3_3  and  C4_4
REMARK    3  A    between atoms: C4_4  and  C5_5
REMARK    4  A    between atoms: C5_5  and  C6_6
REMARK    5  A    between atoms: C6_6  and  C7_7
REMARK    6  A    between atoms: C7_7  and  C8_8
REMARK    7  A    between atoms: C8_8  and  C9_9
REMARK    8  A    between atoms: C9_9  and  C10_10
REMARK    9  A    between atoms: C10_10  and  C11_11
REMARK   10  A    between atoms: C11_11  and  O1_12
REMARK   11  A    between atoms: C18_20  and  O2_21
REMARK   12  A    between atoms: O2_21  and  O3_22
REMARK   13  A    between atoms: O3_22  and  C19_23
REMARK   14  A    between atoms: C21_28  and  O5_29
REMARK   15  A    between atoms: O5_29  and  C22_30
REMARK   16  A    between atoms: C24_33  and  C25_34
REMARK   17  A    between atoms: C25_34  and  O7_35
REMARK   18  A    between atoms: C26_37  and  O8_38
REMARK   19  A    between atoms: C27_40  and  O9_41
REMARK   20  A    between atoms: C29_44  and  O10_45
ROOT
HETATM    1  C11 UNL     1      30.976  27.041  16.859  1.00  0.00     0.069 C
HETATM    2  C12 UNL     1      29.700  26.428  17.459  1.00  0.00     0.017 C
HETATM    3  C13 UNL     1      28.563  26.628  16.493  1.00  0.00     0.013 C
HETATM    4  C14 UNL     1      29.829  25.006  17.844  1.00  0.00     0.007 C
HETATM    5  C15 UNL     1      30.891  25.021  18.959  1.00  0.00     0.006 C
HETATM    6  C16 UNL     1      32.185  25.243  18.166  1.00  0.00    -0.001 C
HETATM    7  C17 UNL     1      32.329  24.063  17.274  1.00  0.00     0.040 C
HETATM    8  C18 UNL     1      33.759  23.522  17.460  1.00  0.00     0.163 C
HETATM    9  C28 UNL     1      34.599  24.320  16.508  1.00  0.00     0.067 C
HETATM   10  C29 UNL     1      34.565  25.804  16.785  1.00  0.00     0.121 C
HETATM   11  C30 UNL     1      33.287  26.461  16.400  1.00  0.00     0.044 C
HETATM   12  C31 UNL     1      32.234  26.586  17.483  1.00  0.00    -0.007 C
HETATM   13  C32 UNL     1      32.677  27.569  18.555  1.00  0.00     0.019 C
ENDROOT
BRANCH   8  14
HETATM   14  O2  UNL     1      34.168  23.628  18.763  1.00  0.00    -0.233 OA
BRANCH  14  15
HETATM   15  O3  UNL     1      35.398  23.334  19.020  1.00  0.00    -0.202 OA
BRANCH  15  16
HETATM   16  C19 UNL     1      35.633  23.185  20.381  1.00  0.00     0.359 C
HETATM   17  O4  UNL     1      36.383  21.946  20.469  1.00  0.00    -0.242 OA
HETATM   18  N1  UNL     1      37.706  22.281  20.172  1.00  0.00    -0.276 N
HETATM   19  C20 UNL     1      37.929  23.522  20.421  1.00  0.00     0.124 C
ATOM     20  H1  UNL     1      38.401  21.630  19.808  1.00  0.00     0.193 HD
HETATM   21  C21 UNL     1      36.675  24.100  20.929  1.00  0.00     0.225 C
BRANCH  21  22
HETATM   22  O5  UNL     1      36.513  25.430  20.605  1.00  0.00    -0.343 OA
BRANCH  22  23
HETATM   23  C22 UNL     1      36.270  26.136  21.780  1.00  0.00     0.291 C
HETATM   24  O6  UNL     1      34.998  25.922  22.298  1.00  0.00    -0.358 OA
HETATM   25  C23 UNL     1      33.995  26.627  21.688  1.00  0.00     0.180 C
HETATM   26  C24 UNL     1      34.152  28.124  21.830  1.00  0.00     0.065 C
HETATM   27  C26 UNL     1      35.562  28.519  22.202  1.00  0.00     0.159 C
HETATM   28  C27 UNL     1      36.569  27.606  21.553  1.00  0.00     0.202 C
BRANCH  26  29
HETATM   29  C25 UNL     1      33.233  28.685  22.922  1.00  0.00     0.173 C
BRANCH  29  30
HETATM   30  O7  UNL     1      33.987  29.157  23.993  1.00  0.00    -0.400 OA
ATOM     31  H7  UNL     1      34.312  28.431  24.513  1.00  0.00     0.209 HD
ENDBRANCH  29  30
ENDBRANCH  26  29
BRANCH  27  32
HETATM   32  O8  UNL     1      35.789  29.807  21.704  1.00  0.00    -0.392 OA
ATOM     33  H8  UNL     1      35.515  30.428  22.370  1.00  0.00     0.210 HD
ENDBRANCH  27  32
BRANCH  28  34
HETATM   34  O9  UNL     1      37.834  27.960  22.042  1.00  0.00    -0.388 OA
ATOM     35  H9  UNL     1      38.359  28.395  21.380  1.00  0.00     0.210 HD
ENDBRANCH  28  34
ENDBRANCH  22  23
ENDBRANCH  21  22
ENDBRANCH  15  16
ENDBRANCH  14  15
ENDBRANCH   8  14
BRANCH  10  36
HETATM   36  O10 UNL     1      35.048  26.147  18.038  1.00  0.00    -0.395 OA
ATOM     37  H10 UNL     1      34.654  26.934  18.396  1.00  0.00     0.210 HD
ENDBRANCH  10  36
BRANCH   1  38
HETATM   38  C10 UNL     1      30.659  28.490  16.832  1.00  0.00     0.039 C
BRANCH  38  39
HETATM   39  C9  UNL     1      30.863  29.260  15.591  1.00  0.00     0.003 C
BRANCH  39  40
HETATM   40  C8  UNL     1      31.593  30.566  15.960  1.00  0.00     0.000 C
BRANCH  40  41
HETATM   41  C7  UNL     1      33.078  30.359  16.113  1.00  0.00     0.000 C
BRANCH  41  42
HETATM   42  C6  UNL     1      33.554  30.909  17.419  1.00  0.00     0.000 C
BRANCH  42  43
HETATM   43  C5  UNL     1      32.423  31.544  18.242  1.00  0.00     0.000 C
BRANCH  43  44
HETATM   44  C4  UNL     1      32.400  31.013  19.627  1.00  0.00     0.000 C
BRANCH  44  45
HETATM   45  C3  UNL     1      31.108  30.567  20.183  1.00  0.00    -0.000 C
BRANCH  45  46
HETATM   46  C2  UNL     1      29.872  30.640  19.390  1.00  0.00    -0.005 C
HETATM   47  C1  UNL     1      28.598  30.683  20.171  1.00  0.00     0.005 C
ENDBRANCH  45  46
ENDBRANCH  44  45
ENDBRANCH  43  44
ENDBRANCH  42  43
ENDBRANCH  41  42
ENDBRANCH  40  41
ENDBRANCH  39  40
ENDBRANCH  38  39
ENDBRANCH   1  38
BRANCH   1  48
HETATM   48  O1  UNL     1      30.975  26.579  15.533  1.00  0.00    -0.389 OA
ATOM     49  H1  UNL     1      30.924  27.337  14.964  1.00  0.00     0.210 HD
ENDBRANCH   1  48
TORSDOF 20
ENDMDL