MODEL 1
REMARK VINA RESULT: -6.868951741      0.000      0.000
REMARK  20 active torsions:
REMARK  status: ('A' for Active; 'I' for Inactive)
REMARK    1  A    between atoms: C2_2  and  O1_3
REMARK    2  A    between atoms: O1_3  and  C3_4
REMARK    3  A    between atoms: C3_4  and  O2_5
REMARK    4  A    between atoms: O2_5  and  C4_6
REMARK    5  A    between atoms: C5_8  and  O4_9
REMARK    6  A    between atoms: C11_17  and  C12_18
REMARK    7  A    between atoms: C13_19  and  C15_21
REMARK    8  A    between atoms: C15_21  and  C17_23
REMARK    9  A    between atoms: C17_23  and  C18_24
REMARK   10  A    between atoms: C18_24  and  C19_25
REMARK   11  A    between atoms: C19_25  and  C20_26
REMARK   12  A    between atoms: C20_26  and  C21_27
REMARK   13  A    between atoms: C21_27  and  C22_28
REMARK   14  A    between atoms: C22_28  and  N1_29
REMARK   15  A    between atoms: C23_33  and  O6_34
REMARK   16  A    between atoms: C25_37  and  C26_38
REMARK   17  A    between atoms: C25_37  and  C27_41
REMARK   18  A    between atoms: C26_38  and  O7_39
REMARK   19  A    between atoms: C27_41  and  C28_42
REMARK   20  A    between atoms: C33_48  and  O9_49
ROOT
HETATM    1  C4  UNL     1      35.098  23.030  19.882  1.00  0.00     0.304 C
HETATM    2  O3  UNL     1      36.081  22.940  20.806  1.00  0.00    -0.327 OA
HETATM    3  C5  UNL     1      36.462  24.190  21.289  1.00  0.00     0.275 C
HETATM    4  C6  UNL     1      35.691  25.244  20.491  1.00  0.00     0.091 C
HETATM    5  C7  UNL     1      36.608  25.445  19.360  1.00  0.00     0.174 A
HETATM    6  O5  UNL     1      37.863  25.439  19.078  1.00  0.00    -0.368 OA
HETATM    7  C8  UNL     1      37.143  26.620  18.861  1.00  0.00     0.086 A
HETATM    8  C9  UNL     1      38.423  27.456  18.831  1.00  0.00     0.049 C
HETATM    9  C10 UNL     1      36.404  27.005  17.622  1.00  0.00     0.052 C
HETATM   10  C11 UNL     1      35.172  27.928  17.937  1.00  0.00     0.046 C
HETATM   11  C23 UNL     1      34.252  27.036  18.732  1.00  0.00     0.072 C
HETATM   12  C24 UNL     1      34.526  27.258  20.061  1.00  0.00     0.056 C
HETATM   13  C25 UNL     1      35.243  26.462  21.158  1.00  0.00     0.022 C
HETATM   14  C29 UNL     1      32.751  27.010  18.642  1.00  0.00     0.039 C
HETATM   15  C30 UNL     1      32.054  27.278  17.390  1.00  0.00     0.017 C
HETATM   16  C31 UNL     1      32.387  25.685  19.322  1.00  0.00    -0.020 C
HETATM   17  C32 UNL     1      33.329  24.576  19.463  1.00  0.00     0.013 C
HETATM   18  C33 UNL     1      34.468  24.377  20.282  1.00  0.00     0.141 C
ENDROOT
BRANCH  10  19
HETATM   19  C12 UNL     1      34.694  28.521  16.721  1.00  0.00    -0.016 C
HETATM   20  C13 UNL     1      35.015  29.784  16.329  1.00  0.00    -0.083 C
HETATM   21  C14 UNL     1      35.900  30.517  17.257  1.00  0.00     0.043 C
BRANCH  20  22
HETATM   22  C15 UNL     1      34.505  30.351  15.082  1.00  0.00     0.010 C
HETATM   23  C16 UNL     1      35.122  31.734  14.801  1.00  0.00     0.015 C
BRANCH  22  24
HETATM   24  C17 UNL     1      33.050  30.524  15.031  1.00  0.00     0.009 C
BRANCH  24  25
HETATM   25  C18 UNL     1      32.362  31.579  15.773  1.00  0.00     0.001 C
BRANCH  25  26
HETATM   26  C19 UNL     1      31.631  31.160  17.029  1.00  0.00     0.000 C
BRANCH  26  27
HETATM   27  C20 UNL     1      32.346  31.716  18.214  1.00  0.00     0.002 C
BRANCH  27  28
HETATM   28  C21 UNL     1      32.685  30.633  19.209  1.00  0.00     0.027 C
BRANCH  28  29
HETATM   29  C22 UNL     1      31.497  30.214  20.047  1.00  0.00     0.229 C
BRANCH  29  30
HETATM   30  N1  UNL     1      32.021  29.461  21.182  1.00  0.00    -0.079 N
ATOM     31  H13 UNL     1      32.934  29.043  21.000  1.00  0.00     0.274 HD
ATOM     32  H12 UNL     1      32.303  30.055  21.962  1.00  0.00     0.274 HD
ATOM     33  H11 UNL     1      31.310  28.775  21.438  1.00  0.00     0.274 HD
ENDBRANCH  29  30
ENDBRANCH  28  29
ENDBRANCH  27  28
ENDBRANCH  26  27
ENDBRANCH  25  26
ENDBRANCH  24  25
ENDBRANCH  22  24
ENDBRANCH  20  22
ENDBRANCH  10  19
BRANCH  11  34
HETATM   34  O6  UNL     1      34.243  26.104  17.768  1.00  0.00    -0.388 OA
ATOM     35  H6  UNL     1      34.852  25.555  18.247  1.00  0.00     0.210 HD
ENDBRANCH  11  34
BRANCH  13  36
HETATM   36  C26 UNL     1      34.372  26.374  22.385  1.00  0.00     0.178 C
BRANCH  36  37
HETATM   37  O7  UNL     1      34.987  26.093  23.566  1.00  0.00    -0.400 OA
ATOM     38  H7  UNL     1      34.522  25.531  24.176  1.00  0.00     0.209 HD
ENDBRANCH  36  37
ENDBRANCH  13  36
BRANCH  13  39
HETATM   39  C27 UNL     1      36.317  27.430  21.704  1.00  0.00     0.027 C
BRANCH  39  40
HETATM   40  C28 UNL     1      36.114  28.818  21.848  1.00  0.00     0.255 C
HETATM   41  O8  UNL     1      35.823  29.529  22.792  1.00  0.00    -0.303 OA
ENDBRANCH  39  40
ENDBRANCH  13  39
BRANCH   3  42
HETATM   42  O4  UNL     1      37.832  24.169  21.056  1.00  0.00    -0.370 OA
ATOM     43  H4  UNL     1      37.980  25.047  20.725  1.00  0.00     0.212 HD
ENDBRANCH   3  42
BRANCH  18  44
HETATM   44  O9  UNL     1      34.024  23.976  21.577  1.00  0.00    -0.380 OA
ATOM     45  H9  UNL     1      33.567  24.780  21.791  1.00  0.00     0.211 HD
ENDBRANCH  18  44
BRANCH   1  46
HETATM   46  O2  UNL     1      34.186  21.992  20.215  1.00  0.00    -0.334 OA
BRANCH  46  47
HETATM   47  C3  UNL     1      34.559  20.807  19.651  1.00  0.00     0.341 C
BRANCH  47  48
HETATM   48  O1  UNL     1      35.154  20.950  18.419  1.00  0.00    -0.367 OA
BRANCH  48  49
HETATM   49  C2  UNL     1      34.540  20.329  17.375  1.00  0.00     0.166 C
HETATM   50  C1  UNL     1      33.209  20.911  17.028  1.00  0.00     0.033 C
ENDBRANCH  48  49
ENDBRANCH  47  48
ENDBRANCH  46  47
ENDBRANCH   1  46
TORSDOF 20
ENDMDL