MODEL 3
REMARK VINA RESULT: -6.882549116      1.369      2.946
REMARK  21 active torsions:
REMARK  status: ('A' for Active; 'I' for Inactive)
REMARK    1  A    between atoms: C2_2  and  O2_4
REMARK    2  A    between atoms: O2_4  and  C3_5
REMARK    3  A    between atoms: C6_8  and  C7_9
REMARK    4  A    between atoms: C8_10  and  C9_11
REMARK    5  A    between atoms: C9_11  and  C11_13
REMARK    6  A    between atoms: C11_13  and  C12_14
REMARK    7  A    between atoms: C12_14  and  C13_15
REMARK    8  A    between atoms: C13_15  and  O3_16
REMARK    9  A    between atoms: C13_15  and  C14_18
REMARK   10  A    between atoms: C14_18  and  C16_20
REMARK   11  A    between atoms: C16_20  and  C17_21
REMARK   12  A    between atoms: C17_21  and  C18_23
REMARK   13  A    between atoms: C18_23  and  C20_25
REMARK   14  A    between atoms: C20_25  and  O5_26
REMARK   15  A    between atoms: C20_25  and  C21_28
REMARK   16  A    between atoms: C23_30  and  C24_31
REMARK   17  A    between atoms: C24_31  and  C25_32
REMARK   18  A    between atoms: C31_40  and  C32_41
REMARK   19  A    between atoms: C32_41  and  O8_42
REMARK   20  A    between atoms: C33_44  and  O9_45
REMARK   21  A    between atoms: C34_47  and  O10_48
ROOT
HETATM    1  C13 UNL     1      32.658  29.517  19.021  1.00  0.00     0.170 C
ENDROOT
BRANCH   1   2
HETATM    2  C12 UNL     1      33.177  29.331  20.396  1.00  0.00     0.009 C
BRANCH   2   3
HETATM    3  C11 UNL     1      33.678  28.288  20.981  1.00  0.00     0.005 C
BRANCH   3   4
HETATM    4  C9  UNL     1      34.614  27.980  22.040  1.00  0.00    -0.062 C
HETATM    5  C10 UNL     1      34.576  29.002  23.160  1.00  0.00     0.048 C
BRANCH   4   6
HETATM    6  C8  UNL     1      34.724  26.595  22.415  1.00  0.00     0.003 C
HETATM    7  C7  UNL     1      35.034  25.492  21.814  1.00  0.00    -0.021 C
BRANCH   7   8
HETATM    8  C6  UNL     1      35.420  25.158  20.452  1.00  0.00     0.023 C
HETATM    9  C4  UNL     1      34.630  24.010  19.867  1.00  0.00     0.022 C
HETATM   10  C3  UNL     1      35.071  22.661  20.370  1.00  0.00     0.167 C
HETATM   11  C5  UNL     1      33.166  24.134  20.157  1.00  0.00     0.013 C
HETATM   12  C34 UNL     1      36.555  22.438  20.302  1.00  0.00     0.177 C
HETATM   13  C33 UNL     1      37.249  23.531  21.077  1.00  0.00     0.156 C
HETATM   14  C31 UNL     1      36.909  24.844  20.473  1.00  0.00     0.049 C
BRANCH  10  15
HETATM   15  O2  UNL     1      34.451  21.689  19.548  1.00  0.00    -0.313 OA
BRANCH  15  16
HETATM   16  C2  UNL     1      34.186  20.400  20.003  1.00  0.00     0.255 C
HETATM   17  C1  UNL     1      33.859  19.364  19.003  1.00  0.00     0.126 C
HETATM   18  O1  UNL     1      34.245  20.213  21.240  1.00  0.00    -0.266 OA
ENDBRANCH  15  16
ENDBRANCH  10  15
BRANCH  12  19
HETATM   19  O10 UNL     1      37.043  22.247  19.032  1.00  0.00    -0.390 OA
ATOM     20  H10 UNL     1      36.402  22.375  18.342  1.00  0.00     0.210 HD
ENDBRANCH  12  19
BRANCH  13  21
HETATM   21  O9  UNL     1      38.609  23.323  20.969  1.00  0.00    -0.392 OA
ATOM     22  H9  UNL     1      39.061  24.149  21.103  1.00  0.00     0.210 HD
ENDBRANCH  13  21
BRANCH  14  23
HETATM   23  C32 UNL     1      37.452  25.089  19.105  1.00  0.00     0.172 C
BRANCH  23  24
HETATM   24  O8  UNL     1      38.817  25.329  19.090  1.00  0.00    -0.400 OA
ATOM     25  H8  UNL     1      39.200  25.277  18.222  1.00  0.00     0.209 HD
ENDBRANCH  23  24
ENDBRANCH  14  23
ENDBRANCH   7   8
ENDBRANCH   4   6
ENDBRANCH   3   4
ENDBRANCH   2   3
ENDBRANCH   1   2
BRANCH   1  26
HETATM   26  O3  UNL     1      31.350  28.948  18.927  1.00  0.00    -0.387 OA
ATOM     27  H3  UNL     1      30.901  29.314  18.174  1.00  0.00     0.210 HD
ENDBRANCH   1  26
BRANCH   1  28
HETATM   28  C14 UNL     1      32.609  30.952  18.567  1.00  0.00    -0.048 C
HETATM   29  C15 UNL     1      31.609  31.722  19.351  1.00  0.00     0.046 C
BRANCH  28  30
HETATM   30  C16 UNL     1      32.858  31.271  17.167  1.00  0.00     0.056 C
BRANCH  30  31
HETATM   31  C17 UNL     1      33.780  30.531  16.339  1.00  0.00     0.156 C
HETATM   32  O4  UNL     1      33.285  29.831  15.448  1.00  0.00    -0.293 OA
BRANCH  31  33
HETATM   33  C18 UNL     1      35.264  30.495  16.420  1.00  0.00     0.088 C
HETATM   34  C19 UNL     1      35.980  31.512  15.623  1.00  0.00     0.021 C
BRANCH  33  35
HETATM   35  C20 UNL     1      35.726  29.087  16.282  1.00  0.00     0.157 C
BRANCH  35  36
HETATM   36  O5  UNL     1      37.083  29.172  15.840  1.00  0.00    -0.390 OA
ATOM     37  H5  UNL     1      37.409  29.997  16.181  1.00  0.00     0.210 HD
ENDBRANCH  35  36
BRANCH  35  38
HETATM   38  C21 UNL     1      35.715  28.213  17.441  1.00  0.00    -0.058 C
HETATM   39  C22 UNL     1      36.437  28.647  18.700  1.00  0.00     0.046 C
HETATM   40  C23 UNL     1      35.115  27.035  17.512  1.00  0.00    -0.019 C
BRANCH  40  41
HETATM   41  C24 UNL     1      34.342  26.368  16.445  1.00  0.00     0.060 C
BRANCH  41  42
HETATM   42  C25 UNL     1      34.225  24.909  16.707  1.00  0.00     0.140 C
HETATM   43  O6  UNL     1      32.979  24.340  16.330  1.00  0.00    -0.315 OA
HETATM   44  C26 UNL     1      33.153  22.969  16.138  1.00  0.00     0.263 C
HETATM   45  O7  UNL     1      32.241  22.170  15.868  1.00  0.00    -0.265 OA
HETATM   46  C27 UNL     1      34.583  22.650  16.313  1.00  0.00     0.087 C
HETATM   47  C28 UNL     1      35.066  21.586  15.366  1.00  0.00     0.021 C
HETATM   48  C29 UNL     1      35.190  24.030  15.948  1.00  0.00     0.025 C
HETATM   49  C30 UNL     1      35.053  24.229  14.443  1.00  0.00     0.013 C
ENDBRANCH  41  42
ENDBRANCH  40  41
ENDBRANCH  35  38
ENDBRANCH  33  35
ENDBRANCH  31  33
ENDBRANCH  30  31
ENDBRANCH  28  30
ENDBRANCH   1  28
TORSDOF 21
ENDMDL