MODEL 4
REMARK VINA RESULT: -6.321784203      3.546      5.527
REMARK  22 active torsions:
REMARK  status: ('A' for Active; 'I' for Inactive)
REMARK    1  A    between atoms: C4_4  and  C5_5
REMARK    2  A    between atoms: C5_5  and  C6_6
REMARK    3  A    between atoms: C6_6  and  C7_7
REMARK    4  A    between atoms: C9_9  and  C10_10
REMARK    5  A    between atoms: C10_10  and  C11_11
REMARK    6  A    between atoms: C13_14  and  O2_15
REMARK    7  A    between atoms: C14_17  and  O3_18
REMARK    8  A    between atoms: C15_20  and  C16_21
REMARK    9  A    between atoms: C16_21  and  O4_22
REMARK   10  A    between atoms: C17_24  and  C18_25
REMARK   11  A    between atoms: C18_25  and  C19_26
REMARK   12  A    between atoms: C19_26  and  C20_27
REMARK   13  A    between atoms: C20_27  and  N1_28
REMARK   14  A    between atoms: C23_31  and  O5_32
REMARK   15  A    between atoms: O5_32  and  C24_33
REMARK   16  A    between atoms: C24_33  and  C25_35
REMARK   17  A    between atoms: C25_35  and  C26_36
REMARK   18  A    between atoms: C26_36  and  C27_37
REMARK   19  A    between atoms: C27_37  and  C28_38
REMARK   20  A    between atoms: C28_38  and  C29_39
REMARK   21  A    between atoms: C29_39  and  N2_40
REMARK   22  A    between atoms: C31_46  and  O8_47
ROOT
HETATM    1  C11 UNL     1      34.955  26.432  22.771  1.00  0.00     0.264 C
HETATM    2  O1  UNL     1      36.092  25.631  22.779  1.00  0.00    -0.350 OA
HETATM    3  C12 UNL     1      36.183  25.200  21.486  1.00  0.00     0.185 C
HETATM    4  C13 UNL     1      36.961  23.937  21.276  1.00  0.00     0.178 C
HETATM    5  C14 UNL     1      36.710  23.365  19.913  1.00  0.00     0.156 C
HETATM    6  C15 UNL     1      35.281  23.277  19.510  1.00  0.00     0.047 C
HETATM    7  C17 UNL     1      34.571  24.560  19.808  1.00  0.00     0.026 C
HETATM    8  C32 UNL     1      34.705  24.825  21.262  1.00  0.00     0.161 C
HETATM    9  O9  UNL     1      34.135  26.006  21.712  1.00  0.00    -0.353 OA
ENDROOT
BRANCH   7  10
HETATM   10  C18 UNL     1      33.164  24.630  19.343  1.00  0.00     0.009 C
BRANCH  10  11
HETATM   11  C19 UNL     1      32.804  25.867  18.585  1.00  0.00     0.020 C
BRANCH  11  12
HETATM   12  C20 UNL     1      31.745  25.521  17.559  1.00  0.00     0.121 C
BRANCH  12  13
HETATM   13  N1  UNL     1      30.448  25.967  17.918  1.00  0.00    -0.366 N
HETATM   14  C21 UNL     1      29.691  24.965  18.559  1.00  0.00     0.124 C
HETATM   15  C22 UNL     1      28.406  24.560  17.920  1.00  0.00     0.054 C
HETATM   16  C23 UNL     1      27.296  25.560  18.157  1.00  0.00     0.157 C
HETATM   17  C30 UNL     1      27.510  26.833  17.367  1.00  0.00     0.205 C
HETATM   18  O7  UNL     1      28.717  27.444  17.695  1.00  0.00    -0.342 OA
HETATM   19  C31 UNL     1      29.801  26.859  17.040  1.00  0.00     0.365 C
BRANCH  16  20
HETATM   20  O5  UNL     1      27.293  25.880  19.534  1.00  0.00    -0.314 OA
BRANCH  20  21
HETATM   21  C24 UNL     1      26.142  25.695  20.289  1.00  0.00     0.259 C
HETATM   22  O6  UNL     1      25.596  24.573  20.258  1.00  0.00    -0.265 OA
BRANCH  21  23
HETATM   23  C25 UNL     1      25.578  26.806  21.109  1.00  0.00     0.111 C
BRANCH  23  24
HETATM   24  C26 UNL     1      25.332  27.989  20.187  1.00  0.00     0.010 C
BRANCH  24  25
HETATM   25  C27 UNL     1      25.522  29.251  20.995  1.00  0.00     0.002 C
BRANCH  25  26
HETATM   26  C28 UNL     1      26.099  30.365  20.167  1.00  0.00     0.027 C
BRANCH  26  27
HETATM   27  C29 UNL     1      27.573  30.577  20.435  1.00  0.00     0.229 C
BRANCH  27  28
HETATM   28  N2  UNL     1      28.276  29.974  19.292  1.00  0.00    -0.079 N
ATOM     29  H23 UNL     1      28.116  28.972  19.196  1.00  0.00     0.274 HD
ATOM     30  H22 UNL     1      27.893  30.246  18.387  1.00  0.00     0.274 HD
ATOM     31  H21 UNL     1      29.258  30.222  19.411  1.00  0.00     0.274 HD
ENDBRANCH  27  28
ENDBRANCH  26  27
ENDBRANCH  25  26
ENDBRANCH  24  25
ENDBRANCH  23  24
ENDBRANCH  21  23
ENDBRANCH  20  21
ENDBRANCH  16  20
BRANCH  19  32
HETATM   32  O8  UNL     1      29.325  26.318  15.861  1.00  0.00    -0.355 OA
ATOM     33  H8  UNL     1      29.689  26.672  15.058  1.00  0.00     0.214 HD
ENDBRANCH  19  32
ENDBRANCH  12  13
ENDBRANCH  11  12
ENDBRANCH  10  11
ENDBRANCH   7  10
BRANCH   6  34
HETATM   34  C16 UNL     1      34.660  22.077  20.157  1.00  0.00     0.172 C
BRANCH  34  35
HETATM   35  O4  UNL     1      34.966  20.946  19.402  1.00  0.00    -0.400 OA
ATOM     36  H4  UNL     1      34.291  20.292  19.539  1.00  0.00     0.209 HD
ENDBRANCH  34  35
ENDBRANCH   6  34
BRANCH   5  37
HETATM   37  O3  UNL     1      37.360  22.141  19.800  1.00  0.00    -0.392 OA
ATOM     38  H3  UNL     1      38.218  22.201  20.203  1.00  0.00     0.210 HD
ENDBRANCH   5  37
BRANCH   4  39
HETATM   39  O2  UNL     1      36.772  23.063  22.317  1.00  0.00    -0.390 OA
ATOM     40  H2  UNL     1      37.442  22.389  22.322  1.00  0.00     0.210 HD
ENDBRANCH   4  39
BRANCH   1  41
HETATM   41  C10 UNL     1      35.408  27.863  22.568  1.00  0.00     0.088 C
BRANCH  41  42
HETATM   42  C9  UNL     1      34.697  28.355  21.333  1.00  0.00    -0.020 C
HETATM   43  C7  UNL     1      35.352  28.668  20.239  1.00  0.00    -0.087 C
HETATM   44  C8  UNL     1      36.833  28.537  20.203  1.00  0.00     0.043 C
BRANCH  43  45
HETATM   45  C6  UNL     1      34.649  29.146  19.042  1.00  0.00     0.037 C
BRANCH  45  46
HETATM   46  C5  UNL     1      34.043  30.509  19.277  1.00  0.00     0.031 C
BRANCH  46  47
HETATM   47  C4  UNL     1      33.370  30.991  18.033  1.00  0.00    -0.024 C
HETATM   48  C2  UNL     1      32.194  31.560  18.105  1.00  0.00    -0.091 C
HETATM   49  C1  UNL     1      31.503  31.742  19.408  1.00  0.00     0.042 C
HETATM   50  C3  UNL     1      31.510  32.046  16.868  1.00  0.00     0.042 C
ENDBRANCH  46  47
ENDBRANCH  45  46
ENDBRANCH  43  45
ENDBRANCH  41  42
ENDBRANCH   1  41
TORSDOF 22
ENDMDL