MODEL 4
REMARK VINA RESULT: -6.894773293      1.746      3.438
REMARK  21 active torsions:
REMARK  status: ('A' for Active; 'I' for Inactive)
REMARK    1  A    between atoms: C2_2  and  C3_3
REMARK    2  A    between atoms: C3_3  and  C4_4
REMARK    3  A    between atoms: C4_4  and  C5_5
REMARK    4  A    between atoms: C7_8  and  C8_9
REMARK    5  A    between atoms: C8_9  and  C9_10
REMARK    6  A    between atoms: C10_11  and  C11_12
REMARK    7  A    between atoms: C11_12  and  C12_13
REMARK    8  A    between atoms: C12_13  and  C13_14
REMARK    9  A    between atoms: C13_14  and  O2_15
REMARK   10  A    between atoms: C13_14  and  C23_29
REMARK   11  A    between atoms: O2_15  and  C14_16
REMARK   12  A    between atoms: C14_16  and  C15_17
REMARK   13  A    between atoms: C15_17  and  C16_18
REMARK   14  A    between atoms: C16_18  and  O4_20
REMARK   15  A    between atoms: O4_20  and  C17_21
REMARK   16  A    between atoms: C20_24  and  O5_25
REMARK   17  A    between atoms: C24_31  and  C25_32
REMARK   18  A    between atoms: C25_32  and  O7_33
REMARK   19  A    between atoms: C26_35  and  O8_36
REMARK   20  A    between atoms: C27_38  and  O9_39
REMARK   21  A    between atoms: C28_41  and  O10_42
ROOT
HETATM    1  C13 UNL     1      37.563  27.735  20.321  1.00  0.00     0.153 C
ENDROOT
BRANCH   1   2
HETATM    2  C12 UNL     1      36.509  28.842  20.084  1.00  0.00     0.038 C
BRANCH   2   3
HETATM    3  C11 UNL     1      36.868  29.868  19.080  1.00  0.00     0.029 C
BRANCH   3   4
HETATM    4  C10 UNL     1      36.016  29.647  17.852  1.00  0.00    -0.031 C
HETATM    5  C9  UNL     1      36.318  30.186  16.702  1.00  0.00    -0.030 C
BRANCH   5   6
HETATM    6  C8  UNL     1      35.491  29.979  15.480  1.00  0.00     0.039 C
BRANCH   6   7
HETATM    7  C7  UNL     1      34.055  29.901  15.874  1.00  0.00     0.067 C
HETATM    8  C6  UNL     1      33.332  31.177  15.597  1.00  0.00     0.140 C
HETATM    9  C5  UNL     1      31.917  31.285  15.992  1.00  0.00     0.084 C
HETATM   10  O1  UNL     1      33.901  32.092  15.061  1.00  0.00    -0.297 OA
HETATM   11  C32 UNL     1      31.258  29.942  15.904  1.00  0.00    -0.076 C
HETATM   12  C31 UNL     1      31.898  28.855  15.535  1.00  0.00    -0.019 C
HETATM   13  C33 UNL     1      29.815  29.857  16.254  1.00  0.00     0.044 C
HETATM   14  C29 UNL     1      33.341  28.797  15.158  1.00  0.00     0.016 C
HETATM   15  C30 UNL     1      33.505  28.850  13.663  1.00  0.00     0.015 C
BRANCH   9  16
HETATM   16  C4  UNL     1      31.710  31.818  17.361  1.00  0.00     0.020 C
BRANCH  16  17
HETATM   17  C3  UNL     1      32.712  31.435  18.396  1.00  0.00     0.027 C
BRANCH  17  18
HETATM   18  C2  UNL     1      32.083  31.048  19.664  1.00  0.00    -0.037 C
HETATM   19  C1  UNL     1      30.830  30.724  19.807  1.00  0.00     0.007 C
ENDBRANCH  17  18
ENDBRANCH  16  17
ENDBRANCH   9  16
ENDBRANCH   6   7
ENDBRANCH   5   6
ENDBRANCH   3   4
ENDBRANCH   2   3
ENDBRANCH   1   2
BRANCH   1  20
HETATM   20  O2  UNL     1      37.576  27.670  21.752  1.00  0.00    -0.383 OA
BRANCH  20  21
HETATM   21  C14 UNL     1      36.569  28.350  22.351  1.00  0.00     0.178 C
BRANCH  21  22
HETATM   22  C15 UNL     1      35.695  27.495  23.184  1.00  0.00     0.137 C
BRANCH  22  23
HETATM   23  C16 UNL     1      34.328  27.331  22.566  1.00  0.00     0.261 C
HETATM   24  O3  UNL     1      33.360  28.060  22.867  1.00  0.00    -0.265 OA
BRANCH  23  25
HETATM   25  O4  UNL     1      34.094  26.342  21.623  1.00  0.00    -0.316 OA
BRANCH  25  26
HETATM   26  C17 UNL     1      33.132  26.392  20.609  1.00  0.00     0.132 C
HETATM   27  C18 UNL     1      32.862  25.072  19.966  1.00  0.00     0.035 C
HETATM   28  C19 UNL     1      31.640  25.152  19.128  1.00  0.00     0.034 C
HETATM   29  C20 UNL     1      31.473  26.362  18.305  1.00  0.00     0.118 C
HETATM   30  C21 UNL     1      32.207  27.583  18.709  1.00  0.00     0.034 C
HETATM   31  C22 UNL     1      33.467  27.348  19.492  1.00  0.00     0.035 C
BRANCH  29  32
HETATM   32  O5  UNL     1      30.106  26.679  18.243  1.00  0.00    -0.396 OA
ATOM     33  H5  UNL     1      29.959  27.487  18.721  1.00  0.00     0.210 HD
ENDBRANCH  29  32
ENDBRANCH  25  26
ENDBRANCH  23  25
ENDBRANCH  22  23
ENDBRANCH  21  22
ENDBRANCH  20  21
ENDBRANCH   1  20
BRANCH   1  34
HETATM   34  C23 UNL     1      37.030  26.453  19.825  1.00  0.00     0.182 C
HETATM   35  O6  UNL     1      37.523  25.431  20.699  1.00  0.00    -0.370 OA
HETATM   36  C24 UNL     1      36.731  24.288  20.550  1.00  0.00     0.177 C
HETATM   37  C26 UNL     1      36.048  24.176  19.235  1.00  0.00     0.180 C
HETATM   38  C27 UNL     1      36.766  24.815  18.071  1.00  0.00     0.180 C
HETATM   39  C28 UNL     1      37.634  25.991  18.488  1.00  0.00     0.180 C
BRANCH  36  40
HETATM   40  C25 UNL     1      37.521  23.073  20.884  1.00  0.00     0.198 C
BRANCH  40  41
HETATM   41  O7  UNL     1      38.736  23.022  20.213  1.00  0.00    -0.398 OA
ATOM     42  H7  UNL     1      38.923  22.162  19.857  1.00  0.00     0.209 HD
ENDBRANCH  40  41
ENDBRANCH  36  40
BRANCH  37  43
HETATM   43  O8  UNL     1      35.828  22.845  18.895  1.00  0.00    -0.390 OA
ATOM     44  H8  UNL     1      35.248  22.774  18.146  1.00  0.00     0.210 HD
ENDBRANCH  37  43
BRANCH  38  45
HETATM   45  O9  UNL     1      37.596  23.922  17.395  1.00  0.00    -0.390 OA
ATOM     46  H9  UNL     1      37.850  24.237  16.535  1.00  0.00     0.210 HD
ENDBRANCH  38  45
BRANCH  39  47
HETATM   47  O10 UNL     1      38.926  25.481  18.792  1.00  0.00    -0.390 OA
ATOM     48  H10 UNL     1      39.503  25.798  18.106  1.00  0.00     0.210 HD
ENDBRANCH  39  47
ENDBRANCH   1  34
TORSDOF 21
ENDMDL