MODEL 4
REMARK VINA RESULT: -5.849268076      2.361      6.224
REMARK  20 active torsions:
REMARK  status: ('A' for Active; 'I' for Inactive)
REMARK    1  A    between atoms: C2_2  and  C3_3
REMARK    2  A    between atoms: C3_3  and  C4_4
REMARK    3  A    between atoms: C4_4  and  C5_5
REMARK    4  A    between atoms: C5_5  and  C6_6
REMARK    5  A    between atoms: C6_6  and  C7_7
REMARK    6  A    between atoms: C7_7  and  C8_8
REMARK    7  A    between atoms: C8_8  and  C9_9
REMARK    8  A    between atoms: C9_9  and  C10_10
REMARK    9  A    between atoms: C10_10  and  C11_11
REMARK   10  A    between atoms: C11_11  and  C12_12
REMARK   11  A    between atoms: C12_12  and  O2_14
REMARK   12  A    between atoms: O2_14  and  C13_15
REMARK   13  A    between atoms: C15_17  and  O3_18
REMARK   14  A    between atoms: C20_25  and  O4_26
REMARK   15  A    between atoms: O4_26  and  C21_27
REMARK   16  A    between atoms: C22_29  and  C23_30
REMARK   17  A    between atoms: C23_30  and  O6_31
REMARK   18  A    between atoms: C24_33  and  O7_34
REMARK   19  A    between atoms: C25_36  and  O8_37
REMARK   20  A    between atoms: C26_39  and  O9_40
ROOT
HETATM    1  C13 UNL     1      34.129  29.692  18.000  1.00  0.00     0.141 C
HETATM    2  C14 UNL     1      33.289  30.781  18.712  1.00  0.00     0.066 C
HETATM    3  C15 UNL     1      32.048  30.187  19.315  1.00  0.00     0.138 C
HETATM    4  C16 UNL     1      32.471  29.159  20.375  1.00  0.00     0.149 C
HETATM    5  N1  UNL     1      33.236  28.108  19.810  1.00  0.00    -0.403 N
HETATM    6  C17 UNL     1      32.537  26.891  19.925  1.00  0.00     0.144 C
HETATM    7  C18 UNL     1      34.635  28.168  19.943  1.00  0.00     0.057 C
HETATM    8  C19 UNL     1      34.905  28.659  21.386  1.00  0.00     0.041 C
HETATM    9  C20 UNL     1      35.372  26.889  19.833  1.00  0.00     0.152 C
HETATM   10  C27 UNL     1      35.758  26.500  18.427  1.00  0.00     0.035 C
HETATM   11  C28 UNL     1      36.720  27.508  17.920  1.00  0.00     0.012 C
HETATM   12  C29 UNL     1      36.509  28.897  18.398  1.00  0.00    -0.039 C
HETATM   13  C30 UNL     1      37.610  29.222  19.423  1.00  0.00     0.015 C
HETATM   14  C31 UNL     1      36.806  29.801  17.215  1.00  0.00     0.015 C
HETATM   15  C32 UNL     1      35.173  29.203  18.981  1.00  0.00     0.053 C
ENDROOT
BRANCH   9  16
HETATM   16  O4  UNL     1      34.810  25.775  20.414  1.00  0.00    -0.351 OA
BRANCH  16  17
HETATM   17  C21 UNL     1      35.512  24.602  20.260  1.00  0.00     0.292 C
HETATM   18  O5  UNL     1      34.805  23.499  20.781  1.00  0.00    -0.348 OA
HETATM   19  C22 UNL     1      35.322  22.359  20.176  1.00  0.00     0.179 C
HETATM   20  C24 UNL     1      36.820  22.356  20.066  1.00  0.00     0.180 C
HETATM   21  C25 UNL     1      37.512  23.353  20.935  1.00  0.00     0.183 C
HETATM   22  C26 UNL     1      36.786  24.676  21.054  1.00  0.00     0.204 C
BRANCH  19  23
HETATM   23  C23 UNL     1      34.809  21.092  20.820  1.00  0.00     0.198 C
BRANCH  23  24
HETATM   24  O6  UNL     1      35.316  20.947  22.117  1.00  0.00    -0.398 OA
ATOM     25  H6  UNL     1      36.060  20.356  22.128  1.00  0.00     0.209 HD
ENDBRANCH  23  24
ENDBRANCH  19  23
BRANCH  20  26
HETATM   26  O7  UNL     1      37.242  22.454  18.720  1.00  0.00    -0.390 OA
ATOM     27  H7  UNL     1      37.796  23.214  18.583  1.00  0.00     0.210 HD
ENDBRANCH  20  26
BRANCH  21  28
HETATM   28  O8  UNL     1      38.753  23.635  20.337  1.00  0.00    -0.390 OA
ATOM     29  H8  UNL     1      39.419  23.525  21.006  1.00  0.00     0.210 HD
ENDBRANCH  21  28
BRANCH  22  30
HETATM   30  O9  UNL     1      36.437  24.795  22.420  1.00  0.00    -0.388 OA
ATOM     31  H9  UNL     1      36.447  25.718  22.642  1.00  0.00     0.210 HD
ENDBRANCH  22  30
ENDBRANCH  16  17
ENDBRANCH   9  16
BRANCH   1  32
HETATM   32  O2  UNL     1      33.313  28.720  17.449  1.00  0.00    -0.315 OA
BRANCH  32  33
HETATM   33  C12 UNL     1      33.402  28.352  16.118  1.00  0.00     0.259 C
HETATM   34  O1  UNL     1      33.351  29.252  15.242  1.00  0.00    -0.265 OA
BRANCH  33  35
HETATM   35  C11 UNL     1      33.557  26.935  15.693  1.00  0.00     0.111 C
BRANCH  35  36
HETATM   36  C10 UNL     1      32.448  26.436  14.831  1.00  0.00     0.010 C
BRANCH  36  37
HETATM   37  C9  UNL     1      31.745  25.226  15.343  1.00  0.00     0.000 C
BRANCH  37  38
HETATM   38  C8  UNL     1      31.187  25.399  16.745  1.00  0.00     0.000 C
BRANCH  38  39
HETATM   39  C7  UNL     1      31.342  24.170  17.569  1.00  0.00     0.000 C
BRANCH  39  40
HETATM   40  C6  UNL     1      32.792  23.786  17.719  1.00  0.00     0.000 C
BRANCH  40  41
HETATM   41  C5  UNL     1      33.071  22.371  17.359  1.00  0.00     0.000 C
BRANCH  41  42
HETATM   42  C4  UNL     1      34.271  22.238  16.481  1.00  0.00     0.000 C
BRANCH  42  43
HETATM   43  C3  UNL     1      34.999  23.549  16.311  1.00  0.00    -0.000 C
BRANCH  43  44
HETATM   44  C2  UNL     1      35.488  23.705  14.875  1.00  0.00    -0.005 C
HETATM   45  C1  UNL     1      34.477  23.053  13.981  1.00  0.00     0.005 C
ENDBRANCH  43  44
ENDBRANCH  42  43
ENDBRANCH  41  42
ENDBRANCH  40  41
ENDBRANCH  39  40
ENDBRANCH  38  39
ENDBRANCH  37  38
ENDBRANCH  36  37
ENDBRANCH  35  36
ENDBRANCH  33  35
ENDBRANCH  32  33
ENDBRANCH   1  32
BRANCH   3  46
HETATM   46  O3  UNL     1      31.382  31.188  19.989  1.00  0.00    -0.394 OA
ATOM     47  H3  UNL     1      30.449  31.051  19.869  1.00  0.00     0.210 HD
ENDBRANCH   3  46
TORSDOF 20
ENDMDL