MODEL 5
REMARK VINA RESULT: -9.937427083      2.897      3.871
REMARK  13 active torsions:
REMARK  status: ('A' for Active; 'I' for Inactive)
REMARK    1  A    between atoms: C2_5  and  N3_6
REMARK    2  A    between atoms: C2_5  and  C21_50
REMARK    3  A    between atoms: N3_6  and  C3_8
REMARK    4  A    between atoms: C3_8  and  C4_9
REMARK    5  A    between atoms: C7_12  and  O1_13
REMARK    6  A    between atoms: O1_13  and  C8_14
REMARK    7  A    between atoms: C8_14  and  C9_15
REMARK    8  A    between atoms: N4_17  and  C11_18
REMARK    9  A    between atoms: N5_20  and  C13_21
REMARK   10  A    between atoms: C13_21  and  C14_22
REMARK       I    between atoms: C14_22  and  N6_24
REMARK   11  A    between atoms: N6_24  and  N7_26
REMARK   12  A    between atoms: N7_26  and  C15_28
REMARK   13  A    between atoms: C17_31  and  N8_32
ROOT
HETATM    1  N1  UNL     1       5.079  20.774  81.189  1.00  0.00    -0.172 NA
HETATM    2  C1  UNL     1       3.984  21.145  81.170  1.00  0.00     0.183 C
HETATM    3  N2  UNL     1       2.670  21.587  81.125  1.00  0.00    -0.279 N
ATOM      4  H2  UNL     1       2.484  22.590  81.135  1.00  0.00     0.179 HD
HETATM    5  C2  UNL     1       1.690  20.775  81.073  1.00  0.00     0.127 C
ENDROOT
BRANCH   5   6
HETATM    6  N3  UNL     1       1.869  19.373  81.057  1.00  0.00    -0.371 N
ATOM      7  H3  UNL     1       2.283  18.945  80.230  1.00  0.00     0.161 HD
BRANCH   6   8
HETATM    8  C3  UNL     1       1.491  18.518  82.160  1.00  0.00     0.161 C
BRANCH   8   9
HETATM    9  C4  UNL     1       2.619  17.628  82.546  1.00  0.00    -0.025 A
HETATM   10  C5  UNL     1       2.616  16.282  82.246  1.00  0.00     0.014 A
HETATM   11  C6  UNL     1       3.705  15.509  82.640  1.00  0.00     0.057 A
HETATM   12  C7  UNL     1       4.771  16.059  83.314  1.00  0.00     0.142 A
HETATM   13  N13 UNL     1       4.745  17.372  83.592  1.00  0.00    -0.346 N
HETATM   14  C20 UNL     1       3.719  18.156  83.233  1.00  0.00     0.099 A
ATOM     15  H13 UNL     1       5.532  17.786  84.092  1.00  0.00     0.167 HD
BRANCH  12  16
HETATM   16  O1  UNL     1       5.854  15.252  83.699  1.00  0.00    -0.330 OA
BRANCH  16  17
HETATM   17  C8  UNL     1       6.649  15.569  84.815  1.00  0.00     0.237 C
BRANCH  17  18
HETATM   18  C9  UNL     1       8.046  15.757  84.357  1.00  0.00     0.069 A
HETATM   19  C10 UNL     1       8.984  16.662  84.853  1.00  0.00     0.147 A
HETATM   20  N4  UNL     1      10.136  16.523  84.185  1.00  0.00    -0.244 N
HETATM   21  N11 UNL     1       9.933  15.560  83.292  1.00  0.00    -0.236 N
HETATM   22  N12 UNL     1       8.714  15.093  83.372  1.00  0.00    -0.286 N
ATOM     23  H11 UNL     1      10.636  15.229  82.630  1.00  0.00     0.209 HD
ATOM     24  H12 UNL     1       8.325  14.351  82.790  1.00  0.00     0.188 HD
BRANCH  20  25
HETATM   25  C11 UNL     1      11.379  17.201  84.316  1.00  0.00     0.141 A
HETATM   26  C12 UNL     1      11.635  18.021  85.417  1.00  0.00     0.133 A
HETATM   27  N5  UNL     1      12.797  18.681  85.561  1.00  0.00    -0.298 N
HETATM   28  C18 UNL     1      13.742  18.549  84.622  1.00  0.00     0.329 A
HETATM   29  O3  UNL     1      14.847  19.140  84.703  1.00  0.00    -0.246 OA
HETATM   30  N10 UNL     1      13.518  17.768  83.559  1.00  0.00    -0.273 N
HETATM   31  C19 UNL     1      12.374  17.088  83.370  1.00  0.00     0.279 A
ATOM     32  H10 UNL     1      14.253  17.685  82.857  1.00  0.00     0.173 HD
HETATM   33  O4  UNL     1      12.213  16.367  82.355  1.00  0.00    -0.265 OA
BRANCH  27  34
HETATM   34  C13 UNL     1      12.973  19.514  86.718  1.00  0.00     0.237 C
BRANCH  34  35
HETATM   35  C14 UNL     1      11.835  19.473  87.639  1.00  0.00     0.254 C
HETATM   36  O2  UNL     1      11.031  20.435  87.664  1.00  0.00    -0.270 OA
HETATM   37  N6  UNL     1      11.605  18.385  88.509  1.00  0.00    -0.267 N
ATOM     38  H6  UNL     1      12.255  17.600  88.493  1.00  0.00     0.190 HD
BRANCH  37  39
HETATM   39  N7  UNL     1      10.526  18.341  89.386  1.00  0.00    -0.282 N
ATOM     40  H7  UNL     1      10.666  18.651  90.348  1.00  0.00     0.188 HD
BRANCH  39  41
HETATM   41  C15 UNL     1       9.208  17.872  88.991  1.00  0.00     0.128 A
HETATM   42  C16 UNL     1       8.702  16.700  89.498  1.00  0.00     0.103 A
HETATM   43  S1  UNL     1       7.175  16.601  88.742  1.00  0.00    -0.062 SA
HETATM   44  C17 UNL     1       7.257  18.037  87.831  1.00  0.00     0.143 A
HETATM   45  N9  UNL     1       8.450  18.529  88.146  1.00  0.00    -0.322 N
ATOM     46  H9  UNL     1       8.773  19.406  87.736  1.00  0.00     0.169 HD
BRANCH  44  47
HETATM   47  N8  UNL     1       6.367  18.559  87.006  1.00  0.00    -0.380 N
ATOM     48  H82 UNL     1       6.413  18.596  85.988  1.00  0.00     0.158 HD
ATOM     49  H81 UNL     1       5.479  19.016  87.216  1.00  0.00     0.158 HD
ENDBRANCH  44  47
ENDBRANCH  39  41
ENDBRANCH  37  39
ENDBRANCH  34  35
ENDBRANCH  27  34
ENDBRANCH  20  25
ENDBRANCH  17  18
ENDBRANCH  16  17
ENDBRANCH  12  16
ENDBRANCH   8   9
ENDBRANCH   6   8
ENDBRANCH   5   6
BRANCH   5  50
HETATM   50  C21 UNL     1       0.320  21.293  81.024  1.00  0.00     0.092 A
HETATM   51  C22 UNL     1      -0.583  20.902  80.062  1.00  0.00     0.115 A
HETATM   52  N14 UNL     1      -1.843  21.366  80.001  1.00  0.00    -0.320 N
HETATM   53  C23 UNL     1      -2.256  22.257  80.917  1.00  0.00     0.228 A
HETATM   54  C26 UNL     1      -2.944  21.099  79.096  1.00  0.00     0.158 C
HETATM   55  N15 UNL     1      -1.382  22.655  81.871  1.00  0.00    -0.288 N
HETATM   56  O6  UNL     1      -3.587  22.606  80.672  1.00  0.00    -0.320 OA
HETATM   57  C24 UNL     1      -0.129  22.217  81.961  1.00  0.00     0.263 A
ATOM     58  H15 UNL     1      -1.703  23.332  82.562  1.00  0.00     0.172 HD
HETATM   59  O5  UNL     1       0.688  22.584  82.845  1.00  0.00    -0.267 OA
HETATM   60  C25 UNL     1      -4.141  21.596  79.847  1.00  0.00     0.199 C
ENDBRANCH   5  50
TORSDOF 13
ENDMDL