MODEL 4
REMARK VINA RESULT: -5.187866588      3.459      7.947
REMARK  19 active torsions:
REMARK  status: ('A' for Active; 'I' for Inactive)
REMARK    1  A    between atoms: O1_2  and  C2_3
REMARK    2  A    between atoms: C2_3  and  C3_5
REMARK    3  A    between atoms: C5_7  and  O3_8
REMARK    4  A    between atoms: C6_10  and  N1_11
REMARK    5  A    between atoms: N1_11  and  C7_12
REMARK    6  A    between atoms: N1_11  and  C8_15
REMARK    7  A    between atoms: C7_12  and  O4_13
REMARK    8  A    between atoms: C8_15  and  C9_16
REMARK    9  A    between atoms: C9_16  and  O5_17
REMARK   10  A    between atoms: C10_19  and  N2_20
REMARK   11  A    between atoms: N2_20  and  C11_22
REMARK   12  A    between atoms: C11_22  and  C12_23
REMARK   13  A    between atoms: C12_23  and  O6_24
REMARK   14  A    between atoms: C13_26  and  O7_27
REMARK   15  A    between atoms: C17_32  and  C18_33
REMARK   16  A    between atoms: C24_41  and  O10_43
REMARK   17  A    between atoms: O10_43  and  C26_44
REMARK   18  A    between atoms: C29_48  and  O12_49
REMARK   19  A    between atoms: O12_49  and  C30_50
ROOT
HETATM    1  C3  UNL     1       5.892  15.951  85.626  1.00  0.00     0.122 A
HETATM    2  C4  UNL     1       4.640  16.319  85.408  1.00  0.00     0.045 A
HETATM    3  C5  UNL     1       4.390  16.565  84.092  1.00  0.00     0.108 A
HETATM    4  C6  UNL     1       3.123  16.972  83.681  1.00  0.00     0.096 A
HETATM    5  C10 UNL     1       2.118  17.131  84.570  1.00  0.00     0.092 A
HETATM    6  C13 UNL     1       2.308  16.895  85.935  1.00  0.00     0.105 A
HETATM    7  C14 UNL     1       3.581  16.490  86.326  1.00  0.00     0.011 A
HETATM    8  C15 UNL     1       3.637  16.319  87.627  1.00  0.00    -0.006 A
HETATM    9  C16 UNL     1       4.612  15.940  88.640  1.00  0.00     0.081 A
HETATM   10  C17 UNL     1       5.934  15.573  88.148  1.00  0.00     0.006 A
HETATM   11  N3  UNL     1       6.339  15.610  86.965  1.00  0.00    -0.356 N
ATOM     12  H3  UNL     1       7.310  15.297  86.929  1.00  0.00     0.166 HD
ENDROOT
BRANCH  10  13
HETATM   13  C18 UNL     1       6.942  15.087  89.139  1.00  0.00     0.136 C
HETATM   14  C19 UNL     1       6.509  13.747  89.558  1.00  0.00     0.156 C
HETATM   15  O8  UNL     1       6.110  12.930  88.710  1.00  0.00    -0.296 OA
HETATM   16  C20 UNL     1       6.494  13.236  90.952  1.00  0.00     0.078 C
HETATM   17  C21 UNL     1       7.614  12.260  91.210  1.00  0.00     0.031 C
HETATM   18  C22 UNL     1       5.135  12.568  91.132  1.00  0.00     0.031 C
HETATM   19  C23 UNL     1       6.637  14.375  91.878  1.00  0.00     0.181 C
HETATM   20  O9  UNL     1       5.957  14.402  92.864  1.00  0.00    -0.293 OA
HETATM   21  C24 UNL     1       7.650  15.459  91.524  1.00  0.00     0.154 C
HETATM   22  C25 UNL     1       7.607  16.413  92.697  1.00  0.00     0.060 C
HETATM   23  C28 UNL     1       7.166  16.025  90.260  1.00  0.00     0.001 C
HETATM   24  C29 UNL     1       6.919  17.309  90.062  1.00  0.00     0.156 C
BRANCH  21  25
HETATM   25  O10 UNL     1       8.868  14.814  91.508  1.00  0.00    -0.298 OA
BRANCH  25  26
HETATM   26  C26 UNL     1      10.084  15.454  91.527  1.00  0.00     0.256 C
HETATM   27  C27 UNL     1      10.519  16.404  90.474  1.00  0.00     0.126 C
HETATM   28  O11 UNL     1      10.837  15.205  92.484  1.00  0.00    -0.266 OA
ENDBRANCH  25  26
ENDBRANCH  21  25
BRANCH  24  29
HETATM   29  O12 UNL     1       7.081  18.300  91.015  1.00  0.00    -0.265 OA
BRANCH  29  30
HETATM   30  C30 UNL     1       6.860  19.619  90.760  1.00  0.00     0.337 C
HETATM   31  O13 UNL     1       5.960  19.997  89.978  1.00  0.00    -0.623 OA
HETATM   32  O14 UNL     1       7.641  20.586  91.373  1.00  0.00    -0.623 OA
ENDBRANCH  29  30
ENDBRANCH  24  29
ENDBRANCH  10  13
BRANCH   1  33
HETATM   33  C2  UNL     1       6.875  15.828  84.624  1.00  0.00     0.310 C
HETATM   34  O2  UNL     1       7.250  15.112  83.788  1.00  0.00    -0.258 OA
BRANCH  33  35
HETATM   35  O1  UNL     1       7.761  16.994  84.594  1.00  0.00    -0.321 OA
HETATM   36  C1  UNL     1       9.095  16.829  85.010  1.00  0.00     0.213 C
ENDBRANCH  33  35
ENDBRANCH   1  33
BRANCH   6  37
HETATM   37  O7  UNL     1       1.305  17.056  86.790  1.00  0.00    -0.357 OA
ATOM     38  H7  UNL     1       1.173  16.436  87.497  1.00  0.00     0.217 HD
ENDBRANCH   6  37
BRANCH   3  39
HETATM   39  O3  UNL     1       5.347  16.422  83.137  1.00  0.00    -0.357 OA
ATOM     40  H3  UNL     1       5.525  15.586  82.722  1.00  0.00     0.217 HD
ENDBRANCH   3  39
BRANCH   5  41
HETATM   41  N2  UNL     1       0.870  17.574  84.130  1.00  0.00    -0.384 N
ATOM     42  H2  UNL     1       0.730  18.579  84.027  1.00  0.00     0.159 HD
BRANCH  41  43
HETATM   43  C11 UNL     1      -0.224  16.711  83.814  1.00  0.00     0.146 C
BRANCH  43  44
HETATM   44  C12 UNL     1      -1.491  17.185  84.590  1.00  0.00     0.183 C
BRANCH  44  45
HETATM   45  O6  UNL     1      -1.106  18.250  85.357  1.00  0.00    -0.399 OA
ATOM     46  H6  UNL     1      -1.818  18.879  85.328  1.00  0.00     0.209 HD
ENDBRANCH  44  45
ENDBRANCH  43  44
ENDBRANCH  41  43
ENDBRANCH   5  41
BRANCH   4  47
HETATM   47  N1  UNL     1       2.953  17.241  82.272  1.00  0.00    -0.353 N
BRANCH  47  48
HETATM   48  C7  UNL     1       2.630  16.123  81.413  1.00  0.00     0.290 C
BRANCH  48  49
HETATM   49  O4  UNL     1       2.950  14.876  81.938  1.00  0.00    -0.382 OA
ATOM     50  H4  UNL     1       2.210  14.289  82.047  1.00  0.00     0.211 HD
ENDBRANCH  48  49
ENDBRANCH  47  48
BRANCH  47  51
HETATM   51  C8  UNL     1       3.065  18.578  81.748  1.00  0.00     0.151 C
BRANCH  51  52
HETATM   52  C9  UNL     1       2.470  18.826  80.407  1.00  0.00     0.183 C
BRANCH  52  53
HETATM   53  O5  UNL     1       3.347  19.287  79.456  1.00  0.00    -0.399 OA
ATOM     54  H5  UNL     1       3.190  18.969  78.575  1.00  0.00     0.209 HD
ENDBRANCH  52  53
ENDBRANCH  51  52
ENDBRANCH  47  51
ENDBRANCH   4  47
TORSDOF 19
ENDMDL