MODEL 5
REMARK VINA RESULT: -9.965496902      0.940      1.165
REMARK  15 active torsions:
REMARK  status: ('A' for Active; 'I' for Inactive)
REMARK    1  A    between atoms: O1_2  and  C2_3
REMARK    2  A    between atoms: C2_3  and  C3_5
REMARK    3  A    between atoms: C3_5  and  N8_34
REMARK    4  A    between atoms: C4_6  and  N1_7
REMARK       I    between atoms: N1_7  and  C5_9
REMARK    5  A    between atoms: C5_9  and  C6_11
REMARK    6  A    between atoms: C7_14  and  S1_15
REMARK    7  A    between atoms: S1_15  and  C8_18
REMARK    8  A    between atoms: C8_18  and  C9_20
REMARK    9  A    between atoms: N3_22  and  N4_24
REMARK       I    between atoms: N4_24  and  C11_25
REMARK   10  A    between atoms: N5_28  and  C13_29
REMARK       I    between atoms: N8_34  and  C15_36
REMARK   11  A    between atoms: C15_36  and  C16_38
REMARK   12  A    between atoms: C17_40  and  O9_41
REMARK   13  A    between atoms: C18_43  and  C19_44
REMARK   14  A    between atoms: C19_44  and  O10_47
REMARK   15  A    between atoms: C23_51  and  O12_52
ROOT
HETATM    1  C13 UNL     1      10.452  15.514  84.080  1.00  0.00     0.275 C
HETATM    2  C14 UNL     1      10.661  14.756  82.828  1.00  0.00     0.081 C
HETATM    3  N6  UNL     1      10.812  14.171  81.843  1.00  0.00    -0.195 NA
ENDROOT
BRANCH   1   4
HETATM    4  N5  UNL     1       9.040  15.728  84.293  1.00  0.00    -0.254 N
HETATM    5  C7  UNL     1       8.403  16.046  85.369  1.00  0.00     0.201 A
HETATM    6  N2  UNL     1       7.058  16.038  85.004  1.00  0.00    -0.314 N
HETATM    7  C6  UNL     1       6.935  15.710  83.704  1.00  0.00     0.192 A
ATOM      8  H2  UNL     1       6.280  16.248  85.629  1.00  0.00     0.170 HD
HETATM    9  N7  UNL     1       8.161  15.520  83.254  1.00  0.00    -0.276 N
ATOM     10  H7  UNL     1       8.414  15.262  82.300  1.00  0.00     0.189 HD
BRANCH   5  11
HETATM   11  S1  UNL     1       8.820  16.343  87.023  1.00  0.00     0.143 S
HETATM   12  O4  UNL     1      10.374  16.068  87.109  1.00  0.00    -0.242 OA
HETATM   13  S2  UNL     1       8.097  15.206  88.050  1.00  0.00     0.024 SA
BRANCH  11  14
HETATM   14  C8  UNL     1       8.672  17.946  87.579  1.00  0.00     0.269 C
HETATM   15  O5  UNL     1       9.079  18.918  86.865  1.00  0.00    -0.276 OA
BRANCH  14  16
HETATM   16  C9  UNL     1       8.093  18.304  88.869  1.00  0.00     0.094 C
HETATM   17  C10 UNL     1       8.974  18.588  90.047  1.00  0.00     0.076 C
HETATM   18  N3  UNL     1       6.829  18.389  89.099  1.00  0.00    -0.233 N
ATOM     19  H3  UNL     1       6.552  18.646  90.046  1.00  0.00     0.202 HD
BRANCH  18  20
HETATM   20  N4  UNL     1       5.847  18.177  88.224  1.00  0.00    -0.287 NA
HETATM   21  C11 UNL     1       4.853  17.961  87.332  1.00  0.00     0.308 C
HETATM   22  C12 UNL     1       3.423  18.168  87.826  1.00  0.00     0.137 C
HETATM   23  O6  UNL     1       4.998  17.600  86.134  1.00  0.00    -0.256 OA
ENDBRANCH  18  20
ENDBRANCH  14  16
ENDBRANCH  11  14
ENDBRANCH   5  11
BRANCH   7  24
HETATM   24  C5  UNL     1       5.617  15.569  83.038  1.00  0.00     0.290 C
HETATM   25  N1  UNL     1       4.657  16.548  83.094  1.00  0.00    -0.328 N
ATOM     26  H1  UNL     1       4.929  17.324  83.697  1.00  0.00     0.168 HD
HETATM   27  O3  UNL     1       5.540  14.442  82.424  1.00  0.00    -0.264 OA
BRANCH  25  28
HETATM   28  C4  UNL     1       3.370  16.739  82.508  1.00  0.00     0.127 C
HETATM   29  C3  UNL     1       2.353  17.536  83.093  1.00  0.00     0.126 C
BRANCH  29  30
HETATM   30  C2  UNL     1       1.773  16.794  84.317  1.00  0.00     0.311 C
HETATM   31  O2  UNL     1       2.493  15.946  84.858  1.00  0.00    -0.258 OA
BRANCH  30  32
HETATM   32  O1  UNL     1       0.530  17.079  84.808  1.00  0.00    -0.321 OA
HETATM   33  C1  UNL     1       0.260  17.473  86.141  1.00  0.00     0.213 C
ENDBRANCH  30  32
ENDBRANCH  29  30
BRANCH  29  34
HETATM   34  N8  UNL     1       1.281  18.229  82.503  1.00  0.00    -0.315 N
HETATM   35  C15 UNL     1       1.470  19.546  81.935  1.00  0.00     0.283 C
HETATM   36  O7  UNL     1       2.629  20.008  82.102  1.00  0.00    -0.265 OA
ATOM     37  H8  UNL     1       0.357  17.797  82.475  1.00  0.00     0.169 HD
BRANCH  35  38
HETATM   38  C16 UNL     1       0.408  20.200  81.226  1.00  0.00     0.183 A
HETATM   39  O8  UNL     1      -0.823  20.288  81.669  1.00  0.00    -0.279 OA
HETATM   40  C17 UNL     1      -1.842  20.840  81.061  1.00  0.00     0.197 A
HETATM   41  C18 UNL     1      -1.700  21.432  79.802  1.00  0.00     0.086 A
HETATM   42  C22 UNL     1      -0.468  21.398  79.270  1.00  0.00     0.222 A
HETATM   43  O11 UNL     1      -0.175  21.901  78.116  1.00  0.00    -0.284 OA
HETATM   44  C23 UNL     1       0.586  20.793  79.967  1.00  0.00     0.157 A
BRANCH  40  45
HETATM   45  O9  UNL     1      -3.082  20.824  81.699  1.00  0.00    -0.340 OA
ATOM     46  H9  UNL     1      -3.246  20.152  82.350  1.00  0.00     0.220 HD
ENDBRANCH  40  45
BRANCH  41  47
HETATM   47  C19 UNL     1      -2.865  21.958  79.112  1.00  0.00     0.086 C
HETATM   48  C20 UNL     1      -3.104  21.453  77.723  1.00  0.00     0.051 C
HETATM   49  C21 UNL     1      -4.181  21.826  79.872  1.00  0.00     0.051 C
BRANCH  47  50
HETATM   50  O10 UNL     1      -2.595  23.376  79.007  1.00  0.00    -0.385 OA
ATOM     51  H10 UNL     1      -3.196  23.769  79.629  1.00  0.00     0.211 HD
ENDBRANCH  47  50
ENDBRANCH  41  47
BRANCH  44  52
HETATM   52  O12 UNL     1       1.821  20.809  79.368  1.00  0.00    -0.355 OA
ATOM     53  H12 UNL     1       2.220  21.629  79.103  1.00  0.00     0.218 HD
ENDBRANCH  44  52
ENDBRANCH  35  38
ENDBRANCH  29  34
ENDBRANCH  25  28
ENDBRANCH   7  24
ENDBRANCH   1   4
TORSDOF 15
ENDMDL