MODEL 5
REMARK VINA RESULT: -8.152671724      4.346     11.016
REMARK  15 active torsions:
REMARK  status: ('A' for Active; 'I' for Inactive)
REMARK    1  A    between atoms: C2_2  and  C3_3
REMARK    2  A    between atoms: C3_3  and  N1_4
REMARK    3  A    between atoms: C5_6  and  C6_7
REMARK    4  A    between atoms: N2_8  and  O1_10
REMARK    5  A    between atoms: N5_16  and  N6_18
REMARK    6  A    between atoms: N6_18  and  C7_20
REMARK    7  A    between atoms: C7_20  and  N7_22
REMARK    8  A    between atoms: C9_27  and  C10_28
REMARK    9  A    between atoms: C10_28  and  O2_29
REMARK   10  A    between atoms: C10_28  and  C15_48
REMARK   11  A    between atoms: O2_29  and  C11_30
REMARK   12  A    between atoms: C11_30  and  C12_31
REMARK       I    between atoms: C12_31  and  N9_33
REMARK   13  A    between atoms: C14_40  and  S3_41
REMARK   14  A    between atoms: S3_41  and  N12_42
REMARK   15  A    between atoms: C15_48  and  C16_50
ROOT
HETATM    1  N7  UNL     1       2.846  16.869  84.225  1.00  0.00    -0.232 N
HETATM    2  N8  UNL     1       1.661  17.005  84.750  1.00  0.00    -0.281 N
ATOM      3  H8  UNL     1       0.796  17.046  84.211  1.00  0.00     0.188 HD
HETATM    4  C8  UNL     1       1.721  17.085  86.092  1.00  0.00     0.127 A
HETATM    5  S2  UNL     1       0.465  17.258  87.110  1.00  0.00    -0.058 SA
HETATM    6  C9  UNL     1       3.059  16.990  86.436  1.00  0.00     0.042 A
HETATM    7  C17 UNL     1       3.725  16.856  85.234  1.00  0.00     0.045 A
HETATM    8  C18 UNL     1       5.191  16.718  85.063  1.00  0.00     0.071 C
ENDROOT
BRANCH   6   9
HETATM    9  C10 UNL     1       3.658  17.027  87.818  1.00  0.00     0.241 C
BRANCH   9  10
HETATM   10  O2  UNL     1       2.900  16.321  88.719  1.00  0.00    -0.364 OA
BRANCH  10  11
HETATM   11  C11 UNL     1       3.677  15.526  89.563  1.00  0.00     0.272 C
BRANCH  11  12
HETATM   12  C12 UNL     1       3.598  14.125  89.078  1.00  0.00     0.247 C
HETATM   13  O3  UNL     1       2.802  13.781  88.154  1.00  0.00    -0.271 OA
HETATM   14  N9  UNL     1       4.420  13.092  89.632  1.00  0.00    -0.304 N
HETATM   15  C13 UNL     1       3.795  11.962  89.876  1.00  0.00     0.168 A
ATOM     16  H9  UNL     1       5.413  13.224  89.823  1.00  0.00     0.171 HD
HETATM   17  N10 UNL     1       4.308  10.838  90.389  1.00  0.00    -0.278 N
HETATM   18  S4  UNL     1       2.160  11.523  89.641  1.00  0.00    -0.020 SA
HETATM   19  N11 UNL     1       3.541   9.840  90.553  1.00  0.00    -0.281 N
ATOM     20  H10 UNL     1       5.295  10.784  90.642  1.00  0.00     0.189 HD
HETATM   21  C14 UNL     1       2.262   9.920  90.223  1.00  0.00     0.208 A
ATOM     22  H11 UNL     1       3.913   8.973  90.941  1.00  0.00     0.188 HD
BRANCH  21  23
HETATM   23  S3  UNL     1       1.030   8.655  90.370  1.00  0.00     0.280 S
HETATM   24  O4  UNL     1      -0.296   9.223  89.904  1.00  0.00    -0.199 OA
HETATM   25  O5  UNL     1       1.421   7.460  89.569  1.00  0.00    -0.199 OA
BRANCH  23  26
HETATM   26  N12 UNL     1       0.915   8.195  92.028  1.00  0.00    -0.323 N
ATOM     27 2H12 UNL     1       0.516   8.772  92.769  1.00  0.00     0.169 HD
ATOM     28 1H12 UNL     1       1.310   7.261  92.132  1.00  0.00     0.169 HD
ENDBRANCH  23  26
ENDBRANCH  21  23
ENDBRANCH  11  12
ENDBRANCH  10  11
ENDBRANCH   9  10
BRANCH   9  29
HETATM   29  C15 UNL     1       3.743  18.438  88.261  1.00  0.00     0.258 C
HETATM   30  O6  UNL     1       2.789  18.934  88.944  1.00  0.00    -0.282 OA
BRANCH  29  31
HETATM   31  C16 UNL     1       4.859  19.324  87.969  1.00  0.00     0.249 C
HETATM   32  O7  UNL     1       5.961  18.837  87.618  1.00  0.00    -0.642 OA
HETATM   33  O8  UNL     1       4.747  20.698  88.065  1.00  0.00    -0.642 OA
ENDBRANCH  29  31
ENDBRANCH   9  29
ENDBRANCH   6   9
BRANCH   1  34
HETATM   34  C7  UNL     1       3.084  16.759  82.806  1.00  0.00     0.212 C
HETATM   35  S1  UNL     1       3.042  15.293  82.099  1.00  0.00    -0.037 SA
BRANCH  34  36
HETATM   36  N6  UNL     1       3.353  17.885  82.015  1.00  0.00    -0.275 N
ATOM     37  H6  UNL     1       4.170  17.888  81.404  1.00  0.00     0.189 HD
BRANCH  36  38
HETATM   38  N5  UNL     1       2.523  18.993  82.053  1.00  0.00    -0.305 N
HETATM   39  C2  UNL     1       2.920  20.174  81.777  1.00  0.00     0.019 C
HETATM   40  C1  UNL     1       4.333  20.408  81.393  1.00  0.00     0.066 C
ATOM     41  H5  UNL     1       1.546  18.859  82.313  1.00  0.00     0.186 HD
BRANCH  39  42
HETATM   42  C3  UNL     1       1.954  21.287  81.851  1.00  0.00     0.203 C
BRANCH  42  43
HETATM   43  N1  UNL     1       1.082  21.207  80.703  1.00  0.00    -0.281 N
HETATM   44  C4  UNL     1      -0.262  21.030  80.809  1.00  0.00     0.144 A
HETATM   45  C5  UNL     1      -0.743  21.002  79.536  1.00  0.00     0.083 A
HETATM   46  N3  UNL     1       0.304  21.160  78.715  1.00  0.00    -0.283 N
HETATM   47  N4  UNL     1       1.417  21.286  79.412  1.00  0.00    -0.240 N
ATOM     48  H3  UNL     1       0.249  21.180  77.697  1.00  0.00     0.188 HD
ATOM     49  H4  UNL     1       2.355  21.417  79.035  1.00  0.00     0.208 HD
BRANCH  45  50
HETATM   50  C6  UNL     1      -2.143  20.832  79.171  1.00  0.00     0.146 C
HETATM   51  N2  UNL     1      -2.822  21.822  78.721  1.00  0.00    -0.278 N
ATOM     52  H2  UNL     1      -3.802  21.693  78.468  1.00  0.00     0.193 HD
BRANCH  51  53
HETATM   53  O1  UNL     1      -2.238  23.048  78.579  1.00  0.00    -0.290 OA
ATOM     54  H1  UNL     1      -1.505  23.162  77.986  1.00  0.00     0.244 HD
ENDBRANCH  51  53
ENDBRANCH  45  50
ENDBRANCH  42  43
ENDBRANCH  39  42
ENDBRANCH  36  38
ENDBRANCH  34  36
ENDBRANCH   1  34
TORSDOF 15
ENDMDL