MODEL 1
REMARK VINA RESULT: -9.007731552      0.000      0.000
REMARK  15 active torsions:
REMARK  status: ('A' for Active; 'I' for Inactive)
REMARK    1  A    between atoms: C2_2  and  O1_3
REMARK    2  A    between atoms: C2_2  and  C3_5
REMARK    3  A    between atoms: C2_2  and  C19_47
REMARK       I    between atoms: C3_5  and  N1_7
REMARK    4  A    between atoms: N1_7  and  C4_9
REMARK    5  A    between atoms: C6_13  and  C7_14
REMARK    6  A    between atoms: C8_17  and  C9_18
REMARK    7  A    between atoms: C9_18  and  S1_19
REMARK    8  A    between atoms: S1_19  and  C10_20
REMARK    9  A    between atoms: C11_23  and  C12_24
REMARK   10  A    between atoms: C12_24  and  C13_25
REMARK       I    between atoms: C13_25  and  N4_27
REMARK       I    between atoms: N5_29  and  C14_31
REMARK   11  A    between atoms: C14_31  and  O8_33
REMARK   12  A    between atoms: O8_33  and  N6_34
REMARK   13  A    between atoms: C15_37  and  O9_38
REMARK   14  A    between atoms: N7_40  and  C16_41
REMARK   15  A    between atoms: C16_41  and  C17_42
ROOT
HETATM    1  C9  UNL     1       1.161  17.406  84.442  1.00  0.00     0.074 C
ENDROOT
BRANCH   1   2
HETATM    2  C8  UNL     1       2.343  16.956  85.121  1.00  0.00     0.043 C
HETATM    3  C6  UNL     1       2.793  16.875  86.323  1.00  0.00     0.133 C
HETATM    4  N2  UNL     1       4.112  16.286  86.448  1.00  0.00    -0.292 N
HETATM    5  C5  UNL     1       5.225  15.546  86.935  1.00  0.00     0.251 C
HETATM    6  C18 UNL     1       4.985  16.656  85.318  1.00  0.00     0.192 C
HETATM    7  C4  UNL     1       5.911  15.538  85.607  1.00  0.00     0.211 C
HETATM    8  O3  UNL     1       5.557  15.057  88.050  1.00  0.00    -0.271 OA
HETATM    9  S2  UNL     1       3.708  16.282  84.050  1.00  0.00    -0.098 SA
BRANCH   3  10
HETATM   10  C7  UNL     1       2.210  17.455  87.539  1.00  0.00     0.228 C
HETATM   11  O4  UNL     1       1.220  16.864  88.101  1.00  0.00    -0.643 OA
HETATM   12  O5  UNL     1       2.598  18.585  88.196  1.00  0.00    -0.643 OA
ENDBRANCH   3  10
BRANCH   7  13
HETATM   13  N1  UNL     1       7.275  16.000  85.785  1.00  0.00    -0.342 N
HETATM   14  C3  UNL     1       8.143  16.267  84.704  1.00  0.00     0.259 C
HETATM   15  O2  UNL     1       7.731  16.097  83.536  1.00  0.00    -0.270 OA
ATOM     16  H1  UNL     1       7.622  16.139  86.734  1.00  0.00     0.163 HD
BRANCH  14  17
HETATM   17  C2  UNL     1       9.512  16.737  84.934  1.00  0.00     0.178 C
HETATM   18  C1  UNL     1       9.984  16.224  86.302  1.00  0.00     0.063 C
BRANCH  17  19
HETATM   19  O1  UNL     1       9.595  18.116  84.985  1.00  0.00    -0.374 OA
ATOM     20  H1  UNL     1      10.475  18.342  84.710  1.00  0.00     0.211 HD
ENDBRANCH  17  19
BRANCH  17  21
HETATM   21  C19 UNL     1      10.484  16.213  83.900  1.00  0.00     0.077 A
HETATM   22  C20 UNL     1      11.508  16.986  83.412  1.00  0.00     0.099 A
HETATM   23  S3  UNL     1      12.260  15.910  82.318  1.00  0.00    -0.009 SA
HETATM   24  N8  UNL     1      11.250  14.587  82.549  1.00  0.00    -0.270 N
HETATM   25  N9  UNL     1      10.396  15.003  83.430  1.00  0.00    -0.295 N
ATOM     26  H8  UNL     1      11.297  13.671  82.101  1.00  0.00     0.195 HD
ATOM     27  H9  UNL     1       9.655  14.382  83.755  1.00  0.00     0.187 HD
ENDBRANCH  17  21
ENDBRANCH  14  17
ENDBRANCH   7  13
ENDBRANCH   1   2
BRANCH   1  28
HETATM   28  S1  UNL     1       1.086  17.439  82.686  1.00  0.00    -0.064 SA
BRANCH  28  29
HETATM   29  C10 UNL     1       0.752  19.073  82.042  1.00  0.00     0.153 A
HETATM   30  N3  UNL     1      -0.362  19.774  82.220  1.00  0.00    -0.336 N
HETATM   31  C11 UNL     1      -0.217  20.946  81.600  1.00  0.00     0.071 A
ATOM     32  H3  UNL     1      -1.184  19.469  82.740  1.00  0.00     0.168 HD
HETATM   33  C15 UNL     1       1.048  20.976  81.010  1.00  0.00     0.168 A
HETATM   34  N7  UNL     1       1.637  19.801  81.297  1.00  0.00    -0.296 N
BRANCH  31  35
HETATM   35  C12 UNL     1      -1.184  22.060  81.508  1.00  0.00     0.166 C
BRANCH  35  36
HETATM   36  C13 UNL     1      -2.531  21.544  81.136  1.00  0.00     0.241 C
HETATM   37  O6  UNL     1      -2.574  20.570  80.330  1.00  0.00    -0.271 OA
HETATM   38  N4  UNL     1      -3.686  22.122  81.665  1.00  0.00    -0.265 N
HETATM   39  N5  UNL     1      -4.359  23.001  81.125  1.00  0.00    -0.241 N
ATOM     40  H4  UNL     1      -4.000  21.787  82.576  1.00  0.00     0.190 HD
HETATM   41  C14 UNL     1      -4.167  23.639  79.889  1.00  0.00     0.401 C
ATOM     42  H5  UNL     1      -5.174  23.311  81.653  1.00  0.00     0.192 HD
HETATM   43  O7  UNL     1      -5.153  24.083  79.213  1.00  0.00    -0.235 OA
BRANCH  41  44
HETATM   44  O8  UNL     1      -2.861  23.780  79.409  1.00  0.00    -0.187 OA
BRANCH  44  45
HETATM   45  N6  UNL     1      -2.510  22.940  78.371  1.00  0.00    -0.301 N
ATOM     46  H62 UNL     1      -2.845  23.104  77.422  1.00  0.00     0.184 HD
ATOM     47  H61 UNL     1      -1.902  22.159  78.618  1.00  0.00     0.184 HD
ENDBRANCH  44  45
ENDBRANCH  41  44
ENDBRANCH  35  36
ENDBRANCH  31  35
BRANCH  33  48
HETATM   48  O9  UNL     1       1.629  21.973  80.275  1.00  0.00    -0.344 OA
ATOM     49  H9  UNL     1       2.529  22.048  79.977  1.00  0.00     0.219 HD
ENDBRANCH  33  48
BRANCH  34  50
HETATM   50  C16 UNL     1       2.954  19.337  80.914  1.00  0.00     0.246 C
BRANCH  50  51
HETATM   51  C17 UNL     1       3.969  19.983  81.780  1.00  0.00     0.192 C
HETATM   52  O10 UNL     1       4.046  19.676  82.997  1.00  0.00    -0.647 OA
HETATM   53  O11 UNL     1       4.849  20.938  81.256  1.00  0.00    -0.647 OA
ENDBRANCH  50  51
ENDBRANCH  34  50
ENDBRANCH  28  29
ENDBRANCH   1  28
TORSDOF 15
ENDMDL