MODEL 4
REMARK VINA RESULT: -9.559404987      2.249      4.354
REMARK  13 active torsions:
REMARK  status: ('A' for Active; 'I' for Inactive)
REMARK    1  A    between atoms: S1_2  and  C2_5
REMARK    2  A    between atoms: C4_12  and  C5_13
REMARK    3  A    between atoms: C5_13  and  S2_14
REMARK    4  A    between atoms: S2_14  and  C6_17
REMARK    5  A    between atoms: N4_24  and  C11_25
REMARK    6  A    between atoms: C11_25  and  C12_26
REMARK    7  A    between atoms: C12_26  and  O5_27
REMARK    8  A    between atoms: C12_26  and  C13_29
REMARK    9  A    between atoms: C13_29  and  N5_30
REMARK   10  A    between atoms: C16_34  and  O7_35
REMARK   11  A    between atoms: O7_35  and  S3_36
REMARK   12  A    between atoms: C20_47  and  N7_48
REMARK   13  A    between atoms: N7_48  and  O13_50
ROOT
HETATM    1  C6  UNL     1       5.745  16.373  85.343  1.00  0.00     0.130 A
HETATM    2  C7  UNL     1       4.983  15.667  86.298  1.00  0.00     0.043 A
HETATM    3  C8  UNL     1       3.630  15.649  86.220  1.00  0.00     0.020 A
HETATM    4  C9  UNL     1       3.007  16.337  85.181  1.00  0.00     0.026 A
HETATM    5  C10 UNL     1       1.716  16.614  84.820  1.00  0.00     0.122 A
HETATM    6  N3  UNL     1       1.741  17.430  83.723  1.00  0.00    -0.307 N
ATOM      7  H3  UNL     1       0.911  17.795  83.254  1.00  0.00     0.186 HD
HETATM    8  N4  UNL     1       2.952  17.674  83.361  1.00  0.00    -0.273 N
HETATM    9  C18 UNL     1       3.785  17.004  84.262  1.00  0.00     0.135 A
HETATM   10  N6  UNL     1       5.110  17.007  84.359  1.00  0.00    -0.331 N
ATOM     11  H6  UNL     1       5.657  17.508  83.660  1.00  0.00     0.168 HD
ENDROOT
BRANCH   1  12
HETATM   12  S2  UNL     1       7.414  16.430  85.644  1.00  0.00     0.195 S
HETATM   13  O3  UNL     1       8.056  16.582  84.183  1.00  0.00    -0.221 OA
HETATM   14  O4  UNL     1       8.045  15.209  86.169  1.00  0.00    -0.221 OA
BRANCH  12  15
HETATM   15  C5  UNL     1       7.962  17.959  86.410  1.00  0.00     0.189 C
BRANCH  15  16
HETATM   16  C4  UNL     1       7.177  17.931  87.681  1.00  0.00     0.002 A
HETATM   17  C3  UNL     1       7.424  17.397  88.860  1.00  0.00     0.107 A
HETATM   18  N1  UNL     1       6.671  17.708  89.946  1.00  0.00    -0.331 N
HETATM   19  N2  UNL     1       8.404  16.548  88.963  1.00  0.00    -0.385 N
HETATM   20  C2  UNL     1       5.632  18.587  89.860  1.00  0.00     0.158 A
ATOM     21  H1  UNL     1       6.886  17.275  90.844  1.00  0.00     0.168 HD
HETATM   22  C20 UNL     1       5.317  19.192  88.678  1.00  0.00     0.093 A
HETATM   23  C19 UNL     1       6.086  18.862  87.594  1.00  0.00     0.046 A
ATOM     24  H22 UNL     1       8.596  16.134  89.875  1.00  0.00     0.157 HD
ATOM     25  H21 UNL     1       8.970  16.314  88.146  1.00  0.00     0.157 HD
BRANCH  20  26
HETATM   26  S1  UNL     1       4.690  18.912  91.293  1.00  0.00     0.189 S
HETATM   27  C1  UNL     1       3.171  17.975  91.271  1.00  0.00     0.168 C
HETATM   28  O1  UNL     1       5.454  18.391  92.511  1.00  0.00    -0.221 OA
HETATM   29  O2  UNL     1       4.458  20.352  91.463  1.00  0.00    -0.221 OA
ENDBRANCH  20  26
BRANCH  22  30
HETATM   30  N7  UNL     1       4.275  20.150  88.578  1.00  0.00    -0.266 N
ATOM     31  H7  UNL     1       3.300  19.882  88.450  1.00  0.00     0.194 HD
BRANCH  30  32
HETATM   32  O13 UNL     1       4.666  21.451  88.665  1.00  0.00    -0.289 OA
ATOM     33  H13 UNL     1       5.532  21.595  89.025  1.00  0.00     0.244 HD
ENDBRANCH  30  32
ENDBRANCH  22  30
ENDBRANCH  15  16
ENDBRANCH  12  15
ENDBRANCH   1  12
BRANCH   8  34
HETATM   34  C11 UNL     1       3.539  18.285  82.187  1.00  0.00     0.188 C
BRANCH  34  35
HETATM   35  C12 UNL     1       2.342  18.700  81.291  1.00  0.00     0.177 C
BRANCH  35  36
HETATM   36  O5  UNL     1       3.161  19.089  80.100  1.00  0.00    -0.389 OA
ATOM     37  H5  UNL     1       2.539  19.716  79.748  1.00  0.00     0.210 HD
ENDBRANCH  35  36
BRANCH  35  38
HETATM   38  C13 UNL     1       1.853  20.062  81.676  1.00  0.00     0.112 C
BRANCH  38  39
HETATM   39  N5  UNL     1       0.694  20.581  81.070  1.00  0.00    -0.236 N
HETATM   40  C14 UNL     1      -0.491  20.184  81.637  1.00  0.00     0.260 A
HETATM   41  O6  UNL     1      -0.502  19.481  82.670  1.00  0.00    -0.267 OA
HETATM   42  C15 UNL     1      -1.690  20.545  81.101  1.00  0.00     0.140 A
HETATM   43  C16 UNL     1      -1.744  21.320  79.958  1.00  0.00     0.215 A
HETATM   44  O11 UNL     1      -0.588  21.667  79.456  1.00  0.00    -0.236 OA
HETATM   45  C17 UNL     1       0.594  21.322  79.976  1.00  0.00     0.380 A
HETATM   46  O12 UNL     1       1.583  21.736  79.367  1.00  0.00    -0.237 OA
BRANCH  43  47
HETATM   47  O7  UNL     1      -2.920  21.705  79.381  1.00  0.00    -0.188 OA
BRANCH  47  48
HETATM   48  S3  UNL     1      -3.683  23.095  79.956  1.00  0.00     0.258 S
HETATM   49  O8  UNL     1      -4.874  23.478  79.103  1.00  0.00    -0.572 OA
HETATM   50  O9  UNL     1      -2.671  24.236  79.770  1.00  0.00    -0.572 OA
HETATM   51  O10 UNL     1      -4.100  22.997  81.555  1.00  0.00    -0.572 OA
ENDBRANCH  47  48
ENDBRANCH  43  47
ENDBRANCH  38  39
ENDBRANCH  35  38
ENDBRANCH  34  35
ENDBRANCH   8  34
TORSDOF 13
ENDMDL