MODEL 3
REMARK VINA RESULT: -7.065130798      0.817      1.873
REMARK  15 active torsions:
REMARK  status: ('A' for Active; 'I' for Inactive)
REMARK    1  A    between atoms: C2_2  and  C3_3
REMARK    2  A    between atoms: C3_3  and  C4_4
REMARK    3  A    between atoms: C4_4  and  C7_7
REMARK    4  A    between atoms: C7_7  and  C8_8
REMARK    5  A    between atoms: C8_8  and  C9_9
REMARK    6  A    between atoms: C8_8  and  C15_20
REMARK    7  A    between atoms: C10_10  and  O1_11
REMARK    8  A    between atoms: C13_16  and  C14_17
REMARK    9  A    between atoms: C14_17  and  O3_18
REMARK   10  A    between atoms: C15_20  and  N1_21
REMARK   11  A    between atoms: C15_20  and  N5_37
REMARK   12  A    between atoms: N1_21  and  C16_23
REMARK   13  A    between atoms: C18_25  and  O4_26
REMARK   14  A    between atoms: N7_44  and  O9_45
REMARK   15  A    between atoms: O9_45  and  S1_46
ROOT
HETATM    1  C15 UNL     1       5.594  15.742  87.961  1.00  0.00     0.204 C
ENDROOT
BRANCH   1   2
HETATM    2  C8  UNL     1       4.343  15.060  88.568  1.00  0.00     0.068 C
BRANCH   2   3
HETATM    3  C7  UNL     1       3.693  16.054  89.475  1.00  0.00     0.022 C
BRANCH   3   4
HETATM    4  C4  UNL     1       2.222  16.273  89.360  1.00  0.00    -0.047 C
HETATM    5  C5  UNL     1       2.090  17.802  89.162  1.00  0.00     0.015 C
HETATM    6  C6  UNL     1       1.767  15.810  87.916  1.00  0.00     0.015 C
BRANCH   4   7
HETATM    7  C3  UNL     1       1.264  15.794  90.321  1.00  0.00     0.008 C
BRANCH   7   8
HETATM    8  C2  UNL     1      -0.114  15.383  89.890  1.00  0.00    -0.004 C
HETATM    9  C1  UNL     1      -1.263  16.244  90.274  1.00  0.00     0.005 C
ENDBRANCH   7   8
ENDBRANCH   4   7
ENDBRANCH   3   4
ENDBRANCH   2   3
BRANCH   2  10
HETATM   10  C9  UNL     1       4.668  13.760  89.113  1.00  0.00     0.019 A
HETATM   11  C10 UNL     1       5.860  13.382  89.710  1.00  0.00     0.191 A
HETATM   12  O2  UNL     1       5.743  12.177  90.203  1.00  0.00    -0.292 OA
HETATM   13  C11 UNL     1       4.546  11.714  89.976  1.00  0.00     0.061 A
HETATM   14  C12 UNL     1       4.027  10.360  90.390  1.00  0.00     0.077 C
HETATM   15  C13 UNL     1       3.823  12.672  89.293  1.00  0.00     0.006 A
BRANCH  11  16
HETATM   16  O1  UNL     1       7.073  14.115  89.810  1.00  0.00    -0.340 OA
ATOM     17  H1  UNL     1       7.915  13.923  89.417  1.00  0.00     0.220 HD
ENDBRANCH  11  16
BRANCH  15  18
HETATM   18  C14 UNL     1       2.428  12.575  88.910  1.00  0.00     0.206 C
BRANCH  18  19
HETATM   19  O3  UNL     1       2.255  11.871  87.688  1.00  0.00    -0.396 OA
ATOM     20  H3  UNL     1       1.343  11.668  87.518  1.00  0.00     0.209 HD
ENDBRANCH  18  19
ENDBRANCH  15  18
ENDBRANCH   2  10
ENDBRANCH   1   2
BRANCH   1  21
HETATM   21  N1  UNL     1       5.594  17.145  88.340  1.00  0.00    -0.377 N
ATOM     22  H1  UNL     1       4.712  17.640  88.476  1.00  0.00     0.157 HD
BRANCH  21  23
HETATM   23  C16 UNL     1       6.801  17.807  88.516  1.00  0.00     0.225 C
HETATM   24  C17 UNL     1       6.694  19.099  87.653  1.00  0.00     0.083 C
HETATM   25  C18 UNL     1       5.491  19.917  88.054  1.00  0.00     0.142 C
HETATM   26  C19 UNL     1       5.157  19.801  89.520  1.00  0.00     0.186 C
HETATM   27  N2  UNL     1       6.286  19.286  90.279  1.00  0.00    -0.232 N
HETATM   28  C20 UNL     1       6.714  19.658  91.492  1.00  0.00     0.333 A
HETATM   29  N4  UNL     1       7.085  18.359  89.840  1.00  0.00    -0.200 N
HETATM   30  O5  UNL     1       6.233  20.529  92.281  1.00  0.00    -0.260 OA
HETATM   31  C21 UNL     1       7.827  18.906  91.776  1.00  0.00     0.332 A
HETATM   32  O6  UNL     1       8.541  18.947  92.832  1.00  0.00    -0.260 OA
HETATM   33  N3  UNL     1       8.026  18.109  90.720  1.00  0.00    -0.238 N
HETATM   34  C22 UNL     1       9.145  17.157  90.631  1.00  0.00     0.183 C
BRANCH  25  35
HETATM   35  O4  UNL     1       4.404  19.627  87.243  1.00  0.00    -0.394 OA
ATOM     36  H4  UNL     1       4.333  20.256  86.534  1.00  0.00     0.210 HD
ENDBRANCH  25  35
ENDBRANCH  21  23
ENDBRANCH   1  21
BRANCH   1  37
HETATM   37  N5  UNL     1       5.771  15.601  86.551  1.00  0.00    -0.227 N
HETATM   38  C23 UNL     1       6.722  14.794  86.017  1.00  0.00     0.336 A
HETATM   39  O7  UNL     1       7.527  14.148  86.737  1.00  0.00    -0.246 OA
HETATM   40  N6  UNL     1       6.881  14.627  84.694  1.00  0.00    -0.258 N
HETATM   41  C24 UNL     1       6.096  15.257  83.825  1.00  0.00     0.360 A
ATOM     42  H6  UNL     1       7.615  14.007  84.350  1.00  0.00     0.175 HD
HETATM   43  O8  UNL     1       6.229  15.111  82.559  1.00  0.00    -0.244 OA
HETATM   44  N7  UNL     1       5.142  16.063  84.307  1.00  0.00    -0.096 N
HETATM   45  C25 UNL     1       4.995  16.221  85.645  1.00  0.00     0.364 A
HETATM   46  O13 UNL     1       4.058  17.002  85.958  1.00  0.00    -0.244 OA
BRANCH  44  47
HETATM   47  O9  UNL     1       4.340  16.703  83.389  1.00  0.00    -0.116 OA
BRANCH  47  48
HETATM   48  S1  UNL     1       2.928  16.034  82.732  1.00  0.00     0.274 S
HETATM   49  O10 UNL     1       2.365  17.006  81.743  1.00  0.00    -0.571 OA
HETATM   50  O11 UNL     1       1.956  15.765  83.858  1.00  0.00    -0.571 OA
HETATM   51  O12 UNL     1       3.298  14.547  82.041  1.00  0.00    -0.571 OA
ENDBRANCH  47  48
ENDBRANCH  44  47
ENDBRANCH   1  37
TORSDOF 15
ENDMDL