MODEL 3
REMARK VINA RESULT: -7.275796326      2.862      7.781
REMARK  19 active torsions:
REMARK  status: ('A' for Active; 'I' for Inactive)
REMARK    1  A    between atoms: C3_3  and  C5_5
REMARK    2  A    between atoms: C5_5  and  O2_7
REMARK    3  A    between atoms: O2_7  and  C6_8
REMARK    4  A    between atoms: C6_8  and  C7_9
REMARK    5  A    between atoms: C6_8  and  S1_26
REMARK    6  A    between atoms: C7_9  and  C8_10
REMARK    7  A    between atoms: C7_9  and  O5_22
REMARK    8  A    between atoms: N1_11  and  N2_13
REMARK       I    between atoms: N2_13  and  C9_15
REMARK    9  A    between atoms: C9_15  and  O4_17
REMARK   10  A    between atoms: O4_17  and  C10_18
REMARK   11  A    between atoms: O5_22  and  C14_23
REMARK   12  A    between atoms: S1_26  and  N3_29
REMARK   13  A    between atoms: N3_29  and  C16_31
REMARK   14  A    between atoms: C16_31  and  C17_32
REMARK   15  A    between atoms: C17_32  and  O9_33
REMARK   16  A    between atoms: N4_36  and  O10_38
REMARK   17  A    between atoms: O10_38  and  C19_39
REMARK   18  A    between atoms: C20_45  and  S2_46
REMARK   19  A    between atoms: C22_50  and  O14_51
ROOT
HETATM    1  S1  UNL     1       5.924  16.257  84.560  1.00  0.00     0.258 S
HETATM    2  O7  UNL     1       6.126  14.764  84.214  1.00  0.00    -0.203 OA
HETATM    3  O8  UNL     1       6.010  16.887  83.150  1.00  0.00    -0.203 OA
ENDROOT
BRANCH   1   4
HETATM    4  C6  UNL     1       4.284  16.463  85.187  1.00  0.00     0.308 C
BRANCH   4   5
HETATM    5  O2  UNL     1       3.326  15.618  84.576  1.00  0.00    -0.292 OA
BRANCH   5   6
HETATM    6  C5  UNL     1       2.660  15.904  83.423  1.00  0.00     0.290 C
HETATM    7  O1  UNL     1       2.900  15.146  82.433  1.00  0.00    -0.260 OA
BRANCH   6   8
HETATM    8  C3  UNL     1       1.712  16.973  83.193  1.00  0.00     0.009 C
HETATM    9  C2  UNL     1       0.547  16.947  83.816  1.00  0.00    -0.018 C
HETATM   10  C1  UNL     1      -0.497  17.986  83.674  1.00  0.00     0.036 C
HETATM   11  C4  UNL     1       2.050  18.102  82.274  1.00  0.00     0.054 C
ENDBRANCH   6   8
ENDBRANCH   5   6
ENDBRANCH   4   5
BRANCH   4  12
HETATM   12  C7  UNL     1       4.191  16.584  86.667  1.00  0.00     0.218 C
BRANCH  12  13
HETATM   13  C8  UNL     1       3.161  17.649  87.029  1.00  0.00     0.116 C
HETATM   14  N1  UNL     1       3.213  18.126  88.183  1.00  0.00    -0.309 N
ATOM     15  H1  UNL     1       3.975  17.708  88.718  1.00  0.00     0.185 HD
BRANCH  14  16
HETATM   16  N2  UNL     1       2.550  19.035  88.919  1.00  0.00    -0.246 N
HETATM   17  C9  UNL     1       2.114  18.809  90.245  1.00  0.00     0.380 C
HETATM   18  O3  UNL     1       2.337  17.715  90.809  1.00  0.00    -0.237 OA
ATOM     19  H2  UNL     1       2.351  19.942  88.496  1.00  0.00     0.192 HD
BRANCH  17  20
HETATM   20  O4  UNL     1       1.444  19.771  90.934  1.00  0.00    -0.293 OA
BRANCH  20  21
HETATM   21  C10 UNL     1       1.964  20.762  91.759  1.00  0.00     0.061 C
HETATM   22  C11 UNL     1       0.773  21.345  92.540  1.00  0.00     0.046 C
HETATM   23  C12 UNL     1       2.571  21.924  91.021  1.00  0.00     0.046 C
HETATM   24  C13 UNL     1       2.976  20.251  92.752  1.00  0.00     0.046 C
ENDBRANCH  20  21
ENDBRANCH  17  20
ENDBRANCH  14  16
ENDBRANCH  12  13
BRANCH  12  25
HETATM   25  O5  UNL     1       3.613  15.368  87.182  1.00  0.00    -0.307 OA
BRANCH  25  26
HETATM   26  C14 UNL     1       4.093  14.831  88.381  1.00  0.00     0.255 C
HETATM   27  C15 UNL     1       3.943  13.378  88.547  1.00  0.00     0.126 C
HETATM   28  O6  UNL     1       4.602  15.626  89.196  1.00  0.00    -0.266 OA
ENDBRANCH  25  26
ENDBRANCH  12  25
ENDBRANCH   4  12
ENDBRANCH   1   4
BRANCH   1  29
HETATM   29  N3  UNL     1       7.147  16.882  85.455  1.00  0.00    -0.295 N
ATOM     30  H3  UNL     1       7.405  17.839  85.217  1.00  0.00     0.173 HD
BRANCH  29  31
HETATM   31  C16 UNL     1       7.876  16.326  86.470  1.00  0.00     0.157 C
HETATM   32  C18 UNL     1       7.895  17.334  87.623  1.00  0.00     0.174 C
HETATM   33  N4  UNL     1       7.054  17.347  88.590  1.00  0.00    -0.237 N
HETATM   34  O11 UNL     1       8.944  18.179  87.419  1.00  0.00    -0.312 OA
ATOM     35  H4  UNL     1       6.312  16.648  88.619  1.00  0.00     0.197 HD
HETATM   36  C20 UNL     1      10.002  17.453  86.800  1.00  0.00     0.283 C
HETATM   37  C22 UNL     1       9.370  16.228  86.201  1.00  0.00     0.201 C
BRANCH  31  38
HETATM   38  C17 UNL     1       7.342  15.082  87.097  1.00  0.00     0.207 C
BRANCH  38  39
HETATM   39  O9  UNL     1       7.608  13.946  86.312  1.00  0.00    -0.398 OA
ATOM     40  H9  UNL     1       8.274  13.394  86.706  1.00  0.00     0.209 HD
ENDBRANCH  38  39
ENDBRANCH  31  38
BRANCH  33  41
HETATM   41  O10 UNL     1       7.137  18.284  89.587  1.00  0.00    -0.203 OA
BRANCH  41  42
HETATM   42  C19 UNL     1       5.983  18.785  90.208  1.00  0.00     0.249 C
HETATM   43  N5  UNL     1       5.461  17.991  91.113  1.00  0.00    -0.366 N
ATOM     44  H52 UNL     1       5.898  17.091  91.312  1.00  0.00     0.159 HD
ATOM     45  H51 UNL     1       4.622  18.355  91.564  1.00  0.00     0.159 HD
HETATM   46  N6  UNL     1       5.384  20.019  89.935  1.00  0.00    -0.055 NA
ENDBRANCH  41  42
ENDBRANCH  33  41
BRANCH  36  47
HETATM   47  S2  UNL     1      10.747  18.535  85.626  1.00  0.00     0.171 S
HETATM   48  C21 UNL     1      12.491  18.689  85.827  1.00  0.00     0.164 C
HETATM   49  O12 UNL     1      10.101  19.900  85.812  1.00  0.00    -0.226 OA
HETATM   50  O13 UNL     1      10.425  18.109  84.222  1.00  0.00    -0.226 OA
ENDBRANCH  36  47
BRANCH  37  51
HETATM   51  O14 UNL     1       9.959  15.110  86.723  1.00  0.00    -0.389 OA
ATOM     52  H14 UNL     1      10.263  14.491  86.070  1.00  0.00     0.210 HD
ENDBRANCH  37  51
ENDBRANCH  29  31
ENDBRANCH   1  29
TORSDOF 19
ENDMDL