MODEL 5
REMARK VINA RESULT: -7.699828375      1.452      1.792
REMARK  16 active torsions:
REMARK  status: ('A' for Active; 'I' for Inactive)
REMARK    1  A    between atoms: C3_5  and  S1_6
REMARK    2  A    between atoms: S1_6  and  C4_7
REMARK    3  A    between atoms: C4_7  and  C5_8
REMARK    4  A    between atoms: C5_8  and  O1_9
REMARK    5  A    between atoms: C5_8  and  C6_11
REMARK    6  A    between atoms: C6_11  and  O2_12
REMARK    7  A    between atoms: C6_11  and  N2_14
REMARK    8  A    between atoms: C8_17  and  N3_18
REMARK       I    between atoms: N3_18  and  C9_20
REMARK    9  A    between atoms: C9_20  and  C10_22
REMARK   10  A    between atoms: C10_22  and  S2_23
REMARK   11  A    between atoms: S2_23  and  C11_24
REMARK   12  A    between atoms: C15_36  and  C16_37
REMARK   13  A    between atoms: C16_37  and  O4_38
REMARK   14  A    between atoms: C17_40  and  C18_41
REMARK   15  A    between atoms: C19_45  and  O7_46
REMARK   16  A    between atoms: C20_48  and  C21_49
ROOT
HETATM    1  N2  UNL     1       4.580  16.388  84.571  1.00  0.00    -0.363 N
ATOM      2  H2  UNL     1       5.023  15.548  84.198  1.00  0.00     0.162 HD
HETATM    3  C7  UNL     1       4.781  16.653  85.784  1.00  0.00     0.059 C
HETATM    4  C8  UNL     1       5.600  15.864  86.718  1.00  0.00     0.167 C
HETATM    5  C13 UNL     1       5.080  16.232  88.074  1.00  0.00     0.178 C
HETATM    6  S3  UNL     1       4.367  14.791  88.924  1.00  0.00    -0.137 SA
HETATM    7  C14 UNL     1       2.576  14.961  88.696  1.00  0.00     0.115 C
HETATM    8  C15 UNL     1       2.213  16.345  89.242  1.00  0.00    -0.014 C
HETATM    9  C17 UNL     1       2.920  17.368  88.778  1.00  0.00     0.116 C
HETATM   10  N8  UNL     1       3.999  17.173  87.827  1.00  0.00    -0.328 N
HETATM   11  C19 UNL     1       4.248  17.808  86.537  1.00  0.00     0.270 C
ENDROOT
BRANCH   1  12
HETATM   12  C6  UNL     1       3.794  17.152  83.684  1.00  0.00     0.247 C
BRANCH  12  13
HETATM   13  C5  UNL     1       3.193  16.279  82.603  1.00  0.00     0.176 C
BRANCH  13  14
HETATM   14  C4  UNL     1       2.580  17.146  81.496  1.00  0.00     0.117 C
BRANCH  14  15
HETATM   15  S1  UNL     1       2.511  18.843  82.177  1.00  0.00    -0.107 SA
BRANCH  15  16
HETATM   16  C3  UNL     1       0.962  19.538  81.626  1.00  0.00     0.095 A
HETATM   17  N1  UNL     1       0.847  20.248  80.480  1.00  0.00    -0.351 N
HETATM   18  C2  UNL     1      -0.333  20.763  80.090  1.00  0.00     0.028 A
ATOM     19  H1  UNL     1       1.673  20.397  79.899  1.00  0.00     0.166 HD
HETATM   20  C1  UNL     1      -0.484  21.554  78.822  1.00  0.00     0.070 C
HETATM   21  C23 UNL     1      -1.432  20.545  80.892  1.00  0.00     0.028 A
HETATM   22  N9  UNL     1      -1.348  19.832  82.053  1.00  0.00    -0.357 N
HETATM   23  C24 UNL     1      -2.740  21.110  80.467  1.00  0.00     0.070 C
HETATM   24  C20 UNL     1      -0.148  19.332  82.413  1.00  0.00     0.074 A
ATOM     25  H9  UNL     1      -2.174  19.682  82.634  1.00  0.00     0.166 HD
BRANCH  24  26
HETATM   26  C21 UNL     1      -0.014  18.555  83.662  1.00  0.00     0.197 A
HETATM   27  C22 UNL     1      -0.741  17.281  83.763  1.00  0.00     0.207 A
HETATM   28  O8  UNL     1      -1.102  18.455  84.521  1.00  0.00    -0.375 OA
ENDBRANCH  24  26
ENDBRANCH  15  16
ENDBRANCH  14  15
ENDBRANCH  13  14
BRANCH  13  29
HETATM   29  O1  UNL     1       2.140  15.516  83.103  1.00  0.00    -0.390 OA
ATOM     30  H1  UNL     1       2.403  15.270  83.982  1.00  0.00     0.210 HD
ENDBRANCH  13  29
ENDBRANCH  12  13
BRANCH  12  31
HETATM   31  O2  UNL     1       4.705  18.004  83.005  1.00  0.00    -0.374 OA
ATOM     32  H2  UNL     1       4.163  18.546  82.445  1.00  0.00     0.212 HD
ENDBRANCH  12  31
ENDBRANCH   1  12
BRANCH   4  33
HETATM   33  N3  UNL     1       6.981  16.290  86.583  1.00  0.00    -0.348 N
HETATM   34  C9  UNL     1       8.077  15.422  86.758  1.00  0.00     0.228 C
HETATM   35  O3  UNL     1       7.926  14.194  87.051  1.00  0.00    -0.273 OA
ATOM     36  H3  UNL     1       7.167  17.266  86.349  1.00  0.00     0.163 HD
BRANCH  34  37
HETATM   37  C10 UNL     1       9.453  15.906  86.607  1.00  0.00     0.185 C
BRANCH  37  38
HETATM   38  S2  UNL     1       9.710  16.879  85.125  1.00  0.00    -0.082 SA
BRANCH  38  39
HETATM   39  C11 UNL     1      10.522  15.968  83.837  1.00  0.00     0.178 A
HETATM   40  N4  UNL     1      10.106  14.825  83.294  1.00  0.00    -0.263 N
HETATM   41  N5  UNL     1      10.984  14.476  82.379  1.00  0.00    -0.226 N
ATOM     42  H4  UNL     1       9.260  14.313  83.542  1.00  0.00     0.190 HD
HETATM   43  N6  UNL     1      11.925  15.384  82.355  1.00  0.00    -0.224 N
ATOM     44  H5  UNL     1      10.940  13.644  81.792  1.00  0.00     0.210 HD
HETATM   45  N7  UNL     1      11.669  16.328  83.251  1.00  0.00    -0.259 N
ATOM     46  H6  UNL     1      12.737  15.369  81.737  1.00  0.00     0.210 HD
HETATM   47  C12 UNL     1      12.502  17.504  83.507  1.00  0.00     0.181 C
ENDBRANCH  38  39
ENDBRANCH  37  38
ENDBRANCH  34  37
ENDBRANCH   4  33
BRANCH  11  48
HETATM   48  O7  UNL     1       5.231  18.783  86.742  1.00  0.00    -0.371 OA
ATOM     49  H7  UNL     1       5.362  18.954  87.667  1.00  0.00     0.212 HD
ENDBRANCH  11  48
BRANCH   9  50
HETATM   50  C18 UNL     1       2.691  18.747  89.191  1.00  0.00     0.227 C
HETATM   51  O5  UNL     1       3.646  19.538  89.355  1.00  0.00    -0.643 OA
HETATM   52  O6  UNL     1       1.449  19.268  89.421  1.00  0.00    -0.643 OA
ENDBRANCH   9  50
BRANCH   8  53
HETATM   53  C16 UNL     1       1.169  16.421  90.247  1.00  0.00     0.201 C
BRANCH  53  54
HETATM   54  O4  UNL     1      -0.101  16.643  89.669  1.00  0.00    -0.397 OA
ATOM     55  H4  UNL     1      -0.745  16.901  90.319  1.00  0.00     0.209 HD
ENDBRANCH  53  54
ENDBRANCH   8  53
TORSDOF 16
ENDMDL