MODEL 2
REMARK VINA RESULT: -9.210327437      3.193      6.817
REMARK  18 active torsions:
REMARK  status: ('A' for Active; 'I' for Inactive)
REMARK    1  A    between atoms: C2_2  and  O1_3
REMARK    2  A    between atoms: O1_3  and  C3_4
REMARK    3  A    between atoms: C3_4  and  C4_6
REMARK    4  A    between atoms: C5_7  and  C6_8
REMARK    5  A    between atoms: C6_8  and  O4_10
REMARK    6  A    between atoms: O4_10  and  C7_11
REMARK    7  A    between atoms: C7_11  and  C8_12
REMARK    8  A    between atoms: C10_16  and  N2_17
REMARK    9  A    between atoms: N2_17  and  C11_19
REMARK   10  A    between atoms: C12_22  and  O5_23
REMARK   11  A    between atoms: C18_37  and  O9_38
REMARK   12  A    between atoms: O9_38  and  C19_39
REMARK   13  A    between atoms: C19_39  and  C20_40
REMARK   14  A    between atoms: C20_40  and  O10_41
REMARK   15  A    between atoms: C21_43  and  O11_44
REMARK   16  A    between atoms: C22_46  and  C23_47
REMARK   17  A    between atoms: C23_47  and  C24_48
REMARK   18  A    between atoms: C25_51  and  O14_52
ROOT
HETATM    1  C8  UNL     1       2.952  17.282  82.622  1.00  0.00     0.122 C
HETATM    2  C9  UNL     1       2.768  17.933  81.316  1.00  0.00     0.154 C
HETATM    3  N1  UNL     1       1.888  19.083  81.451  1.00  0.00    -0.223 N
ATOM      4  H1  UNL     1       2.035  19.896  80.852  1.00  0.00     0.177 HD
HETATM    5  C10 UNL     1       0.934  19.100  82.302  1.00  0.00     0.711 C
HETATM    6  N5  UNL     1       0.679  18.028  83.229  1.00  0.00    -0.046 N
HETATM    7  C15 UNL     1      -0.378  18.079  84.110  1.00  0.00     0.206 C
HETATM    8  N6  UNL     1      -1.248  18.100  84.841  1.00  0.00    -0.171 NA
HETATM    9  C16 UNL     1       1.583  16.936  83.133  1.00  0.00     0.261 C
HETATM   10  O7  UNL     1       1.207  15.804  83.464  1.00  0.00    -0.271 OA
ENDROOT
BRANCH   5  11
HETATM   11  N2  UNL     1       0.119  20.284  82.352  1.00  0.00    -0.021 N
ATOM     12  H2  UNL     1       0.062  20.837  83.207  1.00  0.00     0.203 HD
BRANCH  11  13
HETATM   13  C11 UNL     1      -0.536  20.634  81.305  1.00  0.00     0.701 A
HETATM   14  N3  UNL     1       0.058  20.998  80.159  1.00  0.00    -0.170 N
HETATM   15  C12 UNL     1      -0.692  21.351  79.104  1.00  0.00     0.160 A
ATOM     16  H3  UNL     1       1.075  21.006  80.089  1.00  0.00     0.186 HD
HETATM   17  C13 UNL     1      -2.071  21.350  79.167  1.00  0.00     0.131 A
HETATM   18  C14 UNL     1      -2.664  20.979  80.336  1.00  0.00     0.263 A
HETATM   19  O6  UNL     1      -3.935  20.962  80.443  1.00  0.00    -0.268 OA
HETATM   20  N4  UNL     1      -1.891  20.634  81.365  1.00  0.00    -0.155 N
ATOM     21  H4  UNL     1      -2.338  20.356  82.238  1.00  0.00     0.187 HD
BRANCH  15  22
HETATM   22  O5  UNL     1      -0.112  21.738  77.889  1.00  0.00    -0.346 OA
ATOM     23  H5  UNL     1      -0.434  21.408  77.058  1.00  0.00     0.219 HD
ENDBRANCH  15  22
ENDBRANCH  11  13
ENDBRANCH   5  11
BRANCH   1  24
HETATM   24  C7  UNL     1       3.914  16.185  82.793  1.00  0.00     0.195 C
BRANCH  24  25
HETATM   25  O4  UNL     1       5.231  16.380  83.033  1.00  0.00    -0.315 OA
BRANCH  25  26
HETATM   26  C6  UNL     1       6.181  15.655  83.723  1.00  0.00     0.318 C
HETATM   27  O3  UNL     1       6.284  14.486  83.380  1.00  0.00    -0.257 OA
BRANCH  26  28
HETATM   28  C5  UNL     1       6.972  16.306  84.776  1.00  0.00     0.171 A
HETATM   29  C4  UNL     1       6.466  16.498  86.027  1.00  0.00     0.130 A
HETATM   30  C27 UNL     1       7.361  17.139  86.910  1.00  0.00     0.207 A
HETATM   31  C26 UNL     1       8.619  17.527  86.526  1.00  0.00     0.086 A
HETATM   32  O15 UNL     1       6.974  17.357  88.090  1.00  0.00    -0.286 OA
HETATM   33  C17 UNL     1       9.032  17.289  85.245  1.00  0.00     0.129 A
HETATM   34  C25 UNL     1       9.484  18.162  87.426  1.00  0.00     0.092 A
HETATM   35  O8  UNL     1       8.207  16.697  84.432  1.00  0.00    -0.299 OA
HETATM   36  C18 UNL     1      10.317  17.675  84.822  1.00  0.00     0.137 A
HETATM   37  C21 UNL     1      11.149  18.300  85.742  1.00  0.00     0.111 A
HETATM   38  C22 UNL     1      10.744  18.550  87.044  1.00  0.00     0.022 A
BRANCH  29  39
HETATM   39  C3  UNL     1       5.160  16.107  86.495  1.00  0.00     0.300 C
HETATM   40  O2  UNL     1       4.736  15.110  87.065  1.00  0.00    -0.259 OA
BRANCH  39  41
HETATM   41  O1  UNL     1       4.138  17.060  86.251  1.00  0.00    -0.318 OA
BRANCH  41  42
HETATM   42  C2  UNL     1       3.274  17.467  87.324  1.00  0.00     0.174 C
HETATM   43  C1  UNL     1       1.891  17.076  86.889  1.00  0.00     0.034 C
ENDBRANCH  41  42
ENDBRANCH  39  41
ENDBRANCH  29  39
BRANCH  36  44
HETATM   44  O9  UNL     1      10.657  17.404  83.546  1.00  0.00    -0.344 OA
BRANCH  44  45
HETATM   45  C19 UNL     1      11.605  16.511  83.107  1.00  0.00     0.201 C
BRANCH  45  46
HETATM   46  C20 UNL     1      11.168  15.083  83.182  1.00  0.00     0.190 C
BRANCH  46  47
HETATM   47  O10 UNL     1       9.835  14.980  82.878  1.00  0.00    -0.399 OA
ATOM     48  H10 UNL     1       9.387  14.464  83.538  1.00  0.00     0.209 HD
ENDBRANCH  46  47
ENDBRANCH  45  46
ENDBRANCH  44  45
ENDBRANCH  36  44
BRANCH  37  49
HETATM   49  O11 UNL     1      12.412  18.693  85.403  1.00  0.00    -0.357 OA
ATOM     50  H11 UNL     1      13.176  18.247  85.748  1.00  0.00     0.217 HD
ENDBRANCH  37  49
BRANCH  38  51
HETATM   51  C23 UNL     1      11.658  19.212  87.971  1.00  0.00     0.157 C
BRANCH  51  52
HETATM   52  C24 UNL     1      11.510  20.667  88.025  1.00  0.00     0.177 C
HETATM   53  O12 UNL     1      11.221  21.228  89.102  1.00  0.00    -0.648 OA
HETATM   54  O13 UNL     1      11.689  21.427  86.889  1.00  0.00    -0.648 OA
ENDBRANCH  51  52
ENDBRANCH  38  51
BRANCH  34  55
HETATM   55  O14 UNL     1       8.982  18.360  88.691  1.00  0.00    -0.359 OA
ATOM     56  H14 UNL     1       8.060  18.277  88.907  1.00  0.00     0.217 HD
ENDBRANCH  34  55
ENDBRANCH  26  28
ENDBRANCH  25  26
ENDBRANCH  24  25
ENDBRANCH   1  24
TORSDOF 18
ENDMDL