MODEL 3
REMARK VINA RESULT: -6.485247767      3.016      6.356
REMARK  7 active torsions:
REMARK  status: ('A' for Active; 'I' for Inactive)
REMARK    1  A    between atoms: C2_3  and  N2_4
REMARK    2  A    between atoms: C2_3  and  C3_8
REMARK    3  A    between atoms: C4_13  and  S1_14
REMARK    4  A    between atoms: S1_14  and  C5_15
REMARK    5  A    between atoms: C5_15  and  C6_16
REMARK    6  A    between atoms: C6_16  and  C7_18
REMARK    7  A    between atoms: C8_19  and  O2_20
ROOT
HETATM    1  N1  UNL     1      52.169  20.821  31.023  1.00  0.00    -0.195 NA
HETATM    2  C1  UNL     1      51.202  20.242  31.279  1.00  0.00     0.100 C
HETATM    3  C2  UNL     1      49.969  19.530  31.600  1.00  0.00     0.357 C
ENDROOT
BRANCH   3   4
HETATM    4  N2  UNL     1      48.860  20.499  31.595  1.00  0.00    -0.056 N
ATOM      5  H23 UNL     1      47.946  20.050  31.658  1.00  0.00     0.276 HD
ATOM      6  H22 UNL     1      48.808  21.041  32.458  1.00  0.00     0.276 HD
ATOM      7  H21 UNL     1      48.952  21.088  30.767  1.00  0.00     0.276 HD
ENDBRANCH   3   4
BRANCH   3   8
HETATM    8  C3  UNL     1      50.064  18.960  32.978  1.00  0.00     0.143 A
HETATM    9  N3  UNL     1      48.997  18.589  33.706  1.00  0.00    -0.284 N
HETATM   10  N4  UNL     1      49.460  18.134  34.858  1.00  0.00    -0.278 N
ATOM     11  H3  UNL     1      48.018  18.646  33.424  1.00  0.00     0.188 HD
HETATM   12  C4  UNL     1      50.805  18.210  34.876  1.00  0.00     0.160 A
ATOM     13  H4  UNL     1      48.885  17.779  35.621  1.00  0.00     0.189 HD
HETATM   14  N7  UNL     1      51.180  18.725  33.702  1.00  0.00    -0.322 N
ATOM     15  H7  UNL     1      52.138  18.908  33.405  1.00  0.00     0.169 HD
BRANCH  12  16
HETATM   16  S1  UNL     1      51.860  17.700  36.252  1.00  0.00    -0.085 SA
BRANCH  16  17
HETATM   17  C5  UNL     1      52.086  19.173  37.285  1.00  0.00     0.166 C
BRANCH  17  18
HETATM   18  C6  UNL     1      53.338  19.882  37.056  1.00  0.00     0.178 C
HETATM   19  O1  UNL     1      53.826  20.551  38.024  1.00  0.00    -0.291 OA
BRANCH  18  20
HETATM   20  C7  UNL     1      54.075  19.886  35.808  1.00  0.00     0.129 A
HETATM   21  C8  UNL     1      55.227  19.172  35.585  1.00  0.00     0.163 A
HETATM   22  N5  UNL     1      55.899  19.177  34.402  1.00  0.00    -0.288 N
HETATM   23  C9  UNL     1      55.424  19.913  33.390  1.00  0.00     0.329 A
ATOM     24  H5  UNL     1      56.751  18.628  34.288  1.00  0.00     0.172 HD
HETATM   25  O3  UNL     1      55.969  19.986  32.258  1.00  0.00    -0.247 OA
HETATM   26  N6  UNL     1      54.289  20.630  33.578  1.00  0.00    -0.275 N
HETATM   27  C10 UNL     1      53.616  20.639  34.730  1.00  0.00     0.267 A
ATOM     28  H6  UNL     1      53.933  21.190  32.803  1.00  0.00     0.173 HD
HETATM   29  O4  UNL     1      52.567  21.303  34.899  1.00  0.00    -0.267 OA
BRANCH  21  30
HETATM   30  O2  UNL     1      55.779  18.390  36.581  1.00  0.00    -0.345 OA
ATOM     31  H2  UNL     1      55.599  17.458  36.624  1.00  0.00     0.219 HD
ENDBRANCH  21  30
ENDBRANCH  18  20
ENDBRANCH  17  18
ENDBRANCH  16  17
ENDBRANCH  12  16
ENDBRANCH   3   8
TORSDOF 7
ENDMDL