MODEL 2
REMARK VINA RESULT: -7.136475020      1.576      1.975
REMARK  6 active torsions:
REMARK  status: ('A' for Active; 'I' for Inactive)
REMARK       I    between atoms: N1_2  and  C2_4
REMARK    1  A    between atoms: C2_4  and  C3_6
REMARK    2  A    between atoms: C4_7  and  C5_8
REMARK    3  A    between atoms: N6_20  and  C8_21
REMARK    4  A    between atoms: C8_21  and  C9_22
REMARK    5  A    between atoms: C9_22  and  O3_24
REMARK    6  A    between atoms: C9_22  and  C11_26
ROOT
HETATM    1  C3  UNL     1      51.099  19.522  33.213  1.00  0.00     0.149 A
HETATM    2  C4  UNL     1      50.428  18.595  33.952  1.00  0.00     0.104 A
HETATM    3  N4  UNL     1      49.097  18.752  33.593  1.00  0.00    -0.282 N
ATOM      4  H4  UNL     1      48.322  18.203  33.964  1.00  0.00     0.188 HD
HETATM    5  N5  UNL     1      48.985  19.698  32.720  1.00  0.00    -0.239 N
ATOM      6  H5  UNL     1      48.115  20.016  32.294  1.00  0.00     0.208 HD
HETATM    7  N6  UNL     1      50.187  20.184  32.474  1.00  0.00    -0.267 N
ENDROOT
BRANCH   2   8
HETATM    8  C5  UNL     1      50.828  17.711  35.052  1.00  0.00     0.082 A
HETATM    9  S1  UNL     1      52.277  17.916  35.993  1.00  0.00    -0.023 SA
HETATM   10  C6  UNL     1      52.151  16.508  36.943  1.00  0.00     0.290 A
HETATM   11  O2  UNL     1      52.940  16.083  37.858  1.00  0.00    -0.260 OA
HETATM   12  N2  UNL     1      51.024  15.949  36.505  1.00  0.00    -0.305 N
HETATM   13  C7  UNL     1      50.355  16.549  35.552  1.00  0.00     0.139 A
ATOM     14  H2  UNL     1      50.689  15.072  36.904  1.00  0.00     0.171 HD
HETATM   15  N3  UNL     1      49.163  15.900  34.997  1.00  0.00    -0.081 NA
ENDBRANCH   2   8
BRANCH   1  16
HETATM   16  C2  UNL     1      52.567  19.624  33.051  1.00  0.00     0.271 C
HETATM   17  N1  UNL     1      53.232  20.711  33.717  1.00  0.00    -0.360 N
HETATM   18  C1  UNL     1      54.663  20.910  33.642  1.00  0.00     0.149 C
ATOM     19  H1  UNL     1      52.673  21.367  34.263  1.00  0.00     0.162 HD
HETATM   20  O1  UNL     1      53.280  18.860  32.410  1.00  0.00    -0.266 OA
ENDBRANCH   1  16
BRANCH   7  21
HETATM   21  C8  UNL     1      50.466  21.306  31.592  1.00  0.00     0.200 C
BRANCH  21  22
HETATM   22  C9  UNL     1      49.824  22.586  32.052  1.00  0.00     0.159 C
HETATM   23  C10 UNL     1      49.158  23.309  30.876  1.00  0.00     0.059 C
BRANCH  22  24
HETATM   24  O3  UNL     1      48.960  22.471  33.113  1.00  0.00    -0.377 OA
ATOM     25  H3  UNL     1      48.038  22.431  32.890  1.00  0.00     0.211 HD
ENDBRANCH  22  24
BRANCH  22  26
HETATM   26  C11 UNL     1      50.967  23.486  32.448  1.00  0.00     0.210 C
HETATM   27  O4  UNL     1      50.749  24.601  32.997  1.00  0.00    -0.646 OA
HETATM   28  O5  UNL     1      52.260  23.092  32.210  1.00  0.00    -0.646 OA
ENDBRANCH  22  26
ENDBRANCH  21  22
ENDBRANCH   7  21
TORSDOF 6
ENDMDL