MODEL 4
REMARK VINA RESULT: -6.229702614      3.002      4.776
REMARK  7 active torsions:
REMARK  status: ('A' for Active; 'I' for Inactive)
REMARK    1  A    between atoms: C3_4  and  N2_5
REMARK       I    between atoms: N2_5  and  C4_7
REMARK    2  A    between atoms: C4_7  and  O2_9
REMARK    3  A    between atoms: O2_9  and  C5_10
REMARK    4  A    between atoms: C5_10  and  O3_11
REMARK    5  A    between atoms: O3_11  and  C6_12
REMARK    6  A    between atoms: C6_12  and  C7_14
REMARK    7  A    between atoms: C9_19  and  C11_21
ROOT
HETATM    1  C6  UNL     1      53.466  18.605  35.884  1.00  0.00     0.293 C
HETATM    2  O4  UNL     1      53.279  17.896  36.894  1.00  0.00    -0.263 OA
ENDROOT
BRANCH   1   3
HETATM    3  O3  UNL     1      54.745  18.747  35.391  1.00  0.00    -0.293 OA
BRANCH   3   4
HETATM    4  C5  UNL     1      55.585  19.851  35.656  1.00  0.00     0.360 C
BRANCH   4   5
HETATM    5  O2  UNL     1      56.375  20.155  34.531  1.00  0.00    -0.278 OA
BRANCH   5   6
HETATM    6  C4  UNL     1      55.768  20.481  33.324  1.00  0.00     0.367 C
HETATM    7  N2  UNL     1      54.597  21.266  33.349  1.00  0.00    -0.300 N
ATOM      8  H2  UNL     1      54.241  21.567  34.256  1.00  0.00     0.171 HD
HETATM    9  O1  UNL     1      56.305  20.052  32.298  1.00  0.00    -0.238 OA
BRANCH   7  10
HETATM   10  C3  UNL     1      53.884  21.665  32.185  1.00  0.00     0.070 A
HETATM   11  C2  UNL     1      52.817  20.992  31.588  1.00  0.00     0.140 A
HETATM   12  N1  UNL     1      52.387  21.658  30.506  1.00  0.00    -0.306 N
HETATM   13  C1  UNL     1      51.282  21.255  29.624  1.00  0.00     0.177 C
HETATM   14  N7  UNL     1      53.143  22.734  30.391  1.00  0.00    -0.308 N
HETATM   15  C12 UNL     1      54.065  22.773  31.393  1.00  0.00     0.138 A
ATOM     16  H7  UNL     1      53.051  23.436  29.656  1.00  0.00     0.186 HD
ENDBRANCH   7  10
ENDBRANCH   5   6
ENDBRANCH   4   5
ENDBRANCH   3   4
ENDBRANCH   1   3
BRANCH   1  17
HETATM   17  C7  UNL     1      52.318  19.268  35.244  1.00  0.00     0.313 C
HETATM   18  C8  UNL     1      51.112  19.353  36.155  1.00  0.00     0.279 C
HETATM   19  N3  UNL     1      50.037  19.535  35.174  1.00  0.00    -0.031 N
HETATM   20  C9  UNL     1      50.385  18.607  34.143  1.00  0.00     0.338 C
ATOM     21  H32 UNL     1      49.095  19.423  35.548  1.00  0.00     0.280 HD
ATOM     22  H31 UNL     1      49.908  20.496  34.856  1.00  0.00     0.280 HD
HETATM   23  C10 UNL     1      49.792  17.225  34.387  1.00  0.00     0.087 C
HETATM   24  N6  UNL     1      51.833  18.532  34.116  1.00  0.00    -0.019 N
ATOM     25  H62 UNL     1      52.232  18.848  33.232  1.00  0.00     0.281 HD
ATOM     26  H61 UNL     1      52.182  17.575  34.084  1.00  0.00     0.281 HD
BRANCH  20  27
HETATM   27  C11 UNL     1      49.879  19.056  32.824  1.00  0.00     0.151 C
HETATM   28  N4  UNL     1      49.090  20.072  32.791  1.00  0.00    -0.388 N
ATOM     29  H42 UNL     1      48.791  20.590  33.618  1.00  0.00     0.157 HD
ATOM     30  H41 UNL     1      48.742  20.381  31.884  1.00  0.00     0.157 HD
HETATM   31  N5  UNL     1      50.296  18.335  31.672  1.00  0.00    -0.083 NA
ENDBRANCH  20  27
ENDBRANCH   1  17
TORSDOF 7
ENDMDL