MODEL 3
REMARK VINA RESULT: -6.146448581      2.071      3.359
REMARK  7 active torsions:
REMARK  status: ('A' for Active; 'I' for Inactive)
REMARK    1  A    between atoms: O1_2  and  C2_3
REMARK    2  A    between atoms: C4_10  and  C5_11
REMARK    3  A    between atoms: C6_12  and  N3_13
REMARK    4  A    between atoms: N3_13  and  C8_16
REMARK    5  A    between atoms: C8_16  and  O3_18
REMARK    6  A    between atoms: C11_25  and  N7_26
REMARK    7  A    between atoms: C12_29  and  O4_30
ROOT
HETATM    1  N3  UNL     1      52.202  18.159  36.517  1.00  0.00    -0.241 N
HETATM    2  C7  UNL     1      51.568  18.934  37.476  1.00  0.00     0.188 C
HETATM    3  N4  UNL     1      51.040  19.587  38.298  1.00  0.00    -0.172 NA
ENDROOT
BRANCH   1   4
HETATM    4  C6  UNL     1      53.398  18.607  35.923  1.00  0.00     0.136 A
HETATM    5  C5  UNL     1      53.491  19.289  34.741  1.00  0.00     0.082 A
HETATM    6  C11 UNL     1      54.770  19.627  34.302  1.00  0.00     0.116 A
HETATM    7  N6  UNL     1      55.881  19.308  34.990  1.00  0.00    -0.338 N
HETATM    8  C10 UNL     1      55.773  18.649  36.130  1.00  0.00     0.183 A
ATOM      9  H6  UNL     1      56.799  19.574  34.635  1.00  0.00     0.168 HD
HETATM   10  N5  UNL     1      54.558  18.315  36.571  1.00  0.00    -0.337 N
ATOM     11  H5  UNL     1      54.495  17.806  37.453  1.00  0.00     0.168 HD
BRANCH   5  12
HETATM   12  C4  UNL     1      52.300  19.650  33.995  1.00  0.00     0.092 A
HETATM   13  N2  UNL     1      51.807  18.830  33.051  1.00  0.00    -0.305 N
HETATM   14  C3  UNL     1      50.709  19.106  32.327  1.00  0.00     0.326 A
ATOM     15  H2  UNL     1      52.293  17.951  32.875  1.00  0.00     0.171 HD
HETATM   16  N1  UNL     1      50.071  20.267  32.561  1.00  0.00    -0.287 N
HETATM   17  O2  UNL     1      50.267  18.305  31.438  1.00  0.00    -0.247 OA
HETATM   18  C2  UNL     1      50.471  21.162  33.475  1.00  0.00     0.182 A
ATOM     19  H1  UNL     1      49.238  20.478  32.012  1.00  0.00     0.172 HD
HETATM   20  C12 UNL     1      51.619  20.836  34.209  1.00  0.00     0.147 A
BRANCH  18  21
HETATM   21  O1  UNL     1      49.797  22.354  33.699  1.00  0.00    -0.339 OA
HETATM   22  C1  UNL     1      49.228  23.052  32.606  1.00  0.00     0.211 C
ENDBRANCH  18  21
BRANCH  20  23
HETATM   23  O4  UNL     1      52.011  21.772  35.144  1.00  0.00    -0.350 OA
HETATM   24  C13 UNL     1      52.893  22.835  34.951  1.00  0.00     0.210 C
ENDBRANCH  20  23
ENDBRANCH   5  12
BRANCH   6  25
HETATM   25  N7  UNL     1      54.905  20.254  33.190  1.00  0.00    -0.385 N
ATOM     26  H72 UNL     1      54.892  19.712  32.326  1.00  0.00     0.157 HD
ATOM     27  H71 UNL     1      55.009  21.269  33.201  1.00  0.00     0.157 HD
ENDBRANCH   6  25
ENDBRANCH   1   4
BRANCH   1  28
HETATM   28  C8  UNL     1      51.636  16.893  36.145  1.00  0.00     0.232 C
HETATM   29  C9  UNL     1      50.249  16.946  35.600  1.00  0.00     0.064 C
BRANCH  28  30
HETATM   30  O3  UNL     1      51.751  15.948  37.171  1.00  0.00    -0.376 OA
ATOM     31  H3  UNL     1      50.940  15.471  37.307  1.00  0.00     0.212 HD
ENDBRANCH  28  30
ENDBRANCH   1  28
TORSDOF 7
ENDMDL