MODEL 3
REMARK VINA RESULT: -6.746765808      2.541      4.848
REMARK  9 active torsions:
REMARK  status: ('A' for Active; 'I' for Inactive)
REMARK    1  A    between atoms: C2_2  and  C3_3
REMARK    2  A    between atoms: C2_2  and  N8_27
REMARK    3  A    between atoms: C4_4  and  N1_5
REMARK    4  A    between atoms: N1_5  and  N2_7
REMARK    5  A    between atoms: N2_7  and  N3_8
REMARK    6  A    between atoms: N4_15  and  C8_16
REMARK    7  A    between atoms: C8_16  and  N5_17
REMARK    8  A    between atoms: C8_16  and  C9_21
REMARK    9  A    between atoms: N7_23  and  O2_25
ROOT
HETATM    1  C3  UNL     1      52.147  18.734  35.069  1.00  0.00     0.086 A
HETATM    2  C4  UNL     1      51.017  18.034  34.525  1.00  0.00     0.091 A
HETATM    3  C5  UNL     1      50.442  16.949  35.001  1.00  0.00     0.040 A
HETATM    4  C6  UNL     1      50.993  16.393  36.157  1.00  0.00     0.077 A
HETATM    5  C7  UNL     1      52.093  17.042  36.692  1.00  0.00     0.250 A
HETATM    6  O1  UNL     1      52.516  16.473  37.705  1.00  0.00    -0.268 OA
HETATM    7  N4  UNL     1      52.672  18.186  36.174  1.00  0.00    -0.275 N
ENDROOT
BRANCH   7   8
HETATM    8  C8  UNL     1      53.925  18.532  36.624  1.00  0.00     0.358 C
BRANCH   8   9
HETATM    9  N5  UNL     1      53.678  18.997  38.085  1.00  0.00    -0.051 N
ATOM     10  H53 UNL     1      53.968  19.956  38.276  1.00  0.00     0.277 HD
ATOM     11  H52 UNL     1      52.695  19.132  38.322  1.00  0.00     0.277 HD
ATOM     12  H51 UNL     1      54.155  18.292  38.648  1.00  0.00     0.277 HD
ENDBRANCH   8   9
BRANCH   8  13
HETATM   13  C9  UNL     1      54.844  19.465  36.045  1.00  0.00     0.163 C
HETATM   14  N6  UNL     1      54.941  20.865  36.199  1.00  0.00    -0.082 NA
HETATM   15  N7  UNL     1      55.829  19.018  35.253  1.00  0.00    -0.256 N
ATOM     16  H7  UNL     1      55.918  18.018  35.072  1.00  0.00     0.195 HD
BRANCH  15  17
HETATM   17  O2  UNL     1      56.723  19.903  34.680  1.00  0.00    -0.289 OA
ATOM     18  H2  UNL     1      56.881  20.751  35.078  1.00  0.00     0.244 HD
ENDBRANCH  15  17
ENDBRANCH   8  13
ENDBRANCH   7   8
BRANCH   1  19
HETATM   19  C2  UNL     1      52.539  19.960  34.411  1.00  0.00     0.013 C
HETATM   20  C1  UNL     1      53.234  19.983  33.092  1.00  0.00     0.064 C
BRANCH  19  21
HETATM   21  N8  UNL     1      51.593  21.065  34.565  1.00  0.00    -0.282 NA
HETATM   22  C10 UNL     1      51.634  22.101  33.617  1.00  0.00     0.123 C
HETATM   23  C11 UNL     1      50.823  23.293  34.178  1.00  0.00     0.247 C
HETATM   24  N9  UNL     1      49.670  22.810  34.912  1.00  0.00    -0.073 N
HETATM   25  C12 UNL     1      50.135  22.152  36.126  1.00  0.00     0.247 C
ATOM     26  H92 UNL     1      48.991  23.547  35.103  1.00  0.00     0.277 HD
ATOM     27  H91 UNL     1      49.070  22.210  34.347  1.00  0.00     0.277 HD
HETATM   28  C13 UNL     1      51.543  21.647  35.869  1.00  0.00     0.123 C
ENDBRANCH  19  21
ENDBRANCH   1  19
BRANCH   2  29
HETATM   29  N1  UNL     1      50.572  18.498  33.228  1.00  0.00    -0.214 N
ATOM     30  H1  UNL     1      51.086  18.158  32.416  1.00  0.00     0.204 HD
BRANCH  29  31
HETATM   31  N2  UNL     1      49.680  19.225  33.023  1.00  0.00    -0.243 NA
BRANCH  31  32
HETATM   32  N3  UNL     1      48.724  20.060  32.785  1.00  0.00    -0.260 N
ATOM     33  H32 UNL     1      49.652  20.259  32.411  1.00  0.00     0.193 HD
ATOM     34  H31 UNL     1      47.947  20.698  32.616  1.00  0.00     0.193 HD
ENDBRANCH  31  32
ENDBRANCH  29  31
ENDBRANCH   2  29
TORSDOF 9
ENDMDL