MODEL 3
REMARK VINA RESULT: -7.120749932      2.086      5.803
REMARK  7 active torsions:
REMARK  status: ('A' for Active; 'I' for Inactive)
REMARK    1  A    between atoms: C2_2  and  C3_3
REMARK    2  A    between atoms: C3_3  and  N1_4
REMARK    3  A    between atoms: C4_9  and  C5_10
REMARK    4  A    between atoms: C6_11  and  N4_12
REMARK    5  A    between atoms: N4_12  and  C7_14
REMARK    6  A    between atoms: C8_19  and  N7_20
REMARK    7  A    between atoms: C9_27  and  C10_28
ROOT
HETATM    1  C5  UNL     1      50.664  18.749  33.929  1.00  0.00     0.123 A
HETATM    2  C6  UNL     1      51.902  19.008  34.502  1.00  0.00     0.142 A
HETATM    3  N9  UNL     1      52.415  18.236  35.487  1.00  0.00    -0.325 N
ATOM      4  H9  UNL     1      53.328  18.449  35.890  1.00  0.00     0.169 HD
HETATM    5  C9  UNL     1      51.704  17.183  35.927  1.00  0.00     0.148 A
HETATM    6  N10 UNL     1      50.501  16.916  35.384  1.00  0.00    -0.306 N
ATOM      7  H10 UNL     1      49.974  16.114  35.729  1.00  0.00     0.170 HD
HETATM    8  C11 UNL     1      49.968  17.668  34.403  1.00  0.00     0.265 A
HETATM    9  O2  UNL     1      48.829  17.396  33.905  1.00  0.00    -0.267 OA
ENDROOT
BRANCH   2  10
HETATM   10  N4  UNL     1      52.619  20.113  34.019  1.00  0.00    -0.173 N
ATOM     11  H4  UNL     1      52.114  20.869  33.558  1.00  0.00     0.186 HD
BRANCH  10  12
HETATM   12  C7  UNL     1      53.912  20.200  34.145  1.00  0.00     0.713 A
HETATM   13  N5  UNL     1      54.839  19.579  33.394  1.00  0.00    -0.117 N
HETATM   14  N6  UNL     1      56.066  19.915  33.825  1.00  0.00    -0.118 N
ATOM     15  H5  UNL     1      54.642  18.949  32.616  1.00  0.00     0.206 HD
HETATM   16  C8  UNL     1      55.923  20.758  34.862  1.00  0.00     0.705 A
ATOM     17  H6  UNL     1      56.950  19.588  33.435  1.00  0.00     0.206 HD
HETATM   18  N8  UNL     1      54.600  20.923  35.045  1.00  0.00    -0.020 N
ATOM     19  H8  UNL     1      54.180  21.513  35.763  1.00  0.00     0.203 HD
BRANCH  16  20
HETATM   20  N7  UNL     1      56.901  21.284  35.521  1.00  0.00    -0.233 N
ATOM     21  H72 UNL     1      57.887  21.333  35.268  1.00  0.00     0.174 HD
ATOM     22  H71 UNL     1      56.810  21.740  36.428  1.00  0.00     0.174 HD
ENDBRANCH  16  20
ENDBRANCH  10  12
ENDBRANCH   2  10
BRANCH   1  23
HETATM   23  C4  UNL     1      50.113  19.581  32.868  1.00  0.00     0.157 A
HETATM   24  N3  UNL     1      48.816  20.001  32.791  1.00  0.00    -0.268 N
HETATM   25  N2  UNL     1      48.688  20.725  31.711  1.00  0.00    -0.224 N
ATOM     26  H3  UNL     1      48.076  19.786  33.459  1.00  0.00     0.190 HD
HETATM   27  N1  UNL     1      49.847  20.799  31.078  1.00  0.00    -0.218 N
ATOM     28  H2  UNL     1      47.823  21.169  31.403  1.00  0.00     0.210 HD
HETATM   29  N11 UNL     1      50.703  20.098  31.795  1.00  0.00    -0.266 N
ATOM     30  H11 UNL     1      51.686  19.969  31.559  1.00  0.00     0.190 HD
BRANCH  27  31
HETATM   31  C3  UNL     1      50.160  21.491  29.851  1.00  0.00     0.171 C
BRANCH  31  32
HETATM   32  C2  UNL     1      51.648  21.473  29.588  1.00  0.00     0.019 C
HETATM   33  C1  UNL     1      51.948  22.181  28.284  1.00  0.00     0.007 C
ENDBRANCH  31  32
ENDBRANCH  27  31
ENDBRANCH   1  23
BRANCH   5  34
HETATM   34  C10 UNL     1      52.263  16.345  36.998  1.00  0.00     0.307 C
HETATM   35  O1  UNL     1      52.985  16.829  37.904  1.00  0.00    -0.298 OA
ENDBRANCH   5  34
TORSDOF 7
ENDMDL