MODEL 5
REMARK VINA RESULT: -5.885516779      2.186      5.460
REMARK  6 active torsions:
REMARK  status: ('A' for Active; 'I' for Inactive)
REMARK    1  A    between atoms: C2_2  and  C3_3
REMARK    2  A    between atoms: C2_2  and  N1_6
REMARK    3  A    between atoms: C4_7  and  N2_8
REMARK    4  A    between atoms: C6_10  and  C7_11
REMARK    5  A    between atoms: C9_16  and  C10_17
REMARK    6  A    between atoms: C11_21  and  N6_22
ROOT
HETATM    1  N1  UNL     1      54.587  20.584  34.784  1.00  0.00    -0.116 N
HETATM    2  C4  UNL     1      54.010  19.862  35.710  1.00  0.00     0.711 A
HETATM    3  N5  UNL     1      54.477  19.851  37.022  1.00  0.00    -0.021 N
ATOM      4  H5  UNL     1      53.999  19.276  37.716  1.00  0.00     0.203 HD
HETATM    5  C11 UNL     1      55.519  20.564  37.388  1.00  0.00     0.694 A
HETATM    6  N7  UNL     1      56.126  21.310  36.460  1.00  0.00    -0.140 N
ATOM      7  H7  UNL     1      56.937  21.873  36.717  1.00  0.00     0.189 HD
HETATM    8  C12 UNL     1      55.682  21.323  35.204  1.00  0.00     0.356 A
HETATM    9  O5  UNL     1      56.323  22.059  34.402  1.00  0.00    -0.245 OA
ENDROOT
BRANCH   2  10
HETATM   10  N2  UNL     1      52.890  19.075  35.425  1.00  0.00    -0.151 N
HETATM   11  C5  UNL     1      52.009  19.285  34.462  1.00  0.00     0.134 A
HETATM   12  C6  UNL     1      51.053  18.297  34.429  1.00  0.00     0.072 A
HETATM   13  C8  UNL     1      51.383  17.431  35.443  1.00  0.00     0.093 A
HETATM   14  N4  UNL     1      50.673  16.263  35.778  1.00  0.00    -0.099 NA
HETATM   15  C9  UNL     1      52.539  17.955  36.042  1.00  0.00     0.119 A
BRANCH  12  16
HETATM   16  C7  UNL     1      49.938  18.213  33.501  1.00  0.00     0.268 C
HETATM   17  N3  UNL     1      50.100  18.542  32.135  1.00  0.00    -0.057 NA
HETATM   18  O3  UNL     1      48.800  17.846  33.886  1.00  0.00    -0.271 OA
ENDBRANCH  12  16
BRANCH  15  19
HETATM   19  C10 UNL     1      53.167  17.264  37.167  1.00  0.00     0.291 C
HETATM   20  O4  UNL     1      52.931  17.540  38.366  1.00  0.00    -0.300 OA
ENDBRANCH  15  19
ENDBRANCH   2  10
BRANCH   1  21
HETATM   21  C2  UNL     1      54.296  20.749  33.442  1.00  0.00     0.209 C
HETATM   22  C1  UNL     1      54.153  21.976  32.703  1.00  0.00     0.045 C
BRANCH  21  23
HETATM   23  C3  UNL     1      55.245  19.856  32.660  1.00  0.00     0.197 C
HETATM   24  O1  UNL     1      55.281  18.626  32.773  1.00  0.00    -0.646 OA
HETATM   25  O2  UNL     1      56.130  20.453  31.759  1.00  0.00    -0.646 OA
ENDBRANCH  21  23
ENDBRANCH   1  21
BRANCH   5  26
HETATM   26  N6  UNL     1      55.969  20.569  38.595  1.00  0.00    -0.234 N
ATOM     27  H62 UNL     1      55.969  21.441  39.124  1.00  0.00     0.174 HD
ATOM     28  H61 UNL     1      56.331  19.731  39.051  1.00  0.00     0.174 HD
ENDBRANCH   5  26
TORSDOF 6
ENDMDL