MODEL 4
REMARK VINA RESULT: -6.044199859      2.563      4.824
REMARK  8 active torsions:
REMARK  status: ('A' for Active; 'I' for Inactive)
REMARK    1  A    between atoms: C3_4  and  C4_5
REMARK    2  A    between atoms: C4_5  and  N2_6
REMARK    3  A    between atoms: N2_6  and  N3_8
REMARK       I    between atoms: N3_8  and  C5_9
REMARK    4  A    between atoms: C5_9  and  C6_11
REMARK    5  A    between atoms: C6_11  and  S1_12
REMARK    6  A    between atoms: S1_12  and  C7_13
REMARK    7  A    between atoms: C8_18  and  N6_19
REMARK    8  A    between atoms: C9_24  and  N8_25
ROOT
HETATM    1  N3  UNL     1      49.547  17.703  34.274  1.00  0.00    -0.287 NA
HETATM    2  C5  UNL     1      49.745  16.651  35.091  1.00  0.00     0.322 C
HETATM    3  O1  UNL     1      49.041  15.657  35.299  1.00  0.00    -0.254 OA
ENDROOT
BRANCH   1   4
HETATM    4  N2  UNL     1      49.360  18.686  33.508  1.00  0.00    -0.243 N
ATOM      5  H2  UNL     1      48.402  18.586  33.173  1.00  0.00     0.201 HD
BRANCH   4   6
HETATM    6  C4  UNL     1      49.786  19.719  32.967  1.00  0.00     0.137 C
BRANCH   6   7
HETATM    7  C3  UNL     1      51.096  20.295  33.340  1.00  0.00     0.041 A
HETATM    8  C2  UNL     1      52.212  19.992  32.607  1.00  0.00     0.112 A
HETATM    9  N1  UNL     1      53.381  20.551  33.000  1.00  0.00    -0.313 N
HETATM   10  C1  UNL     1      54.625  20.279  32.269  1.00  0.00     0.160 C
HETATM   11  C11 UNL     1      53.473  21.373  34.062  1.00  0.00     0.329 A
HETATM   12  N9  UNL     1      52.366  21.686  34.805  1.00  0.00    -0.289 N
HETATM   13  O2  UNL     1      54.557  21.891  34.428  1.00  0.00    -0.246 OA
HETATM   14  C9  UNL     1      51.203  21.143  34.432  1.00  0.00     0.117 A
HETATM   15  C10 UNL     1      52.470  22.577  35.950  1.00  0.00     0.163 C
BRANCH  14  16
HETATM   16  N8  UNL     1      50.140  21.408  35.107  1.00  0.00    -0.384 N
ATOM     17  H82 UNL     1      49.824  20.749  35.819  1.00  0.00     0.157 HD
ATOM     18  H81 UNL     1      49.641  22.273  34.905  1.00  0.00     0.157 HD
ENDBRANCH  14  16
ENDBRANCH   6   7
ENDBRANCH   4   6
ENDBRANCH   1   4
BRANCH   2  19
HETATM   19  C6  UNL     1      51.038  16.667  35.896  1.00  0.00     0.203 C
BRANCH  19  20
HETATM   20  S1  UNL     1      51.267  18.152  36.834  1.00  0.00    -0.082 SA
BRANCH  20  21
HETATM   21  C7  UNL     1      52.973  18.725  36.831  1.00  0.00     0.174 A
HETATM   22  N4  UNL     1      53.617  19.398  37.814  1.00  0.00    -0.265 N
HETATM   23  N5  UNL     1      54.864  19.630  37.414  1.00  0.00    -0.130 N
ATOM     24  H4  UNL     1      53.213  19.680  38.708  1.00  0.00     0.189 HD
HETATM   25  C8  UNL     1      55.045  19.117  36.186  1.00  0.00     0.692 A
ATOM     26  H5  UNL     1      55.574  20.122  37.957  1.00  0.00     0.205 HD
HETATM   27  N7  UNL     1      53.875  18.569  35.850  1.00  0.00    -0.168 N
ATOM     28  H7  UNL     1      53.691  18.094  34.966  1.00  0.00     0.186 HD
BRANCH  25  29
HETATM   29  N6  UNL     1      56.143  19.157  35.461  1.00  0.00    -0.233 N
ATOM     30  H62 UNL     1      56.501  19.948  34.926  1.00  0.00     0.174 HD
ATOM     31  H61 UNL     1      56.817  18.405  35.323  1.00  0.00     0.174 HD
ENDBRANCH  25  29
ENDBRANCH  20  21
ENDBRANCH  19  20
ENDBRANCH   2  19
TORSDOF 8
ENDMDL