MODEL 2
REMARK VINA RESULT: -6.815600850      0.985      1.018
REMARK  7 active torsions:
REMARK  status: ('A' for Active; 'I' for Inactive)
REMARK    1  A    between atoms: C2_2  and  N1_3
REMARK    2  A    between atoms: C2_2  and  C3_7
REMARK    3  A    between atoms: C2_2  and  C9_30
REMARK    4  A    between atoms: C3_7  and  S1_8
REMARK    5  A    between atoms: S1_8  and  C4_9
REMARK    6  A    between atoms: C5_14  and  C6_15
REMARK    7  A    between atoms: C7_21  and  N6_22
REMARK       I    between atoms: N6_22  and  C8_24
ROOT
HETATM    1  C4  UNL     1      51.456  20.166  32.537  1.00  0.00     0.203 A
HETATM    2  N2  UNL     1      50.141  20.261  32.313  1.00  0.00    -0.272 N
ATOM      3  H2  UNL     1      49.701  20.950  31.704  1.00  0.00     0.189 HD
HETATM    4  N3  UNL     1      49.507  19.347  32.983  1.00  0.00    -0.275 N
ATOM      5  H3  UNL     1      48.499  19.194  32.994  1.00  0.00     0.189 HD
HETATM    6  C5  UNL     1      50.432  18.638  33.663  1.00  0.00     0.197 A
HETATM    7  O2  UNL     1      51.600  19.146  33.380  1.00  0.00    -0.266 OA
ENDROOT
BRANCH   6   8
HETATM    8  C6  UNL     1      50.093  17.522  34.531  1.00  0.00     0.155 A
HETATM    9  N4  UNL     1      48.972  16.789  34.576  1.00  0.00    -0.234 N
HETATM   10  O1  UNL     1      49.096  15.880  35.524  1.00  0.00    -0.155 OA
ATOM     11  H4  UNL     1      48.157  16.913  33.975  1.00  0.00     0.197 HD
HETATM   12  N5  UNL     1      50.259  15.989  36.106  1.00  0.00    -0.223 N
HETATM   13  C7  UNL     1      50.919  17.009  35.512  1.00  0.00     0.163 A
ATOM     14  H5  UNL     1      50.608  15.410  36.870  1.00  0.00     0.198 HD
BRANCH  13  15
HETATM   15  N6  UNL     1      52.098  17.461  35.771  1.00  0.00    -0.314 N
HETATM   16  C8  UNL     1      52.726  17.339  37.028  1.00  0.00     0.187 C
HETATM   17  N7  UNL     1      53.272  18.376  37.614  1.00  0.00    -0.373 N
HETATM   18  N8  UNL     1      52.798  16.105  37.712  1.00  0.00    -0.064 NA
ATOM     19  H72 UNL     1      53.220  19.267  37.120  1.00  0.00     0.158 HD
ATOM     20  H71 UNL     1      53.727  18.288  38.523  1.00  0.00     0.158 HD
ATOM     21  H6  UNL     1      52.606  17.933  35.024  1.00  0.00     0.170 HD
ENDBRANCH  13  15
ENDBRANCH   6   8
BRANCH   1  22
HETATM   22  S1  UNL     1      52.723  21.175  31.862  1.00  0.00    -0.082 SA
BRANCH  22  23
HETATM   23  C3  UNL     1      53.838  21.922  33.033  1.00  0.00     0.131 C
BRANCH  23  24
HETATM   24  C2  UNL     1      54.912  20.983  33.466  1.00  0.00     0.206 C
HETATM   25  C1  UNL     1      55.201  19.934  32.390  1.00  0.00     0.057 C
BRANCH  24  26
HETATM   26  N1  UNL     1      56.166  21.613  33.741  1.00  0.00    -0.061 N
ATOM     27  H13 UNL     1      56.871  20.975  34.113  1.00  0.00     0.275 HD
ATOM     28  H12 UNL     1      56.680  21.885  32.902  1.00  0.00     0.275 HD
ATOM     29  H11 UNL     1      55.954  22.395  34.362  1.00  0.00     0.275 HD
ENDBRANCH  24  26
BRANCH  24  30
HETATM   30  C9  UNL     1      54.475  20.206  34.658  1.00  0.00     0.267 C
HETATM   31  N9  UNL     1      53.753  20.867  35.674  1.00  0.00    -0.060 NA
HETATM   32  O3  UNL     1      54.718  18.984  34.804  1.00  0.00    -0.274 OA
ENDBRANCH  24  30
ENDBRANCH  23  24
ENDBRANCH  22  23
ENDBRANCH   1  22
TORSDOF 7
ENDMDL