MODEL 3
REMARK VINA RESULT: -6.258801818      2.838      4.578
REMARK  6 active torsions:
REMARK  status: ('A' for Active; 'I' for Inactive)
REMARK    1  A    between atoms: C3_7  and  N3_8
REMARK    2  A    between atoms: N3_8  and  N4_10
REMARK       I    between atoms: N4_10  and  C4_12
REMARK    3  A    between atoms: C4_12  and  C5_14
REMARK    4  A    between atoms: C5_14  and  N5_16
REMARK    5  A    between atoms: C7_20  and  N6_21
REMARK    6  A    between atoms: N6_21  and  N7_23
ROOT
HETATM    1  C1  UNL     1      48.843  17.378  34.550  1.00  0.00     0.072 C
HETATM    2  C2  UNL     1      50.055  17.048  35.341  1.00  0.00     0.054 A
HETATM    3  N1  UNL     1      50.216  15.947  36.103  1.00  0.00    -0.301 N
ATOM      4  H1  UNL     1      49.533  15.200  36.236  1.00  0.00     0.186 HD
HETATM    5  N2  UNL     1      51.418  16.011  36.644  1.00  0.00    -0.282 N
ATOM      6  H2  UNL     1      51.814  15.310  37.270  1.00  0.00     0.188 HD
HETATM    7  C3  UNL     1      52.042  17.126  36.254  1.00  0.00     0.165 A
HETATM    8  C7  UNL     1      51.193  17.845  35.397  1.00  0.00     0.119 A
ENDROOT
BRANCH   7   9
HETATM    9  N3  UNL     1      53.330  17.495  36.640  1.00  0.00    -0.280 N
ATOM     10  H3  UNL     1      54.085  16.820  36.522  1.00  0.00     0.188 HD
BRANCH   9  11
HETATM   11  N4  UNL     1      53.629  18.730  37.176  1.00  0.00    -0.267 N
HETATM   12  C4  UNL     1      54.766  19.425  36.690  1.00  0.00     0.266 C
HETATM   13  O1  UNL     1      55.507  18.983  35.795  1.00  0.00    -0.269 OA
ATOM     14  H4  UNL     1      53.046  19.135  37.907  1.00  0.00     0.190 HD
BRANCH  12  15
HETATM   15  C5  UNL     1      55.075  20.751  37.293  1.00  0.00     0.272 C
HETATM   16  C6  UNL     1      53.757  21.306  37.796  1.00  0.00     0.050 C
BRANCH  15  17
HETATM   17  N5  UNL     1      56.040  20.602  38.356  1.00  0.00    -0.067 N
ATOM     18  H53 UNL     1      56.195  19.622  38.595  1.00  0.00     0.275 HD
ATOM     19  H52 UNL     1      56.984  20.832  38.048  1.00  0.00     0.275 HD
ATOM     20  H51 UNL     1      55.759  21.152  39.167  1.00  0.00     0.275 HD
ENDBRANCH  15  17
ENDBRANCH  12  15
ENDBRANCH   9  11
ENDBRANCH   7   9
BRANCH   8  21
HETATM   21  N6  UNL     1      51.466  19.069  34.757  1.00  0.00    -0.278 N
ATOM     22  H6  UNL     1      51.368  19.901  35.339  1.00  0.00     0.188 HD
BRANCH  21  23
HETATM   23  N7  UNL     1      51.845  19.294  33.458  1.00  0.00    -0.169 N
HETATM   24  C8  UNL     1      53.227  19.406  33.111  1.00  0.00     0.129 C
HETATM   25  C9  UNL     1      53.608  20.251  32.149  1.00  0.00     0.021 C
HETATM   26  C10 UNL     1      52.585  21.062  31.452  1.00  0.00     0.220 C
HETATM   27  O2  UNL     1      51.663  20.232  30.868  1.00  0.00    -0.254 OA
HETATM   28  S1  UNL     1      50.756  19.485  32.112  1.00  0.00     0.381 S
HETATM   29  O3  UNL     1      50.324  18.186  31.531  1.00  0.00    -0.174 OA
HETATM   30  O4  UNL     1      49.594  20.352  32.489  1.00  0.00    -0.174 OA
ENDBRANCH  21  23
ENDBRANCH   8  21
TORSDOF 6
ENDMDL