MODEL 5
REMARK VINA RESULT: -6.262024558      2.758      3.797
REMARK  8 active torsions:
REMARK  status: ('A' for Active; 'I' for Inactive)
REMARK    1  A    between atoms: C2_2  and  C3_3
REMARK    2  A    between atoms: C3_3  and  N1_4
REMARK    3  A    between atoms: C6_8  and  C7_9
REMARK    4  A    between atoms: C7_9  and  O1_10
REMARK    5  A    between atoms: C7_9  and  C8_12
REMARK    6  A    between atoms: C8_12  and  C9_13
REMARK    7  A    between atoms: C9_13  and  C10_15
REMARK    8  A    between atoms: C14_20  and  O4_21
ROOT
HETATM    1  N1  UNL     1       4.606  16.795  20.079  1.00  0.00    -0.321 N
HETATM    2  C4  UNL     1       4.271  17.109  18.823  1.00  0.00     0.085 A
HETATM    3  S1  UNL     1       4.389  18.708  18.042  1.00  0.00    -0.033 SA
HETATM    4  C5  UNL     1       3.811  15.944  18.252  1.00  0.00     0.052 A
HETATM    5  C6  UNL     1       3.862  14.911  19.162  1.00  0.00     0.024 A
HETATM    6  C14 UNL     1       4.375  15.489  20.318  1.00  0.00     0.152 A
ENDROOT
BRANCH   5   7
HETATM    7  C7  UNL     1       3.444  13.496  18.969  1.00  0.00     0.162 C
BRANCH   7   8
HETATM    8  O1  UNL     1       4.251  12.660  19.737  1.00  0.00    -0.390 OA
ATOM      9  H1  UNL     1       3.734  11.936  20.071  1.00  0.00     0.210 HD
ENDBRANCH   7   8
BRANCH   7  10
HETATM   10  C8  UNL     1       1.997  13.237  19.170  1.00  0.00     0.117 C
BRANCH  10  11
HETATM   11  C9  UNL     1       1.681  12.607  20.468  1.00  0.00     0.158 C
HETATM   12  O2  UNL     1       1.735  13.257  21.488  1.00  0.00    -0.295 OA
BRANCH  11  13
HETATM   13  C10 UNL     1       1.287  11.171  20.583  1.00  0.00     0.190 C
HETATM   14  C11 UNL     1       0.749  10.902  21.964  1.00  0.00     0.042 C
HETATM   15  C12 UNL     1       1.485   9.680  22.388  1.00  0.00     0.029 C
HETATM   16  C13 UNL     1       2.628   9.580  21.443  1.00  0.00     0.168 C
HETATM   17  O3  UNL     1       2.328  10.324  20.344  1.00  0.00    -0.378 OA
ENDBRANCH  11  13
ENDBRANCH  10  11
ENDBRANCH   7  10
ENDBRANCH   5   7
BRANCH   6  18
HETATM   18  O4  UNL     1       4.582  14.760  21.482  1.00  0.00    -0.345 OA
ATOM     19  H4  UNL     1       4.519  15.042  22.386  1.00  0.00     0.219 HD
ENDBRANCH   6  18
BRANCH   1  20
HETATM   20  C3  UNL     1       5.144  17.669  21.106  1.00  0.00     0.131 C
BRANCH  20  21
HETATM   21  C2  UNL     1       6.618  17.854  21.039  1.00  0.00     0.016 C
HETATM   22  C1  UNL     1       7.230  17.009  22.141  1.00  0.00     0.006 C
ENDBRANCH  20  21
ENDBRANCH   1  20
TORSDOF 8
ENDMDL