MODEL 1
REMARK VINA RESULT: -6.157906075      0.000      0.000
REMARK  12 active torsions:
REMARK  status: ('A' for Active; 'I' for Inactive)
REMARK    1  A    between atoms: O1_2  and  C2_3
REMARK    2  A    between atoms: C2_3  and  C3_5
REMARK    3  A    between atoms: C3_5  and  C4_6
REMARK    4  A    between atoms: C3_5  and  N2_17
REMARK    5  A    between atoms: C4_6  and  C5_7
REMARK    6  A    between atoms: C5_7  and  C6_8
REMARK    7  A    between atoms: C6_8  and  C7_9
REMARK    8  A    between atoms: C7_9  and  C8_10
REMARK    9  A    between atoms: C8_10  and  O3_11
REMARK   10  A    between atoms: N1_13  and  O4_15
REMARK       I    between atoms: N2_17  and  C9_19
REMARK   11  A    between atoms: C9_19  and  O6_21
REMARK   12  A    between atoms: O6_21  and  C10_22
ROOT
HETATM    1  C3  UNL     1       2.023  12.754  20.744  1.00  0.00     0.186 C
ENDROOT
BRANCH   1   2
HETATM    2  C2  UNL     1       3.360  13.217  20.365  1.00  0.00     0.281 C
HETATM    3  O2  UNL     1       4.338  12.409  20.525  1.00  0.00    -0.263 OA
BRANCH   2   4
HETATM    4  O1  UNL     1       3.688  14.453  19.848  1.00  0.00    -0.325 OA
HETATM    5  C1  UNL     1       4.594  15.337  20.490  1.00  0.00     0.213 C
ENDBRANCH   2   4
ENDBRANCH   1   2
BRANCH   1   6
HETATM    6  C4  UNL     1       0.978  13.335  19.846  1.00  0.00     0.035 C
BRANCH   6   7
HETATM    7  C5  UNL     1       0.875  12.712  18.486  1.00  0.00     0.003 C
BRANCH   7   8
HETATM    8  C6  UNL     1       0.033  13.684  17.634  1.00  0.00     0.008 C
BRANCH   8   9
HETATM    9  C7  UNL     1       0.846  14.147  16.438  1.00  0.00     0.086 C
BRANCH   9  10
HETATM   10  C8  UNL     1       1.749  15.240  16.837  1.00  0.00     0.135 C
HETATM   11  N1  UNL     1       3.015  15.040  16.845  1.00  0.00    -0.251 N
ATOM     12  H1  UNL     1       3.361  14.120  16.572  1.00  0.00     0.196 HD
BRANCH  10  13
HETATM   13  O3  UNL     1       1.252  16.471  17.200  1.00  0.00    -0.348 OA
ATOM     14  H3  UNL     1       0.917  16.622  18.076  1.00  0.00     0.219 HD
ENDBRANCH  10  13
BRANCH  11  15
HETATM   15  O4  UNL     1       3.928  15.997  17.201  1.00  0.00    -0.288 OA
ATOM     16  H4  UNL     1       4.685  16.220  16.673  1.00  0.00     0.244 HD
ENDBRANCH  11  15
ENDBRANCH   9  10
ENDBRANCH   8   9
ENDBRANCH   7   8
ENDBRANCH   6   7
ENDBRANCH   1   6
BRANCH   1  17
HETATM   17  N2  UNL     1       1.981  11.297  20.666  1.00  0.00    -0.323 N
HETATM   18  C9  UNL     1       1.129  10.568  21.544  1.00  0.00     0.362 C
HETATM   19  O5  UNL     1       0.419  11.185  22.380  1.00  0.00    -0.238 OA
ATOM     20  H2  UNL     1       2.559  10.803  19.986  1.00  0.00     0.165 HD
BRANCH  18  21
HETATM   21  O6  UNL     1       1.033   9.196  21.532  1.00  0.00    -0.294 OA
BRANCH  21  22
HETATM   22  C10 UNL     1       1.969   8.322  22.128  1.00  0.00     0.061 C
HETATM   23  C11 UNL     1       3.075   7.925  21.208  1.00  0.00     0.046 C
HETATM   24  C12 UNL     1       1.201   7.047  22.495  1.00  0.00     0.046 C
HETATM   25  C13 UNL     1       2.522   8.879  23.417  1.00  0.00     0.046 C
ENDBRANCH  21  22
ENDBRANCH  18  21
ENDBRANCH   1  17
TORSDOF 12
ENDMDL