MODEL 3
REMARK VINA RESULT: -6.670029147      1.533      2.195
REMARK  9 active torsions:
REMARK  status: ('A' for Active; 'I' for Inactive)
REMARK    1  A    between atoms: C6_9  and  C7_10
REMARK    2  A    between atoms: C7_10  and  C8_11
REMARK    3  A    between atoms: C8_11  and  C9_12
REMARK    4  A    between atoms: C9_12  and  C10_13
REMARK    5  A    between atoms: C10_13  and  O1_14
REMARK    6  A    between atoms: O1_14  and  C11_15
REMARK    7  A    between atoms: C11_15  and  C12_17
REMARK    8  A    between atoms: C13_18  and  O3_19
REMARK    9  A    between atoms: C15_23  and  O5_24
ROOT
HETATM    1  C10 UNL     1       1.601  11.286  20.016  1.00  0.00     0.179 C
ENDROOT
BRANCH   1   2
HETATM    2  C9  UNL     1       1.037  11.395  21.410  1.00  0.00     0.027 C
BRANCH   2   3
HETATM    3  C8  UNL     1       0.944  10.022  22.046  1.00  0.00     0.002 C
BRANCH   3   4
HETATM    4  C7  UNL     1       1.502   8.943  21.201  1.00  0.00     0.007 C
BRANCH   4   5
HETATM    5  C6  UNL     1       2.617   8.135  21.728  1.00  0.00     0.021 C
HETATM    6  C2  UNL     1       2.984   8.759  23.097  1.00  0.00     0.013 C
HETATM    7  C1  UNL     1       2.876   7.719  24.206  1.00  0.00     0.012 C
HETATM    8  C3  UNL     1       4.403   9.251  22.961  1.00  0.00     0.237 C
HETATM    9  N1  UNL     1       4.496   9.465  21.509  1.00  0.00    -0.070 N
HETATM   10  C4  UNL     1       3.929   8.206  21.051  1.00  0.00     0.186 C
ATOM     11  H12 UNL     1       4.058  10.313  21.150  1.00  0.00     0.277 HD
ATOM     12  H11 UNL     1       5.422   9.699  21.148  1.00  0.00     0.277 HD
HETATM   13  C5  UNL     1       3.983   8.079  19.582  1.00  0.00     0.040 C
ENDBRANCH   4   5
ENDBRANCH   3   4
ENDBRANCH   2   3
ENDBRANCH   1   2
BRANCH   1  14
HETATM   14  O1  UNL     1       2.065  12.488  19.486  1.00  0.00    -0.317 OA
BRANCH  14  15
HETATM   15  C11 UNL     1       3.279  13.009  19.810  1.00  0.00     0.301 C
HETATM   16  O2  UNL     1       4.163  12.331  20.439  1.00  0.00    -0.259 OA
BRANCH  15  17
HETATM   17  C12 UNL     1       3.681  14.389  19.467  1.00  0.00     0.132 A
HETATM   18  C13 UNL     1       3.514  15.037  18.283  1.00  0.00     0.109 A
HETATM   19  C14 UNL     1       4.045  16.302  18.433  1.00  0.00     0.182 A
HETATM   20  O4  UNL     1       4.496  16.383  19.647  1.00  0.00    -0.297 OA
HETATM   21  C15 UNL     1       4.314  15.290  20.310  1.00  0.00     0.202 A
BRANCH  18  22
HETATM   22  O3  UNL     1       2.947  14.584  17.139  1.00  0.00    -0.358 OA
ATOM     23  H3  UNL     1       2.026  14.468  16.936  1.00  0.00     0.217 HD
ENDBRANCH  18  22
BRANCH  21  24
HETATM   24  O5  UNL     1       4.682  15.068  21.612  1.00  0.00    -0.340 OA
ATOM     25  H5  UNL     1       5.100  15.691  22.195  1.00  0.00     0.220 HD
ENDBRANCH  21  24
ENDBRANCH  15  17
ENDBRANCH  14  15
ENDBRANCH   1  14
TORSDOF 9
ENDMDL