MODEL 3
REMARK VINA RESULT: -6.159005508      0.989      2.088
REMARK  7 active torsions:
REMARK  status: ('A' for Active; 'I' for Inactive)
REMARK    1  A    between atoms: C2_2  and  C3_3
REMARK    2  A    between atoms: C3_3  and  C4_4
REMARK    3  A    between atoms: C4_4  and  C5_5
REMARK    4  A    between atoms: C5_5  and  C6_6
REMARK    5  A    between atoms: C6_6  and  N1_7
REMARK    6  A    between atoms: N2_9  and  C7_11
REMARK    7  A    between atoms: N4_25  and  O2_27
ROOT
HETATM    1  C7  UNL     1       7.660  13.468  25.451  1.00  0.00     0.124 C
HETATM    2  C8  UNL     1       6.281  13.209  25.943  1.00  0.00     0.055 C
HETATM    3  C9  UNL     1       6.001  11.802  26.351  1.00  0.00     0.234 C
HETATM    4  N3  UNL     1       6.890  10.873  25.698  1.00  0.00    -0.073 N
ATOM      5  H31 UNL     1       6.722  10.863  24.692  1.00  0.00     0.277 HD
ATOM      6  H32 UNL     1       6.635   9.912  25.925  1.00  0.00     0.277 HD
HETATM    7  C10 UNL     1       8.266  11.103  25.973  1.00  0.00     0.257 C
HETATM    8  C11 UNL     1       8.657  12.555  26.106  1.00  0.00     0.106 C
HETATM    9  C12 UNL     1       8.744  12.835  27.588  1.00  0.00     0.145 C
HETATM   10  O1  UNL     1       8.022  13.686  28.069  1.00  0.00    -0.297 OA
HETATM   11  C13 UNL     1       9.725  12.038  28.372  1.00  0.00     0.080 C
HETATM   12  C14 UNL     1      10.997  11.758  27.648  1.00  0.00     0.013 C
HETATM   13  C15 UNL     1      11.241  12.646  26.455  1.00  0.00     0.056 C
HETATM   14  C16 UNL     1      10.036  12.787  25.603  1.00  0.00     0.029 C
HETATM   15  N4  UNL     1      10.201  13.124  24.381  1.00  0.00    -0.276 N
ATOM     16  H4  UNL     1       9.357  13.214  23.814  1.00  0.00     0.193 HD
ENDROOT
BRANCH   1  17
HETATM   17  N2  UNL     1       7.999  14.830  25.785  1.00  0.00    -0.334 N
HETATM   18  N1  UNL     1       7.917  15.782  25.025  1.00  0.00    -0.340 N
ATOM     19  H1  UNL     1       8.193  16.687  25.407  1.00  0.00     0.179 HD
ATOM     20  H2  UNL     1       8.333  15.013  26.731  1.00  0.00     0.180 HD
BRANCH  18  21
HETATM   21  C6  UNL     1       7.485  15.779  23.677  1.00  0.00     0.139 C
BRANCH  21  22
HETATM   22  C5  UNL     1       6.131  16.462  23.619  1.00  0.00     0.021 C
BRANCH  22  23
HETATM   23  C4  UNL     1       6.218  17.795  24.333  1.00  0.00     0.002 C
BRANCH  23  24
HETATM   24  C3  UNL     1       6.751  18.876  23.434  1.00  0.00    -0.000 C
BRANCH  24  25
HETATM   25  C2  UNL     1       8.048  19.456  23.916  1.00  0.00    -0.005 C
HETATM   26  C1  UNL     1       8.036  19.351  25.444  1.00  0.00     0.005 C
ENDBRANCH  24  25
ENDBRANCH  23  24
ENDBRANCH  22  23
ENDBRANCH  21  22
ENDBRANCH  18  21
ENDBRANCH   1  17
BRANCH  15  27
HETATM   27  O2  UNL     1      11.370  13.373  23.763  1.00  0.00    -0.290 OA
ATOM     28  H2  UNL     1      11.538  13.347  22.828  1.00  0.00     0.244 HD
ENDBRANCH  15  27
TORSDOF 7
ENDMDL