MODEL 2
REMARK VINA RESULT: -6.556364174      2.314      3.160
REMARK  9 active torsions:
REMARK  status: ('A' for Active; 'I' for Inactive)
REMARK    1  A    between atoms: C2_2  and  C3_3
REMARK    2  A    between atoms: C3_3  and  C4_4
REMARK    3  A    between atoms: C5_5  and  C6_6
REMARK    4  A    between atoms: C6_6  and  C7_7
REMARK    5  A    between atoms: C7_7  and  C8_13
REMARK    6  A    between atoms: N1_8  and  N2_10
REMARK    7  A    between atoms: C9_14  and  O1_15
REMARK    8  A    between atoms: C10_17  and  O2_18
REMARK    9  A    between atoms: C11_20  and  C12_21
ROOT
HETATM    1  C8  UNL     1       3.868  14.307  19.866  1.00  0.00     0.100 A
HETATM    2  C9  UNL     1       3.766  14.972  18.665  1.00  0.00     0.120 A
HETATM    3  C10 UNL     1       4.054  16.328  18.514  1.00  0.00     0.134 A
HETATM    4  C11 UNL     1       4.466  17.016  19.650  1.00  0.00     0.115 A
HETATM    5  O3  UNL     1       4.563  16.369  20.803  1.00  0.00    -0.272 OA
HETATM    6  C16 UNL     1       4.289  15.102  20.929  1.00  0.00     0.303 A
HETATM    7  O4  UNL     1       4.396  14.525  22.054  1.00  0.00    -0.259 OA
ENDROOT
BRANCH   1   8
HETATM    8  C7  UNL     1       3.517  12.921  20.058  1.00  0.00     0.047 C
HETATM    9  N1  UNL     1       4.524  12.150  20.414  1.00  0.00    -0.310 N
ATOM     10  H1  UNL     1       5.465  12.540  20.468  1.00  0.00     0.186 HD
BRANCH   8  11
HETATM   11  C6  UNL     1       2.161  12.325  19.993  1.00  0.00     0.086 C
BRANCH  11  12
HETATM   12  C5  UNL     1       1.334  12.525  21.179  1.00  0.00    -0.025 C
HETATM   13  C4  UNL     1       0.757  11.592  21.868  1.00  0.00    -0.030 C
BRANCH  13  14
HETATM   14  C3  UNL     1       0.814  10.156  21.593  1.00  0.00     0.026 C
BRANCH  14  15
HETATM   15  C2  UNL     1       1.645   9.420  22.670  1.00  0.00    -0.001 C
HETATM   16  C1  UNL     1       1.670   7.944  22.427  1.00  0.00     0.005 C
ENDBRANCH  14  15
ENDBRANCH  13  14
ENDBRANCH  11  12
ENDBRANCH   8  11
BRANCH   9  17
HETATM   17  N2  UNL     1       4.317  10.826  20.714  1.00  0.00    -0.345 N
ATOM     18  H22 UNL     1       3.535  10.577  21.320  1.00  0.00     0.176 HD
ATOM     19  H21 UNL     1       4.935  10.107  20.338  1.00  0.00     0.176 HD
ENDBRANCH   9  17
ENDBRANCH   1   8
BRANCH   2  20
HETATM   20  O1  UNL     1       3.376  14.302  17.552  1.00  0.00    -0.357 OA
ATOM     21  H1  UNL     1       2.703  14.668  16.991  1.00  0.00     0.218 HD
ENDBRANCH   2  20
BRANCH   3  22
HETATM   22  O2  UNL     1       3.954  17.022  17.329  1.00  0.00    -0.356 OA
ATOM     23  H2  UNL     1       3.297  17.682  17.145  1.00  0.00     0.218 HD
ENDBRANCH   3  22
BRANCH   4  24
HETATM   24  C12 UNL     1       4.790  18.426  19.570  1.00  0.00     0.042 C
HETATM   25  C13 UNL     1       5.955  18.891  19.914  1.00  0.00    -0.085 C
HETATM   26  C14 UNL     1       6.280  20.359  19.819  1.00  0.00     0.043 C
HETATM   27  C15 UNL     1       7.014  18.036  20.471  1.00  0.00     0.043 C
ENDBRANCH   4  24
TORSDOF 9
ENDMDL