MODEL 2
REMARK VINA RESULT: -6.843683478      1.434      1.801
REMARK  8 active torsions:
REMARK  status: ('A' for Active; 'I' for Inactive)
REMARK    1  A    between atoms: C5_6  and  C6_7
REMARK    2  A    between atoms: C6_7  and  C7_8
REMARK    3  A    between atoms: C7_8  and  C8_9
REMARK    4  A    between atoms: C8_9  and  C9_10
REMARK    5  A    between atoms: C9_10  and  O2_11
REMARK    6  A    between atoms: C9_10  and  C10_13
REMARK    7  A    between atoms: C10_13  and  C11_14
REMARK    8  A    between atoms: C13_19  and  O5_20
ROOT
HETATM    1  C9  UNL     1       2.086  13.035  20.334  1.00  0.00     0.123 C
ENDROOT
BRANCH   1   2
HETATM    2  C8  UNL     1       1.163  12.556  21.438  1.00  0.00     0.032 C
BRANCH   2   3
HETATM    3  C7  UNL     1       0.647  11.170  21.201  1.00  0.00     0.005 C
BRANCH   3   4
HETATM    4  C6  UNL     1       1.286  10.125  22.068  1.00  0.00     0.032 C
BRANCH   4   5
HETATM    5  C5  UNL     1       2.042   9.096  21.253  1.00  0.00     0.121 C
HETATM    6  O1  UNL     1       3.217   9.645  20.839  1.00  0.00    -0.386 OA
HETATM    7  C4  UNL     1       4.332   9.379  21.576  1.00  0.00     0.168 C
HETATM    8  C3  UNL     1       4.125   8.973  22.992  1.00  0.00     0.030 C
HETATM    9  C2  UNL     1       2.967   8.062  23.242  1.00  0.00    -0.014 C
HETATM   10  C1  UNL     1       3.380   6.753  23.866  1.00  0.00     0.010 C
HETATM   11  C14 UNL     1       2.181   7.802  21.988  1.00  0.00     0.036 C
ENDBRANCH   4   5
ENDBRANCH   3   4
ENDBRANCH   2   3
ENDBRANCH   1   2
BRANCH   1  12
HETATM   12  O2  UNL     1       3.373  12.564  20.481  1.00  0.00    -0.395 OA
ATOM     13  H2  UNL     1       3.981  13.244  20.744  1.00  0.00     0.210 HD
ENDBRANCH   1  12
BRANCH   1  14
HETATM   14  C10 UNL     1       1.494  12.561  19.036  1.00  0.00     0.083 C
BRANCH  14  15
HETATM   15  C11 UNL     1       1.572  13.619  17.970  1.00  0.00     0.049 A
HETATM   16  S1  UNL     1       0.396  14.151  16.829  1.00  0.00    -0.021 SA
HETATM   17  C12 UNL     1       1.346  15.345  16.059  1.00  0.00     0.334 A
HETATM   18  O3  UNL     1       1.065  16.139  15.091  1.00  0.00    -0.251 OA
HETATM   19  O4  UNL     1       2.460  15.262  16.703  1.00  0.00    -0.245 OA
HETATM   20  C13 UNL     1       2.619  14.442  17.638  1.00  0.00     0.200 A
BRANCH  20  21
HETATM   21  O5  UNL     1       3.840  14.337  18.356  1.00  0.00    -0.340 OA
ATOM     22  H5  UNL     1       4.350  15.120  18.523  1.00  0.00     0.220 HD
ENDBRANCH  20  21
ENDBRANCH  14  15
ENDBRANCH   1  14
TORSDOF 8
ENDMDL