MODEL 2
REMARK VINA RESULT: -5.677378226      0.686      2.196
REMARK  7 active torsions:
REMARK  status: ('A' for Active; 'I' for Inactive)
REMARK    1  A    between atoms: C2_2  and  C3_3
REMARK    2  A    between atoms: C2_2  and  C12_19
REMARK    3  A    between atoms: C3_3  and  C4_4
REMARK    4  A    between atoms: C4_4  and  C5_5
REMARK    5  A    between atoms: C5_5  and  N1_6
REMARK    6  A    between atoms: C6_7  and  O1_8
REMARK    7  A    between atoms: C9_12  and  O2_13
ROOT
HETATM    1  N1  UNL     1       1.605  13.898  17.853  1.00  0.00    -0.306 N
HETATM    2  C6  UNL     1       0.817  14.606  17.022  1.00  0.00     0.163 A
HETATM    3  C7  UNL     1       1.567  15.664  16.527  1.00  0.00     0.072 A
HETATM    4  C8  UNL     1       2.842  15.579  17.084  1.00  0.00     0.072 A
HETATM    5  C9  UNL     1       2.820  14.482  17.891  1.00  0.00     0.163 A
HETATM    6  S1  UNL     1       4.007  16.837  16.602  1.00  0.00    -0.123 SA
HETATM    7  C10 UNL     1       3.968  16.998  14.806  1.00  0.00     0.090 C
HETATM    8  C11 UNL     1       2.615  17.276  14.255  1.00  0.00     0.090 C
HETATM    9  S2  UNL     1       1.271  17.016  15.409  1.00  0.00    -0.123 SA
ENDROOT
BRANCH   1  10
HETATM   10  C5  UNL     1       1.160  12.698  18.572  1.00  0.00     0.133 C
BRANCH  10  11
HETATM   11  C4  UNL     1       0.752  13.153  19.957  1.00  0.00     0.021 C
BRANCH  11  12
HETATM   12  C3  UNL     1       1.596  12.537  21.027  1.00  0.00     0.016 C
BRANCH  12  13
HETATM   13  C2  UNL     1       2.149  11.187  20.629  1.00  0.00     0.083 C
HETATM   14  C1  UNL     1       3.618  11.076  20.867  1.00  0.00     0.021 C
BRANCH  13  15
HETATM   15  C12 UNL     1       1.442  10.097  21.344  1.00  0.00     0.176 C
HETATM   16  O3  UNL     1       0.433  10.342  22.016  1.00  0.00    -0.648 OA
HETATM   17  O4  UNL     1       1.904   8.803  21.266  1.00  0.00    -0.648 OA
ENDBRANCH  13  15
ENDBRANCH  12  13
ENDBRANCH  11  12
ENDBRANCH  10  11
ENDBRANCH   1  10
BRANCH   2  18
HETATM   18  O1  UNL     1      -0.517  14.357  16.690  1.00  0.00    -0.345 OA
ATOM     19  H1  UNL     1      -1.216  14.990  16.578  1.00  0.00     0.219 HD
ENDBRANCH   2  18
BRANCH   5  20
HETATM   20  O2  UNL     1       3.913  14.049  18.636  1.00  0.00    -0.345 OA
ATOM     21  H2  UNL     1       4.785  14.425  18.618  1.00  0.00     0.219 HD
ENDBRANCH   5  20
TORSDOF 7
ENDMDL