MODEL 1
REMARK VINA RESULT: -5.472610898      0.000      0.000
REMARK  10 active torsions:
REMARK  status: ('A' for Active; 'I' for Inactive)
REMARK    1  A    between atoms: C2_2  and  O1_3
REMARK    2  A    between atoms: O1_3  and  C3_4
REMARK       I    between atoms: C3_4  and  N1_6
REMARK    3  A    between atoms: N1_6  and  C4_8
REMARK    4  A    between atoms: C6_12  and  S1_13
REMARK    5  A    between atoms: S1_13  and  C7_14
REMARK    6  A    between atoms: C7_14  and  C8_15
REMARK    7  A    between atoms: C8_15  and  C9_16
REMARK    8  A    between atoms: C9_16  and  C10_17
REMARK    9  A    between atoms: C10_17  and  O3_18
REMARK   10  A    between atoms: N3_20  and  O4_22
ROOT
HETATM    1  C4  UNL     1       1.155  11.932  19.429  1.00  0.00     0.154 A
HETATM    2  N2  UNL     1       1.093  12.380  20.682  1.00  0.00    -0.344 N
ATOM      3  H2  UNL     1       1.022  13.379  20.874  1.00  0.00     0.167 HD
HETATM    4  C5  UNL     1       1.127  11.520  21.654  1.00  0.00     0.116 A
HETATM    5  C6  UNL     1       1.224  10.192  21.337  1.00  0.00     0.060 A
HETATM    6  S2  UNL     1       1.263  10.244  19.623  1.00  0.00    -0.045 SA
ENDROOT
BRANCH   5   7
HETATM    7  S1  UNL     1       1.290   8.777  22.453  1.00  0.00    -0.121 SA
BRANCH   7   8
HETATM    8  C7  UNL     1       2.897   8.861  23.296  1.00  0.00     0.080 C
BRANCH   8   9
HETATM    9  C8  UNL     1       4.041   8.796  22.292  1.00  0.00     0.019 C
BRANCH   9  10
HETATM   10  C9  UNL     1       4.784  10.081  22.198  1.00  0.00     0.086 C
BRANCH  10  11
HETATM   11  C10 UNL     1       4.926  10.515  20.811  1.00  0.00     0.135 C
HETATM   12  N3  UNL     1       4.639  11.644  20.364  1.00  0.00    -0.251 N
ATOM     13  H3  UNL     1       4.813  11.743  19.365  1.00  0.00     0.196 HD
BRANCH  11  14
HETATM   14  O3  UNL     1       5.433   9.568  19.903  1.00  0.00    -0.348 OA
ATOM     15  H3  UNL     1       5.464   9.828  18.990  1.00  0.00     0.219 HD
ENDBRANCH  11  14
BRANCH  12  16
HETATM   16  O4  UNL     1       4.147  12.755  20.934  1.00  0.00    -0.288 OA
ATOM     17  H4  UNL     1       3.921  13.612  20.592  1.00  0.00     0.244 HD
ENDBRANCH  12  16
ENDBRANCH  10  11
ENDBRANCH   9  10
ENDBRANCH   8   9
ENDBRANCH   7   8
ENDBRANCH   5   7
BRANCH   1  18
HETATM   18  N1  UNL     1       1.138  12.601  18.301  1.00  0.00    -0.282 N
HETATM   19  C3  UNL     1       1.933  13.739  18.103  1.00  0.00     0.366 C
HETATM   20  O2  UNL     1       3.192  13.747  18.290  1.00  0.00    -0.238 OA
ATOM     21  H1  UNL     1       0.530  12.284  17.546  1.00  0.00     0.173 HD
BRANCH  19  22
HETATM   22  O1  UNL     1       1.341  14.908  17.686  1.00  0.00    -0.304 OA
BRANCH  22  23
HETATM   23  C2  UNL     1       1.397  15.394  16.358  1.00  0.00     0.176 C
HETATM   24  C1  UNL     1       0.279  14.777  15.582  1.00  0.00     0.034 C
ENDBRANCH  22  23
ENDBRANCH  19  22
ENDBRANCH   1  18
TORSDOF 10
ENDMDL