MODEL 4
REMARK VINA RESULT: -5.906914829      1.517      2.970
REMARK  11 active torsions:
REMARK  status: ('A' for Active; 'I' for Inactive)
REMARK    1  A    between atoms: C3_3  and  C4_4
REMARK    2  A    between atoms: C4_4  and  C5_5
REMARK    3  A    between atoms: C5_5  and  C6_6
REMARK    4  A    between atoms: C7_8  and  O2_9
REMARK    5  A    between atoms: C8_11  and  C9_12
REMARK    6  A    between atoms: C9_12  and  C10_13
REMARK    7  A    between atoms: C10_13  and  C11_14
REMARK    8  A    between atoms: C10_13  and  O5_20
REMARK    9  A    between atoms: C12_15  and  O3_16
REMARK   10  A    between atoms: C12_15  and  O4_18
REMARK   11  A    between atoms: C15_22  and  O6_23
ROOT
HETATM    1  C6  UNL     1       1.705  11.487  20.141  1.00  0.00     0.112 A
HETATM    2  O1  UNL     1       1.137  12.371  19.361  1.00  0.00    -0.285 OA
HETATM    3  C7  UNL     1       1.976  13.339  19.053  1.00  0.00     0.193 A
HETATM    4  C8  UNL     1       3.173  13.074  19.670  1.00  0.00     0.042 A
HETATM    5  C15 UNL     1       3.033  11.913  20.363  1.00  0.00     0.111 A
ENDROOT
BRANCH   4   6
HETATM    6  C9  UNL     1       4.362  13.971  19.545  1.00  0.00     0.111 C
BRANCH   6   7
HETATM    7  C10 UNL     1       4.346  15.079  20.466  1.00  0.00     0.054 C
BRANCH   7   8
HETATM    8  C11 UNL     1       4.726  16.285  20.249  1.00  0.00     0.096 C
HETATM    9  C12 UNL     1       4.334  17.115  19.149  1.00  0.00     0.179 C
BRANCH   9  10
HETATM   10  O3  UNL     1       4.837  18.313  19.120  1.00  0.00    -0.341 OA
ATOM     11  H3  UNL     1       5.670  18.435  19.561  1.00  0.00     0.220 HD
ENDBRANCH   9  10
BRANCH   9  12
HETATM   12  O4  UNL     1       3.497  16.839  18.103  1.00  0.00    -0.336 OA
HETATM   13  C13 UNL     1       3.881  16.593  16.789  1.00  0.00     0.212 C
ENDBRANCH   9  12
ENDBRANCH   7   8
BRANCH   7  14
HETATM   14  O5  UNL     1       3.851  14.811  21.778  1.00  0.00    -0.360 OA
HETATM   15  C14 UNL     1       4.151  15.773  22.799  1.00  0.00     0.209 C
ENDBRANCH   7  14
ENDBRANCH   6   7
ENDBRANCH   4   6
BRANCH   3  16
HETATM   16  O2  UNL     1       1.597  14.395  18.234  1.00  0.00    -0.340 OA
ATOM     17  H2  UNL     1       1.998  14.532  17.384  1.00  0.00     0.220 HD
ENDBRANCH   3  16
BRANCH   5  18
HETATM   18  O6  UNL     1       3.946  11.260  21.123  1.00  0.00    -0.357 OA
ATOM     19  H6  UNL     1       3.768  10.858  21.966  1.00  0.00     0.217 HD
ENDBRANCH   5  18
BRANCH   1  20
HETATM   20  C5  UNL     1       1.103  10.291  20.684  1.00  0.00     0.040 C
BRANCH  20  21
HETATM   21  C4  UNL     1       0.887  10.072  21.933  1.00  0.00     0.003 C
BRANCH  21  22
HETATM   22  C3  UNL     1       1.687   9.315  22.881  1.00  0.00    -0.004 C
HETATM   23  C2  UNL     1       2.318   8.191  22.510  1.00  0.00    -0.031 C
HETATM   24  C1  UNL     1       3.141   7.398  23.450  1.00  0.00     0.036 C
ENDBRANCH  21  22
ENDBRANCH  20  21
ENDBRANCH   1  20
TORSDOF 11
ENDMDL