MODEL 5
REMARK VINA RESULT: -6.040919165      2.947      5.664
REMARK  9 active torsions:
REMARK  status: ('A' for Active; 'I' for Inactive)
REMARK    1  A    between atoms: C2_2  and  C3_3
REMARK    2  A    between atoms: C3_3  and  C4_4
REMARK    3  A    between atoms: C4_4  and  C5_5
REMARK    4  A    between atoms: C5_5  and  O1_6
REMARK    5  A    between atoms: O1_6  and  C6_7
REMARK    6  A    between atoms: C6_7  and  C7_9
REMARK    7  A    between atoms: C9_13  and  O3_14
REMARK    8  A    between atoms: C11_18  and  O4_19
REMARK    9  A    between atoms: C13_22  and  C14_23
ROOT
HETATM    1  C7  UNL     1       3.684  13.004  20.147  1.00  0.00     0.124 A
HETATM    2  N1  UNL     1       4.543  12.118  20.628  1.00  0.00    -0.346 N
ATOM      3  H1  UNL     1       5.544  12.286  20.734  1.00  0.00     0.166 HD
HETATM    4  C8  UNL     1       3.930  10.968  20.957  1.00  0.00     0.100 A
HETATM    5  C9  UNL     1       4.068   9.682  21.465  1.00  0.00     0.172 A
HETATM    6  N2  UNL     1       2.849   9.108  21.474  1.00  0.00    -0.310 N
HETATM    7  C10 UNL     1       2.567   7.759  21.935  1.00  0.00     0.160 C
HETATM    8  C11 UNL     1       1.919   9.932  21.005  1.00  0.00     0.157 A
HETATM    9  C12 UNL     1       2.589  11.112  20.674  1.00  0.00     0.062 A
HETATM   10  C13 UNL     1       2.432  12.388  20.166  1.00  0.00     0.059 A
ENDROOT
BRANCH   1  11
HETATM   11  C6  UNL     1       3.933  14.361  19.678  1.00  0.00     0.311 C
HETATM   12  O2  UNL     1       3.782  14.695  18.499  1.00  0.00    -0.258 OA
BRANCH  11  13
HETATM   13  O1  UNL     1       4.353  15.302  20.594  1.00  0.00    -0.316 OA
BRANCH  13  14
HETATM   14  C5  UNL     1       4.140  15.279  21.974  1.00  0.00     0.179 C
BRANCH  14  15
HETATM   15  C4  UNL     1       5.380  15.513  22.786  1.00  0.00     0.027 C
BRANCH  15  16
HETATM   16  C3  UNL     1       5.074  15.570  24.270  1.00  0.00     0.002 C
BRANCH  16  17
HETATM   17  C2  UNL     1       6.121  14.732  24.991  1.00  0.00    -0.004 C
HETATM   18  C1  UNL     1       5.583  14.236  26.300  1.00  0.00     0.005 C
ENDBRANCH  16  17
ENDBRANCH  15  16
ENDBRANCH  14  15
ENDBRANCH  13  14
ENDBRANCH  11  13
ENDBRANCH   1  11
BRANCH  10  19
HETATM   19  C14 UNL     1       1.201  13.001  19.724  1.00  0.00     0.159 C
HETATM   20  C15 UNL     1       0.772  13.006  18.308  1.00  0.00     0.097 C
HETATM   21  O5  UNL     1       0.464  13.552  20.572  1.00  0.00    -0.293 OA
ENDBRANCH  10  19
BRANCH   5  22
HETATM   22  O3  UNL     1       5.279   9.142  21.876  1.00  0.00    -0.344 OA
ATOM     23  H3  UNL     1       6.125   9.510  21.646  1.00  0.00     0.219 HD
ENDBRANCH   5  22
BRANCH   8  24
HETATM   24  O4  UNL     1       0.560   9.791  20.827  1.00  0.00    -0.345 OA
ATOM     25  H4  UNL     1      -0.058   9.130  21.116  1.00  0.00     0.219 HD
ENDBRANCH   8  24
TORSDOF 9
ENDMDL