MODEL 4
REMARK VINA RESULT: -6.125181826      6.745     10.285
REMARK  6 active torsions:
REMARK  status: ('A' for Active; 'I' for Inactive)
REMARK    1  A    between atoms: C2_2  and  C3_3
REMARK    2  A    between atoms: C2_2  and  C5_11
REMARK    3  A    between atoms: C3_3  and  C4_4
REMARK    4  A    between atoms: N2_6  and  N3_8
REMARK    5  A    between atoms: C5_11  and  N4_13
REMARK    6  A    between atoms: N4_13  and  C7_15
ROOT
HETATM    1  C1  UNL     1      36.861  31.836  34.856  1.00  0.00     0.012 C
HETATM    2  C2  UNL     1      35.359  32.213  34.909  1.00  0.00     0.010 C
ENDROOT
BRANCH   2   3
HETATM    3  C3  UNL     1      35.148  33.283  33.929  1.00  0.00     0.081 C
BRANCH   3   4
HETATM    4  C4  UNL     1      34.272  34.397  34.317  1.00  0.00     0.107 C
HETATM    5  N1  UNL     1      34.790  35.718  34.066  1.00  0.00    -0.086 NA
HETATM    6  N2  UNL     1      33.121  34.317  34.849  1.00  0.00    -0.298 N
ATOM      7  H2  UNL     1      32.731  33.394  35.040  1.00  0.00     0.187 HD
BRANCH   6   8
HETATM    8  N3  UNL     1      32.380  35.432  35.176  1.00  0.00    -0.344 N
ATOM      9  H32 UNL     1      32.877  36.313  35.303  1.00  0.00     0.176 HD
ATOM     10  H31 UNL     1      31.366  35.399  35.292  1.00  0.00     0.176 HD
ENDBRANCH   6   8
ENDBRANCH   3   4
ENDBRANCH   2   3
BRANCH   2  11
HETATM   11  C5  UNL     1      34.602  30.941  34.806  1.00  0.00     0.077 C
HETATM   12  C6  UNL     1      33.425  31.065  35.823  1.00  0.00     0.032 C
BRANCH  11  13
HETATM   13  N4  UNL     1      35.248  29.753  35.148  1.00  0.00    -0.413 N
ATOM     14  H4  UNL     1      35.942  29.386  34.497  1.00  0.00     0.154 HD
BRANCH  13  15
HETATM   15  C7  UNL     1      35.015  29.037  36.307  1.00  0.00     0.077 A
HETATM   16  C8  UNL     1      36.192  28.452  37.066  1.00  0.00     0.027 A
HETATM   17  C9  UNL     1      35.275  27.553  36.299  1.00  0.00     0.027 A
ENDBRANCH  13  15
ENDBRANCH  11  13
ENDBRANCH   2  11
TORSDOF 6
ENDMDL