MODEL 1
REMARK VINA RESULT: -6.081240879      0.000      0.000
REMARK  5 active torsions:
REMARK  status: ('A' for Active; 'I' for Inactive)
REMARK    1  A    between atoms: C2_2  and  C3_3
REMARK    2  A    between atoms: C3_3  and  N1_4
REMARK    3  A    between atoms: C3_3  and  C4_9
REMARK    4  A    between atoms: N1_4  and  N2_6
REMARK       I    between atoms: C4_9  and  N3_11
REMARK    5  A    between atoms: N3_11  and  C5_13
ROOT
HETATM    1  C4  UNL     1      33.629  28.744  35.652  1.00  0.00     0.242 C
HETATM    2  O1  UNL     1      32.833  27.866  35.188  1.00  0.00    -0.271 OA
HETATM    3  N3  UNL     1      34.045  28.565  36.997  1.00  0.00    -0.354 N
ATOM      4  H3  UNL     1      34.683  29.253  37.397  1.00  0.00     0.162 HD
ENDROOT
BRANCH   1   5
HETATM    5  C3  UNL     1      34.101  29.891  34.846  1.00  0.00     0.190 C
BRANCH   5   6
HETATM    6  C2  UNL     1      34.913  30.878  35.645  1.00  0.00     0.032 C
HETATM    7  C1  UNL     1      34.648  32.261  35.085  1.00  0.00     0.007 C
ENDBRANCH   5   6
BRANCH   5   8
HETATM    8  N1  UNL     1      33.056  30.588  34.174  1.00  0.00    -0.329 N
ATOM      9  H1  UNL     1      32.770  31.532  34.436  1.00  0.00     0.180 HD
BRANCH   8  10
HETATM   10  N2  UNL     1      32.461  29.895  33.148  1.00  0.00    -0.349 N
ATOM     11  H22 UNL     1      31.942  29.033  33.316  1.00  0.00     0.176 HD
ATOM     12  H21 UNL     1      32.578  30.308  32.223  1.00  0.00     0.176 HD
ENDBRANCH   8  10
ENDBRANCH   5   8
ENDBRANCH   1   5
BRANCH   3  13
HETATM   13  C5  UNL     1      33.624  27.481  37.822  1.00  0.00     0.089 C
HETATM   14  C6  UNL     1      34.123  27.507  39.246  1.00  0.00     0.030 C
HETATM   15  C7  UNL     1      34.594  26.098  39.191  1.00  0.00    -0.006 A
HETATM   16  C8  UNL     1      33.937  25.050  38.393  1.00  0.00     0.012 A
HETATM   17  C9  UNL     1      34.451  26.202  37.646  1.00  0.00     0.013 A
ENDBRANCH   3  13
TORSDOF 5
ENDMDL