MODEL 1
REMARK VINA RESULT: -5.962141220      0.000      0.000
REMARK  5 active torsions:
REMARK  status: ('A' for Active; 'I' for Inactive)
REMARK    1  A    between atoms: N1_1  and  C1_5
REMARK    2  A    between atoms: C1_5  and  C2_6
REMARK    3  A    between atoms: C2_6  and  N2_7
REMARK    4  A    between atoms: N2_7  and  C3_10
REMARK    5  A    between atoms: C6_13  and  C7_14
ROOT
HETATM    1  C3  UNL     1      34.154  26.987  36.035  1.00  0.00     0.186 C
HETATM    2  C4  UNL     1      33.477  25.802  36.648  1.00  0.00     0.034 C
HETATM    3  C5  UNL     1      33.676  25.913  38.148  1.00  0.00     0.015 C
HETATM    4  C6  UNL     1      35.185  25.952  38.372  1.00  0.00     0.075 C
HETATM    5  C8  UNL     1      35.785  27.216  37.803  1.00  0.00     0.015 C
HETATM    6  C9  UNL     1      34.695  27.960  37.046  1.00  0.00     0.034 C
ENDROOT
BRANCH   1   7
HETATM    7  N2  UNL     1      33.301  27.560  35.044  1.00  0.00    -0.069 N
ATOM      8  H22 UNL     1      32.615  28.204  35.437  1.00  0.00     0.277 HD
ATOM      9  H21 UNL     1      32.644  26.886  34.650  1.00  0.00     0.277 HD
BRANCH   7  10
HETATM   10  C2  UNL     1      34.140  28.180  34.037  1.00  0.00     0.260 C
BRANCH  10  11
HETATM   11  C1  UNL     1      33.577  29.519  33.591  1.00  0.00     0.257 C
BRANCH  11  12
HETATM   12  N1  UNL     1      32.143  29.307  33.375  1.00  0.00    -0.078 N
ATOM     13  H13 UNL     1      31.629  29.108  34.233  1.00  0.00     0.274 HD
ATOM     14  H12 UNL     1      31.640  30.157  33.121  1.00  0.00     0.274 HD
ATOM     15  H11 UNL     1      32.068  28.567  32.676  1.00  0.00     0.274 HD
ENDBRANCH  11  12
ENDBRANCH  10  11
ENDBRANCH   7  10
ENDBRANCH   1   7
BRANCH   4  16
HETATM   16  C7  UNL     1      35.414  25.825  39.819  1.00  0.00     0.235 C
HETATM   17  N3  UNL     1      36.680  26.023  40.418  1.00  0.00    -0.062 NA
HETATM   18  O1  UNL     1      34.418  25.524  40.560  1.00  0.00    -0.277 OA
ENDBRANCH   4  16
TORSDOF 5
ENDMDL