MODEL 2
REMARK VINA RESULT: -6.004113269      2.639      4.393
REMARK  5 active torsions:
REMARK  status: ('A' for Active; 'I' for Inactive)
REMARK    1  A    between atoms: C2_2  and  C3_3
REMARK    2  A    between atoms: C2_2  and  C4_6
REMARK    3  A    between atoms: C4_6  and  N2_7
REMARK    4  A    between atoms: C4_6  and  C5_11
REMARK    5  A    between atoms: C5_11  and  C6_12
ROOT
HETATM    1  C4  UNL     1      31.418  39.413  28.153  1.00  0.00     0.201 C
ENDROOT
BRANCH   1   2
HETATM    2  C2  UNL     1      30.937  40.569  28.962  1.00  0.00     0.101 C
HETATM    3  C1  UNL     1      30.094  41.554  28.236  1.00  0.00     0.021 C
BRANCH   2   4
HETATM    4  C3  UNL     1      30.225  40.166  30.195  1.00  0.00     0.236 C
HETATM    5  N1  UNL     1      28.810  40.121  30.129  1.00  0.00    -0.062 NA
HETATM    6  O1  UNL     1      30.757  39.861  31.283  1.00  0.00    -0.276 OA
ENDBRANCH   2   4
ENDBRANCH   1   2
BRANCH   1   7
HETATM    7  N2  UNL     1      31.226  39.642  26.730  1.00  0.00    -0.074 N
ATOM      8  H23 UNL     1      30.936  40.601  26.543  1.00  0.00     0.274 HD
ATOM      9  H22 UNL     1      32.116  39.645  26.230  1.00  0.00     0.274 HD
ATOM     10  H21 UNL     1      30.575  38.968  26.328  1.00  0.00     0.274 HD
ENDBRANCH   1   7
BRANCH   1  11
HETATM   11  C5  UNL     1      32.822  38.998  28.396  1.00  0.00     0.092 C
BRANCH  11  12
HETATM   12  C6  UNL     1      33.010  38.092  29.555  1.00  0.00     0.027 A
HETATM   13  C7  UNL     1      32.853  36.724  29.523  1.00  0.00     0.114 A
HETATM   14  N3  UNL     1      33.097  36.214  30.735  1.00  0.00    -0.360 N
HETATM   15  C8  UNL     1      33.407  37.228  31.548  1.00  0.00     0.180 A
ATOM     16  H3  UNL     1      33.055  35.228  30.992  1.00  0.00     0.166 HD
HETATM   17  N4  UNL     1      33.354  38.378  30.825  1.00  0.00    -0.355 N
ATOM     18  H4  UNL     1      33.545  39.312  31.188  1.00  0.00     0.166 HD
ENDBRANCH  11  12
ENDBRANCH   1  11
TORSDOF 5
ENDMDL