MODEL 4
REMARK VINA RESULT: -5.971030502      2.199      4.017
REMARK  5 active torsions:
REMARK  status: ('A' for Active; 'I' for Inactive)
REMARK    1  A    between atoms: C2_2  and  C4_4
REMARK    2  A    between atoms: C4_4  and  O1_5
REMARK    3  A    between atoms: C5_7  and  N1_8
REMARK    4  A    between atoms: C5_7  and  C9_13
REMARK    5  A    between atoms: N1_8  and  C6_10
ROOT
HETATM    1  C4  UNL     1      32.338  37.690  28.935  1.00  0.00     0.078 C
HETATM    2  C5  UNL     1      32.312  38.429  27.716  1.00  0.00     0.123 C
ENDROOT
BRANCH   2   3
HETATM    3  N1  UNL     1      31.812  39.712  27.485  1.00  0.00    -0.379 N
ATOM      4  H1  UNL     1      31.983  40.180  26.596  1.00  0.00     0.160 HD
BRANCH   3   5
HETATM    5  C6  UNL     1      31.069  40.350  28.496  1.00  0.00     0.082 A
HETATM    6  C7  UNL     1      29.582  40.183  28.575  1.00  0.00     0.027 A
HETATM    7  C8  UNL     1      30.222  41.529  28.424  1.00  0.00     0.027 A
ENDBRANCH   3   5
ENDBRANCH   2   3
BRANCH   2   8
HETATM    8  C9  UNL     1      31.951  37.589  26.543  1.00  0.00     0.283 C
HETATM    9  N2  UNL     1      32.793  36.740  25.831  1.00  0.00    -0.056 NA
HETATM   10  O2  UNL     1      30.745  37.661  26.138  1.00  0.00    -0.269 OA
ENDBRANCH   2   8
BRANCH   1  11
HETATM   11  C2  UNL     1      32.747  38.038  30.279  1.00  0.00     0.036 C
HETATM   12  C1  UNL     1      33.334  36.872  31.081  1.00  0.00     0.016 C
HETATM   13  C3  UNL     1      31.448  38.412  31.042  1.00  0.00     0.016 C
ENDBRANCH   1  11
BRANCH   1  14
HETATM   14  O1  UNL     1      32.932  36.399  28.691  1.00  0.00    -0.362 OA
ATOM     15  H1  UNL     1      32.585  36.127  27.849  1.00  0.00     0.217 HD
ENDBRANCH   1  14
TORSDOF 5
ENDMDL