MODEL 4
REMARK VINA RESULT: -5.954020711      2.246      4.508
REMARK  6 active torsions:
REMARK  status: ('A' for Active; 'I' for Inactive)
REMARK    1  A    between atoms: C2_2  and  C4_4
REMARK    2  A    between atoms: C4_4  and  C5_5
REMARK    3  A    between atoms: C5_5  and  N1_6
REMARK    4  A    between atoms: C5_5  and  C9_15
REMARK    5  A    between atoms: N1_6  and  C6_8
REMARK    6  A    between atoms: C8_10  and  N2_11
ROOT
HETATM    1  N1  UNL     1      32.920  38.530  29.160  1.00  0.00    -0.403 N
ATOM      2  H1  UNL     1      33.839  38.960  29.262  1.00  0.00     0.154 HD
ENDROOT
BRANCH   1   3
HETATM    3  C5  UNL     1      32.129  38.862  28.050  1.00  0.00     0.167 C
BRANCH   3   4
HETATM    4  C4  UNL     1      30.705  39.222  28.288  1.00  0.00     0.038 C
BRANCH   4   5
HETATM    5  C2  UNL     1      30.483  40.429  29.159  1.00  0.00    -0.020 C
HETATM    6  C1  UNL     1      29.236  40.156  29.996  1.00  0.00     0.009 C
HETATM    7  C3  UNL     1      30.179  41.683  28.364  1.00  0.00     0.009 C
ENDBRANCH   4   5
ENDBRANCH   3   4
BRANCH   3   8
HETATM    8  C9  UNL     1      32.131  37.774  27.015  1.00  0.00     0.253 C
HETATM    9  N3  UNL     1      31.390  37.844  25.831  1.00  0.00    -0.060 NA
HETATM   10  O1  UNL     1      32.851  36.727  27.212  1.00  0.00    -0.275 OA
ENDBRANCH   3   8
ENDBRANCH   1   3
BRANCH   1  11
HETATM   11  C6  UNL     1      32.475  37.611  30.147  1.00  0.00     0.109 A
HETATM   12  C7  UNL     1      31.844  37.917  31.420  1.00  0.00     0.061 A
HETATM   13  C8  UNL     1      33.312  37.609  31.404  1.00  0.00     0.207 A
BRANCH  13  14
HETATM   14  N2  UNL     1      33.713  36.397  32.043  1.00  0.00    -0.073 N
ATOM     15  H23 UNL     1      33.245  36.354  32.949  1.00  0.00     0.274 HD
ATOM     16  H22 UNL     1      33.279  35.622  31.542  1.00  0.00     0.274 HD
ATOM     17  H21 UNL     1      34.694  36.162  32.189  1.00  0.00     0.274 HD
ENDBRANCH  13  14
ENDBRANCH   1  11
TORSDOF 6
ENDMDL