MODEL 3
REMARK VINA RESULT: -5.685452498      1.281      1.514
REMARK  6 active torsions:
REMARK  status: ('A' for Active; 'I' for Inactive)
REMARK    1  A    between atoms: C2_2  and  N1_3
REMARK    2  A    between atoms: C2_2  and  C3_7
REMARK    3  A    between atoms: C3_7  and  N2_8
REMARK    4  A    between atoms: N2_8  and  C4_10
REMARK    5  A    between atoms: C4_10  and  C5_11
REMARK    6  A    between atoms: C5_11  and  N3_12
ROOT
HETATM    1  C4  UNL     1      33.329  37.561  31.823  1.00  0.00     0.149 C
ENDROOT
BRANCH   1   2
HETATM    2  N2  UNL     1      34.070  36.685  32.650  1.00  0.00    -0.399 N
ATOM      3  H2  UNL     1      34.994  36.960  32.981  1.00  0.00     0.158 HD
BRANCH   2   4
HETATM    4  C3  UNL     1      33.543  35.449  33.015  1.00  0.00     0.087 C
BRANCH   4   5
HETATM    5  C2  UNL     1      33.646  34.983  34.421  1.00  0.00     0.217 C
HETATM    6  C1  UNL     1      33.970  33.539  34.603  1.00  0.00     0.045 C
BRANCH   5   7
HETATM    7  N1  UNL     1      32.479  35.298  35.217  1.00  0.00    -0.071 N
ATOM      8  H13 UNL     1      32.557  36.200  35.686  1.00  0.00     0.275 HD
ATOM      9  H12 UNL     1      31.661  35.508  34.645  1.00  0.00     0.275 HD
ATOM     10  H11 UNL     1      32.314  34.530  35.868  1.00  0.00     0.275 HD
ENDBRANCH   5   7
ENDBRANCH   4   5
ENDBRANCH   2   4
ENDBRANCH   1   2
BRANCH   1  11
HETATM   11  C5  UNL     1      32.980  36.877  30.542  1.00  0.00     0.292 C
BRANCH  11  12
HETATM   12  N3  UNL     1      32.190  37.606  29.634  1.00  0.00     0.093 N
HETATM   13  C6  UNL     1      32.714  37.922  28.367  1.00  0.00     0.300 C
HETATM   14  C7  UNL     1      32.966  39.435  28.317  1.00  0.00     0.262 C
HETATM   15  N4  UNL     1      31.696  40.147  28.370  1.00  0.00    -0.072 N
HETATM   16  C8  UNL     1      30.757  39.470  29.253  1.00  0.00     0.262 C
ATOM     17  H42 UNL     1      31.823  41.124  28.632  1.00  0.00     0.277 HD
ATOM     18  H41 UNL     1      31.304  40.288  27.439  1.00  0.00     0.277 HD
HETATM   19  C9  UNL     1      31.532  38.704  30.305  1.00  0.00     0.300 C
ENDBRANCH  11  12
ENDBRANCH   1  11
TORSDOF 6
ENDMDL