MODEL 3
REMARK VINA RESULT: -6.127724438      3.520      6.852
REMARK  5 active torsions:
REMARK  status: ('A' for Active; 'I' for Inactive)
REMARK    1  A    between atoms: N1_2  and  C2_5
REMARK    2  A    between atoms: C2_5  and  C3_6
REMARK    3  A    between atoms: C3_6  and  O1_7
REMARK    4  A    between atoms: O1_7  and  C4_8
REMARK    5  A    between atoms: C6_10  and  C7_11
ROOT
HETATM    1  C4  UNL     1      32.844  37.048  29.708  1.00  0.00     0.142 A
HETATM    2  C5  UNL     1      33.019  36.018  30.596  1.00  0.00     0.074 A
HETATM    3  C6  UNL     1      33.416  36.509  31.848  1.00  0.00     0.048 A
HETATM    4  C8  UNL     1      33.471  37.875  31.674  1.00  0.00     0.106 A
HETATM    5  N3  UNL     1      33.136  38.185  30.420  1.00  0.00    -0.346 N
ATOM      6  H3  UNL     1      33.102  39.133  30.044  1.00  0.00     0.167 HD
ENDROOT
BRANCH   1   7
HETATM    7  O1  UNL     1      32.460  36.999  28.393  1.00  0.00    -0.334 OA
BRANCH   7   8
HETATM    8  C3  UNL     1      32.734  37.861  27.374  1.00  0.00     0.204 C
BRANCH   8   9
HETATM    9  C2  UNL     1      31.539  38.674  26.932  1.00  0.00     0.258 C
BRANCH   9  10
HETATM   10  N1  UNL     1      31.467  39.916  27.699  1.00  0.00    -0.077 N
HETATM   11  C1  UNL     1      30.315  39.873  28.576  1.00  0.00     0.267 C
ATOM     12  H12 UNL     1      31.465  40.741  27.098  1.00  0.00     0.276 HD
ATOM     13  H11 UNL     1      32.332  40.108  28.205  1.00  0.00     0.276 HD
ENDBRANCH   9  10
ENDBRANCH   8   9
ENDBRANCH   7   8
ENDBRANCH   1   7
BRANCH   3  14
HETATM   14  C7  UNL     1      33.700  35.736  33.040  1.00  0.00     0.266 C
HETATM   15  N2  UNL     1      32.894  34.640  33.390  1.00  0.00    -0.057 NA
HETATM   16  O2  UNL     1      34.669  36.053  33.754  1.00  0.00    -0.271 OA
ENDBRANCH   3  14
TORSDOF 5
ENDMDL