MODEL 3
REMARK VINA RESULT: -6.172200494      2.974      7.876
REMARK  4 active torsions:
REMARK  status: ('A' for Active; 'I' for Inactive)
REMARK    1  A    between atoms: C2_2  and  N1_3
REMARK    2  A    between atoms: N1_3  and  C3_6
REMARK    3  A    between atoms: C3_6  and  C4_7
REMARK    4  A    between atoms: C4_7  and  N2_8
ROOT
HETATM    1  N2  UNL     1      33.370  36.837  30.292  1.00  0.00    -0.373 N
ATOM      2  H2  UNL     1      33.867  35.953  30.187  1.00  0.00     0.161 HD
HETATM    3  C5  UNL     1      32.905  37.497  29.279  1.00  0.00     0.134 A
HETATM    4  N3  UNL     1      32.897  37.297  27.873  1.00  0.00    -0.325 N
ATOM      5  H3  UNL     1      33.258  36.572  27.253  1.00  0.00     0.169 HD
HETATM    6  C6  UNL     1      32.189  38.505  27.679  1.00  0.00     0.139 A
HETATM    7  N4  UNL     1      31.549  39.528  27.036  1.00  0.00    -0.337 N
ATOM      8  H4  UNL     1      31.404  39.631  26.031  1.00  0.00     0.168 HD
HETATM    9  C7  UNL     1      31.148  40.370  28.007  1.00  0.00     0.182 A
HETATM   10  N5  UNL     1      31.527  39.892  29.205  1.00  0.00    -0.346 N
ATOM     11  H5  UNL     1      31.349  40.340  30.104  1.00  0.00     0.167 HD
HETATM   12  C8  UNL     1      32.177  38.731  29.029  1.00  0.00     0.122 A
ENDROOT
BRANCH   1  13
HETATM   13  C4  UNL     1      33.134  37.449  31.590  1.00  0.00     0.148 C
BRANCH  13  14
HETATM   14  C3  UNL     1      33.090  36.336  32.611  1.00  0.00     0.251 C
BRANCH  14  15
HETATM   15  N1  UNL     1      34.366  36.110  33.198  1.00  0.00    -0.074 N
ATOM     16  H12 UNL     1      34.787  36.981  33.520  1.00  0.00     0.277 HD
ATOM     17  H11 UNL     1      35.058  35.850  32.495  1.00  0.00     0.277 HD
BRANCH  15  18
HETATM   18  C2  UNL     1      34.301  35.144  34.246  1.00  0.00     0.228 C
HETATM   19  C1  UNL     1      35.342  34.037  34.034  1.00  0.00     0.034 C
ENDBRANCH  15  18
ENDBRANCH  14  15
ENDBRANCH  13  14
ENDBRANCH   1  13
TORSDOF 4
ENDMDL