MODEL 3
REMARK VINA RESULT: -5.735000925      1.617      5.316
REMARK  0 active torsions:
REMARK  status: ('A' for Active; 'I' for Inactive)
ROOT
HETATM    1  C1  UNL     1      54.149  58.278   9.364  1.00  0.00     0.029 C
HETATM    2  C2  UNL     1      52.709  58.013   8.968  1.00  0.00     0.021 C
HETATM    3  C3  UNL     1      52.580  57.832   7.453  1.00  0.00     0.113 C
HETATM    4  N1  UNL     1      52.520  56.437   7.191  1.00  0.00    -0.421 N
ATOM      5  H1  UNL     1      52.653  55.742   7.926  1.00  0.00     0.153 HD
HETATM    6  C4  UNL     1      52.264  56.068   5.848  1.00  0.00     0.114 C
HETATM    7  C5  UNL     1      53.245  56.619   4.845  1.00  0.00     0.029 C
HETATM    8  C6  UNL     1      54.065  55.495   4.195  1.00  0.00     0.026 C
HETATM    9  C7  UNL     1      54.720  56.046   2.971  1.00  0.00     0.010 C
HETATM   10  C8  UNL     1      55.221  54.995   2.020  1.00  0.00     0.006 C
HETATM   11  C9  UNL     1      56.569  54.440   2.403  1.00  0.00     0.045 C
HETATM   12  C10 UNL     1      56.566  53.813   3.769  1.00  0.00     0.068 C
HETATM   13  N2  UNL     1      56.305  54.690   4.827  1.00  0.00    -0.352 N
HETATM   14  C11 UNL     1      57.264  55.657   5.163  1.00  0.00     0.094 C
HETATM   15  C12 UNL     1      57.923  55.415   6.506  1.00  0.00     0.212 C
HETATM   16  O1  UNL     1      57.860  56.561   7.300  1.00  0.00    -0.385 OA
HETATM   17  C13 UNL     1      58.099  56.300   8.626  1.00  0.00     0.195 C
HETATM   18  C14 UNL     1      57.097  57.102   9.441  1.00  0.00     0.258 C
HETATM   19  N3  UNL     1      55.812  56.464   9.313  1.00  0.00    -0.073 N
ATOM     20  H31 UNL     1      55.873  55.475   9.553  1.00  0.00     0.277 HD
ATOM     21  H32 UNL     1      55.544  56.383   8.332  1.00  0.00     0.277 HD
HETATM   22  C15 UNL     1      54.778  57.109  10.071  1.00  0.00     0.232 C
HETATM   23  C16 UNL     1      54.971  54.915   5.203  1.00  0.00     0.072 C
ENDROOT
TORSDOF 0
ENDMDL