MODEL 2
REMARK VINA RESULT: -6.782048766      1.862      4.107
REMARK  2 active torsions:
REMARK  status: ('A' for Active; 'I' for Inactive)
REMARK    1  A    between atoms: C5_6  and  N2_7
REMARK    2  A    between atoms: N3_15  and  O1_16
ROOT
HETATM    1  C1  UNL     1      59.523  56.053   7.403  1.00  0.00     0.052 C
HETATM    2  C2  UNL     1      58.177  56.284   7.949  1.00  0.00    -0.015 C
HETATM    3  C3  UNL     1      58.043  57.006   9.130  1.00  0.00     0.056 C
HETATM    4  N1  UNL     1      59.206  57.657   9.575  1.00  0.00    -0.102 NA
HETATM    5  C4  UNL     1      56.901  57.162   9.931  1.00  0.00     0.057 C
HETATM    6  C5  UNL     1      55.615  56.784   9.595  1.00  0.00     0.041 C
HETATM    7  C6  UNL     1      55.150  56.595   8.313  1.00  0.00     0.032 A
HETATM    8  C7  UNL     1      53.821  56.945   8.199  1.00  0.00    -0.017 A
HETATM    9  C8  UNL     1      53.246  56.778   6.951  1.00  0.00    -0.022 A
HETATM   10  C9  UNL     1      53.973  56.294   5.889  1.00  0.00     0.044 A
HETATM   11  C10 UNL     1      53.317  56.132   4.571  1.00  0.00     0.071 C
HETATM   12  N3  UNL     1      55.272  55.954   5.994  1.00  0.00    -0.227 N
HETATM   13  C11 UNL     1      55.836  56.106   7.188  1.00  0.00     0.097 A
HETATM   14  C12 UNL     1      57.161  55.718   7.194  1.00  0.00     0.082 C
HETATM   15  C13 UNL     1      57.473  54.603   6.347  1.00  0.00     0.102 C
HETATM   16  N4  UNL     1      57.766  53.658   5.682  1.00  0.00    -0.191 NA
HETATM   17  C14 UNL     1      51.815  57.194   7.042  1.00  0.00     0.045 C
HETATM   18  C15 UNL     1      51.784  58.104   8.251  1.00  0.00     0.033 C
HETATM   19  C16 UNL     1      52.871  57.478   9.093  1.00  0.00    -0.013 C
ENDROOT
BRANCH  12  20
HETATM   20  O1  UNL     1      56.002  55.510   4.941  1.00  0.00    -0.282 OA
ATOM     21  H1  UNL     1      56.499  56.091   4.378  1.00  0.00     0.245 HD
ENDBRANCH  12  20
BRANCH   6  22
HETATM   22  N2  UNL     1      54.734  56.553  10.493  1.00  0.00    -0.398 N
ATOM     23  H22 UNL     1      54.766  57.214  11.270  1.00  0.00     0.156 HD
ATOM     24  H21 UNL     1      54.070  55.785  10.398  1.00  0.00     0.156 HD
ENDBRANCH   6  22
TORSDOF 2
ENDMDL