MODEL 2
REMARK VINA RESULT: -6.976176780      2.751      5.453
REMARK  1 active torsions:
REMARK  status: ('A' for Active; 'I' for Inactive)
REMARK    1  A    between atoms: C2_2  and  C5_5
ROOT
HETATM    1  C5  UNL     1      55.380  56.969   8.054  1.00  0.00    -0.004 C
HETATM    2  C6  UNL     1      55.794  57.861   7.179  1.00  0.00     0.024 C
HETATM    3  C7  UNL     1      54.966  58.437   6.088  1.00  0.00     0.123 C
HETATM    4  C8  UNL     1      55.328  59.901   5.881  1.00  0.00     0.146 C
HETATM    5  C9  UNL     1      54.819  60.400   4.597  1.00  0.00     0.228 C
HETATM    6  O1  UNL     1      54.580  61.627   4.472  1.00  0.00    -0.273 OA
HETATM    7  N1  UNL     1      54.579  59.564   3.472  1.00  0.00    -0.279 N
ATOM      8  H1  UNL     1      54.244  59.958   2.592  1.00  0.00     0.173 HD
HETATM    9  C10 UNL     1      54.817  58.153   3.600  1.00  0.00     0.324 C
HETATM   10  O2  UNL     1      54.619  57.376   2.631  1.00  0.00    -0.247 OA
HETATM   11  N2  UNL     1      55.284  57.701   4.871  1.00  0.00    -0.323 N
ATOM     12  H2  UNL     1      55.846  56.853   4.927  1.00  0.00     0.165 HD
HETATM   13  C11 UNL     1      53.533  58.336   6.387  1.00  0.00     0.174 C
HETATM   14  O3  UNL     1      52.741  59.180   6.002  1.00  0.00    -0.294 OA
HETATM   15  C12 UNL     1      52.967  57.205   7.172  1.00  0.00     0.081 C
HETATM   16  C13 UNL     1      52.234  56.270   6.248  1.00  0.00     0.032 C
HETATM   17  C14 UNL     1      51.952  57.754   8.158  1.00  0.00     0.032 C
HETATM   18  C15 UNL     1      54.002  56.503   7.959  1.00  0.00     0.171 C
HETATM   19  O4  UNL     1      53.631  55.460   8.556  1.00  0.00    -0.291 OA
ENDROOT
BRANCH   1  20
HETATM   20  C2  UNL     1      56.315  56.485   9.083  1.00  0.00    -0.021 C
HETATM   21  C1  UNL     1      56.965  55.173   8.731  1.00  0.00     0.019 C
HETATM   22  C3  UNL     1      57.429  57.487   9.283  1.00  0.00     0.019 C
HETATM   23  C4  UNL     1      55.564  56.405  10.398  1.00  0.00     0.019 C
ENDBRANCH   1  20
TORSDOF 1
ENDMDL