MODEL 2
REMARK VINA RESULT: -6.550497753      1.747      3.690
REMARK  0 active torsions:
REMARK  status: ('A' for Active; 'I' for Inactive)
ROOT
HETATM    1  C1  UNL     1      51.586  58.058   9.023  1.00  0.00     0.000 C
HETATM    2  C2  UNL     1      52.659  57.854  10.062  1.00  0.00     0.000 C
HETATM    3  C3  UNL     1      53.998  58.394   9.639  1.00  0.00     0.002 C
HETATM    4  C4  UNL     1      55.081  57.367   9.642  1.00  0.00     0.038 C
HETATM    5  C5  UNL     1      55.214  56.549   8.424  1.00  0.00     0.253 C
HETATM    6  C6  UNL     1      54.341  56.983   7.270  1.00  0.00     0.219 C
HETATM    7  C7  UNL     1      52.912  56.626   7.530  1.00  0.00     0.035 C
HETATM    8  C8  UNL     1      52.054  57.865   7.622  1.00  0.00     0.002 C
HETATM    9  N1  UNL     1      54.774  56.179   6.114  1.00  0.00    -0.069 N
ATOM     10  H11 UNL     1      54.876  55.190   6.342  1.00  0.00     0.277 HD
ATOM     11  H12 UNL     1      55.742  56.363   5.851  1.00  0.00     0.277 HD
HETATM   12  C9  UNL     1      53.849  56.403   5.018  1.00  0.00     0.234 C
HETATM   13  C10 UNL     1      54.589  56.668   3.713  1.00  0.00     0.055 C
HETATM   14  C11 UNL     1      55.370  55.478   3.253  1.00  0.00     0.234 C
HETATM   15  N2  UNL     1      56.741  55.911   3.014  1.00  0.00    -0.073 N
ATOM     16  H21 UNL     1      56.855  56.904   3.217  1.00  0.00     0.277 HD
ATOM     17  H22 UNL     1      56.956  55.924   2.016  1.00  0.00     0.277 HD
HETATM   18  C12 UNL     1      57.696  55.117   3.741  1.00  0.00     0.258 C
HETATM   19  C13 UNL     1      58.446  55.983   4.731  1.00  0.00     0.195 C
HETATM   20  O1  UNL     1      58.707  55.242   5.881  1.00  0.00    -0.389 OA
HETATM   21  C14 UNL     1      59.073  56.031   6.960  1.00  0.00     0.175 C
HETATM   22  C15 UNL     1      58.382  55.509   8.181  1.00  0.00     0.066 C
HETATM   23  C16 UNL     1      57.582  56.605   8.896  1.00  0.00     0.281 C
HETATM   24  N3  UNL     1      56.558  56.424   7.916  1.00  0.00     0.096 N
HETATM   25  C17 UNL     1      56.981  55.042   7.777  1.00  0.00     0.281 C
ENDROOT
TORSDOF 0
ENDMDL