MODEL 2
REMARK VINA RESULT: -6.451961525      3.784      5.128
REMARK  0 active torsions:
REMARK  status: ('A' for Active; 'I' for Inactive)
ROOT
HETATM    1  C1  UNL     1      51.386  58.034   9.239  1.00  0.00     0.049 C
HETATM    2  C2  UNL     1      52.597  57.815   8.386  1.00  0.00    -0.054 A
HETATM    3  C3  UNL     1      52.782  58.467   7.216  1.00  0.00     0.016 A
HETATM    4  C4  UNL     1      53.891  58.272   6.426  1.00  0.00    -0.034 A
HETATM    5  C5  UNL     1      54.021  59.021   5.164  1.00  0.00     0.050 C
HETATM    6  C6  UNL     1      54.831  57.371   6.871  1.00  0.00     0.053 A
HETATM    7  N1  UNL     1      55.918  57.167   6.115  1.00  0.00    -0.349 N
ATOM      8  H1  UNL     1      56.016  57.680   5.239  1.00  0.00     0.166 HD
HETATM    9  C7  UNL     1      56.886  56.302   6.478  1.00  0.00     0.133 A
HETATM   10  C8  UNL     1      57.991  56.098   5.703  1.00  0.00     0.280 A
HETATM   11  O1  UNL     1      58.090  56.752   4.618  1.00  0.00    -0.265 OA
HETATM   12  N2  UNL     1      58.926  55.234   6.099  1.00  0.00    -0.269 N
HETATM   13  C9  UNL     1      60.115  55.017   5.261  1.00  0.00     0.164 C
HETATM   14  C10 UNL     1      58.791  54.556   7.257  1.00  0.00     0.329 A
HETATM   15  O2  UNL     1      59.679  53.747   7.613  1.00  0.00    -0.246 OA
HETATM   16  N3  UNL     1      57.729  54.727   8.038  1.00  0.00    -0.303 N
ATOM     17  H3  UNL     1      57.638  54.208   8.911  1.00  0.00     0.171 HD
HETATM   18  C11 UNL     1      56.776  55.596   7.656  1.00  0.00     0.120 A
HETATM   19  C12 UNL     1      55.640  55.821   8.428  1.00  0.00     0.214 A
HETATM   20  O3  UNL     1      55.547  55.181   9.487  1.00  0.00    -0.285 OA
HETATM   21  C13 UNL     1      54.643  56.705   8.063  1.00  0.00     0.050 A
HETATM   22  C14 UNL     1      53.537  56.893   8.861  1.00  0.00    -0.040 A
HETATM   23  C15 UNL     1      53.355  56.167  10.141  1.00  0.00     0.050 C
ENDROOT
TORSDOF 0
ENDMDL