MODEL 2
REMARK VINA RESULT: -6.284866536      1.358      4.303
REMARK  1 active torsions:
REMARK  status: ('A' for Active; 'I' for Inactive)
REMARK    1  A    between atoms: C12_18  and  O4_19
ROOT
HETATM    1  O1  UNL     1      52.064  57.525  10.309  1.00  0.00    -0.293 OA
HETATM    2  C1  UNL     1      52.599  57.840   9.259  1.00  0.00     0.175 C
HETATM    3  C2  UNL     1      51.872  57.605   8.008  1.00  0.00     0.083 C
HETATM    4  C3  UNL     1      52.761  57.256   6.841  1.00  0.00     0.007 C
HETATM    5  C4  UNL     1      52.040  56.252   5.930  1.00  0.00     0.000 C
HETATM    6  C5  UNL     1      52.922  55.927   4.756  1.00  0.00     0.000 C
HETATM    7  C6  UNL     1      54.067  55.017   5.110  1.00  0.00     0.000 C
HETATM    8  C7  UNL     1      55.402  55.690   4.908  1.00  0.00     0.000 C
HETATM    9  C8  UNL     1      56.489  54.912   5.632  1.00  0.00     0.000 C
HETATM   10  C9  UNL     1      57.433  55.808   6.379  1.00  0.00     0.001 C
HETATM   11  C10 UNL     1      57.599  55.396   7.833  1.00  0.00     0.017 C
HETATM   12  C11 UNL     1      56.333  55.600   8.613  1.00  0.00     0.163 C
HETATM   13  S1  UNL     1      56.305  57.231   9.343  1.00  0.00     0.228 S
HETATM   14  O2  UNL     1      57.349  57.204  10.450  1.00  0.00    -0.206 OA
HETATM   15  O3  UNL     1      56.742  58.269   8.373  1.00  0.00    -0.206 OA
HETATM   16  N1  UNL     1      54.798  57.525  10.061  1.00  0.00    -0.285 N
ATOM     17  H1  UNL     1      54.511  57.081  10.933  1.00  0.00     0.175 HD
HETATM   18  C12 UNL     1      53.957  58.442   9.354  1.00  0.00     0.298 C
ENDROOT
BRANCH  18  19
HETATM   19  O4  UNL     1      54.453  58.889   8.161  1.00  0.00    -0.369 OA
ATOM     20  H4  UNL     1      55.401  58.853   8.099  1.00  0.00     0.212 HD
ENDBRANCH  18  19
TORSDOF 1
ENDMDL