MODEL 3
REMARK VINA RESULT: -6.366944459      2.171      4.150
REMARK  0 active torsions:
REMARK  status: ('A' for Active; 'I' for Inactive)
ROOT
HETATM    1  O1  UNL     1      56.160  55.774   9.335  1.00  0.00    -0.205 OA
HETATM    2  S1  UNL     1      56.023  56.470   7.980  1.00  0.00     0.234 S
HETATM    3  O2  UNL     1      57.399  57.090   7.742  1.00  0.00    -0.205 OA
HETATM    4  N1  UNL     1      55.698  55.356   6.832  1.00  0.00    -0.314 N
ATOM      5  H1  UNL     1      56.157  54.447   6.896  1.00  0.00     0.172 HD
HETATM    6  C1  UNL     1      54.826  55.585   5.769  1.00  0.00     0.093 C
HETATM    7  C2  UNL     1      54.936  56.884   5.064  1.00  0.00     0.031 C
HETATM    8  C3  UNL     1      53.718  57.685   5.444  1.00  0.00    -0.008 C
HETATM    9  C4  UNL     1      54.047  58.960   6.131  1.00  0.00     0.006 C
HETATM   10  C5  UNL     1      55.071  58.907   7.191  1.00  0.00     0.026 C
HETATM   11  C6  UNL     1      54.909  57.821   8.212  1.00  0.00     0.175 C
HETATM   12  C7  UNL     1      53.543  57.475   8.585  1.00  0.00     0.192 C
HETATM   13  C8  UNL     1      52.500  57.265   7.608  1.00  0.00     0.057 C
HETATM   14  C9  UNL     1      52.835  56.799   6.241  1.00  0.00    -0.005 C
HETATM   15  C10 UNL     1      53.402  55.407   6.230  1.00  0.00     0.031 C
HETATM   16  N2  UNL     1      53.021  58.458   9.561  1.00  0.00    -0.055 N
ATOM     17  H21 UNL     1      52.874  59.385   9.163  1.00  0.00     0.279 HD
ATOM     18  H22 UNL     1      53.706  58.731  10.266  1.00  0.00     0.279 HD
HETATM   19  C11 UNL     1      51.831  57.879  10.116  1.00  0.00     0.244 C
HETATM   20  C12 UNL     1      52.228  56.597  10.814  1.00  0.00     0.104 C
HETATM   21  S2  UNL     1      53.620  56.050   9.747  1.00  0.00    -0.127 SA
ENDROOT
TORSDOF 0
ENDMDL