MODEL 3
REMARK VINA RESULT: -5.604073819      3.013      4.413
REMARK  2 active torsions:
REMARK  status: ('A' for Active; 'I' for Inactive)
REMARK    1  A    between atoms: C2_2  and  N1_5
REMARK       I    between atoms: C5_7  and  N2_8
REMARK       I    between atoms: C5_7  and  N4_18
REMARK       I    between atoms: N2_8  and  C6_10
REMARK       I    between atoms: C6_10  and  N3_12
REMARK    2  A    between atoms: N4_18  and  C11_20
ROOT
HETATM    1  N1  UNL     1      53.495  56.473   8.061  1.00  0.00    -0.218 N
ATOM      2  H1  UNL     1      52.800  55.757   7.850  1.00  0.00     0.178 HD
HETATM    3  C5  UNL     1      54.554  56.359   7.376  1.00  0.00     0.679 C
HETATM    4  N2  UNL     1      55.610  57.242   7.526  1.00  0.00    -0.142 N
ATOM      5  H2  UNL     1      55.522  57.997   8.207  1.00  0.00     0.189 HD
HETATM    6  C6  UNL     1      56.811  57.143   6.775  1.00  0.00     0.336 C
HETATM    7  O1  UNL     1      57.004  56.243   5.916  1.00  0.00    -0.246 OA
HETATM    8  N3  UNL     1      57.883  58.079   6.958  1.00  0.00    -0.330 N
HETATM    9  C7  UNL     1      57.711  59.127   7.910  1.00  0.00     0.153 C
HETATM   10  C8  UNL     1      58.822  60.114   7.976  1.00  0.00     0.187 C
HETATM   11  O2  UNL     1      60.053  59.647   7.527  1.00  0.00    -0.388 OA
HETATM   12  C9  UNL     1      59.939  59.161   6.218  1.00  0.00     0.187 C
HETATM   13  C10 UNL     1      59.072  57.930   6.192  1.00  0.00     0.153 C
HETATM   14  N4  UNL     1      54.629  55.301   6.453  1.00  0.00    -0.218 N
ATOM     15  H4  UNL     1      55.371  54.613   6.584  1.00  0.00     0.178 HD
ENDROOT
BRANCH   1  16
HETATM   16  C2  UNL     1      53.076  57.377   9.048  1.00  0.00     0.036 C
HETATM   17  C1  UNL     1      54.093  58.420   9.441  1.00  0.00     0.038 C
HETATM   18  C3  UNL     1      52.646  56.628  10.289  1.00  0.00     0.038 C
HETATM   19  C4  UNL     1      51.818  58.078   8.489  1.00  0.00     0.038 C
ENDBRANCH   1  16
BRANCH  14  20
HETATM   20  C11 UNL     1      53.741  55.115   5.341  1.00  0.00     0.036 C
HETATM   21  C12 UNL     1      52.505  54.383   5.872  1.00  0.00     0.038 C
HETATM   22  C13 UNL     1      54.356  54.137   4.330  1.00  0.00     0.038 C
HETATM   23  C14 UNL     1      53.333  56.342   4.617  1.00  0.00     0.038 C
ENDBRANCH  14  20
TORSDOF 2
ENDMDL