MODEL 1
REMARK VINA RESULT: -7.510837342      0.000      0.000
REMARK  1 active torsions:
REMARK  status: ('A' for Active; 'I' for Inactive)
REMARK    1  A    between atoms: C13_17  and  O3_18
ROOT
HETATM    1  O1  UNL     1      57.320  57.931   6.042  1.00  0.00    -0.273 OA
HETATM    2  C1  UNL     1      56.550  57.019   5.580  1.00  0.00     0.224 C
HETATM    3  C2  UNL     1      56.853  55.659   6.100  1.00  0.00     0.103 C
HETATM    4  C3  UNL     1      57.548  55.716   7.451  1.00  0.00     0.009 C
HETATM    5  C4  UNL     1      56.652  55.383   8.600  1.00  0.00     0.000 C
HETATM    6  C5  UNL     1      56.174  56.635   9.313  1.00  0.00     0.000 C
HETATM    7  C6  UNL     1      55.184  56.323  10.393  1.00  0.00     0.000 C
HETATM    8  C7  UNL     1      53.911  55.824   9.752  1.00  0.00     0.000 C
HETATM    9  C8  UNL     1      52.778  56.772  10.052  1.00  0.00     0.000 C
HETATM   10  C9  UNL     1      52.790  58.028   9.230  1.00  0.00     0.000 C
HETATM   11  C10 UNL     1      51.969  57.839   7.985  1.00  0.00     0.009 C
HETATM   12  C11 UNL     1      52.838  57.476   6.777  1.00  0.00     0.103 C
HETATM   13  C12 UNL     1      52.302  56.252   6.125  1.00  0.00     0.223 C
HETATM   14  O2  UNL     1      51.010  56.210   6.168  1.00  0.00    -0.273 OA
HETATM   15  N1  UNL     1      53.035  55.220   5.513  1.00  0.00    -0.303 N
ATOM     16  H1  UNL     1      52.850  54.287   5.881  1.00  0.00     0.171 HD
HETATM   17  C13 UNL     1      53.984  55.270   4.470  1.00  0.00     0.212 C
HETATM   18  C14 UNL     1      54.704  56.412   3.944  1.00  0.00     0.299 C
HETATM   19  O4  UNL     1      54.577  56.605   2.665  1.00  0.00    -0.263 OA
HETATM   20  N2  UNL     1      55.516  57.325   4.660  1.00  0.00    -0.290 N
ATOM     21  H2  UNL     1      55.336  58.316   4.496  1.00  0.00     0.172 HD
ENDROOT
BRANCH  17  22
HETATM   22  O3  UNL     1      54.278  54.148   3.875  1.00  0.00    -0.342 OA
ATOM     23  H3  UNL     1      54.985  54.163   3.241  1.00  0.00     0.219 HD
ENDBRANCH  17  22
TORSDOF 1
ENDMDL