MODEL 4
REMARK VINA RESULT: -5.630520070      3.188      4.426
REMARK  1 active torsions:
REMARK  status: ('A' for Active; 'I' for Inactive)
REMARK       I    between atoms: N2_8  and  C7_9
REMARK       I    between atoms: C7_9  and  N4_13
REMARK    1  A    between atoms: N4_13  and  C8_15
ROOT
HETATM    1  N1  UNL     1      55.130  59.736   6.805  1.00  0.00    -0.195 NA
HETATM    2  C1  UNL     1      54.780  58.747   7.292  1.00  0.00     0.085 C
HETATM    3  C2  UNL     1      54.344  57.495   7.937  1.00  0.00     0.209 C
HETATM    4  C3  UNL     1      54.344  57.671   9.436  1.00  0.00     0.041 C
HETATM    5  C4  UNL     1      53.153  58.482   9.903  1.00  0.00     0.004 C
HETATM    6  C5  UNL     1      51.906  57.775   9.420  1.00  0.00     0.020 C
HETATM    7  C6  UNL     1      51.898  57.858   7.908  1.00  0.00     0.143 C
HETATM    8  N2  UNL     1      53.063  57.140   7.412  1.00  0.00    -0.201 N
HETATM    9  C7  UNL     1      52.949  56.124   6.442  1.00  0.00     0.671 C
HETATM   10  N3  UNL     1      51.815  55.913   5.888  1.00  0.00    -0.235 N
ATOM     11  H31 UNL     1      51.733  55.178   5.186  1.00  0.00     0.174 HD
ATOM     12  H32 UNL     1      51.009  56.481   6.151  1.00  0.00     0.174 HD
HETATM   13  N4  UNL     1      54.062  55.339   6.078  1.00  0.00    -0.222 N
ATOM     14  H4  UNL     1      54.291  54.544   6.675  1.00  0.00     0.178 HD
ENDROOT
BRANCH  13  15
HETATM   15  C8  UNL     1      54.904  55.573   4.923  1.00  0.00     0.101 C
HETATM   16  C9  UNL     1      55.530  54.303   4.472  1.00  0.00     0.040 C
HETATM   17  C10 UNL     1      55.071  53.803   3.146  1.00  0.00     0.142 C
HETATM   18  S1  UNL     1      55.426  55.074   1.931  1.00  0.00     0.144 S
HETATM   19  O1  UNL     1      54.728  54.767   0.641  1.00  0.00    -0.228 OA
HETATM   20  O2  UNL     1      56.916  55.173   1.766  1.00  0.00    -0.228 OA
HETATM   21  C11 UNL     1      54.867  56.604   2.637  1.00  0.00     0.142 C
HETATM   22  C12 UNL     1      54.061  56.250   3.875  1.00  0.00     0.040 C
ENDBRANCH  13  15
TORSDOF 1
ENDMDL