MODEL 4
REMARK VINA RESULT: -8.517700240      1.413      1.927
REMARK  6 active torsions:
REMARK  status: ('A' for Active; 'I' for Inactive)
REMARK       I    between atoms: C2_3  and  N2_5
REMARK    1  A    between atoms: N2_5  and  N3_7
REMARK    2  A    between atoms: N3_7  and  C3_9
REMARK    3  A    between atoms: C3_9  and  N4_11
REMARK    4  A    between atoms: N4_11  and  N5_13
REMARK    5  A    between atoms: N5_13  and  S2_15
REMARK    6  A    between atoms: S2_15  and  C4_18
ROOT
HETATM    1  N1  UNL     1       2.424   1.091  87.989  1.00  0.00    -0.186 NA
HETATM    2  C1  UNL     1       3.533   0.898  88.267  1.00  0.00     0.163 C
HETATM    3  C2  UNL     1       4.893   0.659  88.631  1.00  0.00     0.340 C
HETATM    4  O1  UNL     1       5.303  -0.510  88.799  1.00  0.00    -0.254 OA
HETATM    5  N2  UNL     1       5.774   1.739  88.799  1.00  0.00    -0.255 N
ATOM      6  H2  UNL     1       5.452   2.698  88.664  1.00  0.00     0.191 HD
ENDROOT
BRANCH   5   7
HETATM    7  N3  UNL     1       7.099   1.477  89.155  1.00  0.00    -0.272 N
ATOM      8  H3  UNL     1       7.583   0.704  88.698  1.00  0.00     0.189 HD
BRANCH   7   9
HETATM    9  C3  UNL     1       7.793   2.230  90.114  1.00  0.00     0.206 C
HETATM   10  S1  UNL     1       8.950   1.516  91.004  1.00  0.00    -0.038 SA
BRANCH   9  11
HETATM   11  N4  UNL     1       7.485   3.595  90.295  1.00  0.00    -0.265 N
ATOM     12  H4  UNL     1       6.556   3.926  90.035  1.00  0.00     0.190 HD
BRANCH  11  13
HETATM   13  N5  UNL     1       8.398   4.507  90.818  1.00  0.00    -0.221 N
ATOM     14  H5  UNL     1       9.276   4.795  90.387  1.00  0.00     0.200 HD
BRANCH  13  15
HETATM   15  S2  UNL     1       7.771   5.065  92.334  1.00  0.00     0.276 S
HETATM   16  O2  UNL     1       6.345   5.545  92.174  1.00  0.00    -0.199 OA
HETATM   17  O3  UNL     1       7.745   3.932  93.347  1.00  0.00    -0.199 OA
BRANCH  15  18
HETATM   18  C4  UNL     1       8.756   6.345  93.007  1.00  0.00     0.081 A
HETATM   19  C5  UNL     1       8.166   7.340  93.759  1.00  0.00     0.025 A
HETATM   20  C6  UNL     1       8.972   8.345  94.283  1.00  0.00     0.002 A
HETATM   21  C7  UNL     1      10.347   8.341  94.049  1.00  0.00     0.000 A
HETATM   22  C8  UNL     1      10.924   7.345  93.299  1.00  0.00     0.002 A
HETATM   23  C9  UNL     1      10.128   6.362  92.788  1.00  0.00     0.025 A
ENDBRANCH  15  18
ENDBRANCH  13  15
ENDBRANCH  11  13
ENDBRANCH   9  11
ENDBRANCH   7   9
ENDBRANCH   5   7
TORSDOF 6
ENDMDL