MODEL 1
REMARK VINA RESULT: -7.328684627      0.000      0.000
REMARK  4 active torsions:
REMARK  status: ('A' for Active; 'I' for Inactive)
REMARK       I    between atoms: N1_2  and  C2_4
REMARK       I    between atoms: C2_4  and  N4_9
REMARK    1  A    between atoms: C8_15  and  N5_16
REMARK    2  A    between atoms: N5_16  and  C9_18
REMARK    3  A    between atoms: C10_21  and  C11_22
REMARK    4  A    between atoms: C11_22  and  O2_23
ROOT
HETATM    1  C1  UNL     1       6.678   7.270  95.552  1.00  0.00     0.165 C
HETATM    2  N1  UNL     1       7.066   7.255  94.159  1.00  0.00    -0.228 N
ATOM      3  H1  UNL     1       6.572   7.873  93.515  1.00  0.00     0.177 HD
HETATM    4  C2  UNL     1       8.095   6.427  93.639  1.00  0.00     0.709 C
HETATM    5  N2  UNL     1       9.292   6.882  93.621  1.00  0.00    -0.124 N
ATOM      6  H2  UNL     1      10.040   6.296  93.250  1.00  0.00     0.197 HD
HETATM    7  C3  UNL     1       9.600   8.156  94.096  1.00  0.00     0.196 C
HETATM    8  N3  UNL     1       9.852   9.219  94.510  1.00  0.00    -0.171 NA
HETATM    9  N4  UNL     1       7.837   5.122  93.142  1.00  0.00    -0.076 N
HETATM   10  O1  UNL     1       7.520   3.988  93.827  1.00  0.00    -0.248 OA
HETATM   11  C4  UNL     1       7.991   3.294  92.708  1.00  0.00     0.135 C
HETATM   12  C5  UNL     1       9.453   2.902  92.904  1.00  0.00     0.045 C
HETATM   13  C6  UNL     1       9.251   1.540  93.583  1.00  0.00     0.005 C
HETATM   14  C7  UNL     1       8.269   0.927  92.611  1.00  0.00     0.028 C
HETATM   15  C8  UNL     1       7.232   2.042  92.483  1.00  0.00     0.123 C
HETATM   16  C10 UNL     1       7.794   4.465  91.826  1.00  0.00     0.196 C
ENDROOT
BRANCH  16  17
HETATM   17  C11 UNL     1       9.010   4.915  91.039  1.00  0.00     0.195 C
BRANCH  17  18
HETATM   18  O2  UNL     1       8.997   4.409  89.743  1.00  0.00    -0.399 OA
ATOM     19  H2  UNL     1       9.567   4.905  89.168  1.00  0.00     0.209 HD
ENDBRANCH  17  18
ENDBRANCH  16  17
BRANCH  15  20
HETATM   20  N5  UNL     1       6.517   1.975  91.257  1.00  0.00    -0.362 N
ATOM     21  H5  UNL     1       5.500   2.056  91.262  1.00  0.00     0.162 HD
BRANCH  20  22
HETATM   22  C9  UNL     1       7.192   1.798  90.036  1.00  0.00     0.181 C
HETATM   23  N6  UNL     1       6.850   2.594  88.918  1.00  0.00    -0.070 NA
HETATM   24  S1  UNL     1       8.379   0.693  89.841  1.00  0.00    -0.044 SA
ENDBRANCH  20  22
ENDBRANCH  15  20
TORSDOF 4
ENDMDL