MODEL 4
REMARK VINA RESULT: -7.023946505      1.217      1.359
REMARK  8 active torsions:
REMARK  status: ('A' for Active; 'I' for Inactive)
REMARK    1  A    between atoms: N1_2  and  C2_4
REMARK    2  A    between atoms: C2_4  and  N2_6
REMARK    3  A    between atoms: C3_8  and  C4_9
REMARK    4  A    between atoms: C4_9  and  N3_10
REMARK       I    between atoms: N3_10  and  C5_12
REMARK       I    between atoms: C5_12  and  N4_14
REMARK    5  A    between atoms: N4_14  and  N5_16
REMARK    6  A    between atoms: N5_16  and  C6_18
REMARK    7  A    between atoms: C6_18  and  N6_20
REMARK    8  A    between atoms: N6_20  and  N7_22
ROOT
HETATM    1  N3  UNL     1       8.530   6.559  92.187  1.00  0.00    -0.337 N
ATOM      2  H3  UNL     1       9.381   6.829  91.694  1.00  0.00     0.164 HD
HETATM    3  C5  UNL     1       7.799   5.426  91.766  1.00  0.00     0.335 C
HETATM    4  O1  UNL     1       6.755   5.095  92.371  1.00  0.00    -0.246 OA
HETATM    5  N4  UNL     1       8.264   4.671  90.646  1.00  0.00    -0.249 N
ATOM      6  H4  UNL     1       9.116   4.946  90.157  1.00  0.00     0.192 HD
ENDROOT
BRANCH   1   7
HETATM    7  C4  UNL     1       8.078   7.329  93.307  1.00  0.00     0.169 C
BRANCH   7   8
HETATM    8  C3  UNL     1       9.245   7.751  94.112  1.00  0.00     0.083 C
HETATM    9  N2  UNL     1      10.454   7.681  93.681  1.00  0.00    -0.345 N
ATOM     10  H2  UNL     1      10.647   7.322  92.746  1.00  0.00     0.167 HD
BRANCH   9  11
HETATM   11  C2  UNL     1      11.516   8.109  94.521  1.00  0.00     0.171 C
HETATM   12  S1  UNL     1      11.196   9.333  95.545  1.00  0.00    -0.041 SA
BRANCH  11  13
HETATM   13  N1  UNL     1      12.807   7.528  94.502  1.00  0.00    -0.371 N
HETATM   14  C1  UNL     1      13.618   7.671  93.308  1.00  0.00     0.148 C
ATOM     15  H1  UNL     1      13.160   7.020  95.313  1.00  0.00     0.161 HD
ENDBRANCH  11  13
ENDBRANCH   9  11
ENDBRANCH   7   8
ENDBRANCH   1   7
BRANCH   5  16
HETATM   16  N5  UNL     1       7.534   3.544  90.227  1.00  0.00    -0.271 N
ATOM     17  H5  UNL     1       6.537   3.624  90.029  1.00  0.00     0.189 HD
BRANCH  16  18
HETATM   18  C6  UNL     1       8.181   2.314  90.081  1.00  0.00     0.210 C
HETATM   19  S2  UNL     1       9.283   1.861  91.193  1.00  0.00    -0.038 SA
BRANCH  18  20
HETATM   20  N6  UNL     1       7.908   1.454  89.002  1.00  0.00    -0.214 N
ATOM     21  H6  UNL     1       8.689   1.007  88.520  1.00  0.00     0.195 HD
BRANCH  20  22
HETATM   22  N7  UNL     1       6.600   1.189  88.564  1.00  0.00    -0.037 N
HETATM   23  O2  UNL     1       6.387   0.912  87.373  1.00  0.00    -0.516 OA
HETATM   24  O3  UNL     1       5.535   1.230  89.446  1.00  0.00    -0.516 OA
ENDBRANCH  20  22
ENDBRANCH  18  20
ENDBRANCH  16  18
ENDBRANCH   5  16
TORSDOF 8
ENDMDL