MODEL 5
REMARK VINA RESULT: -8.131182203      1.572      5.766
REMARK  6 active torsions:
REMARK  status: ('A' for Active; 'I' for Inactive)
REMARK       I    between atoms: N3_4  and  C2_6
REMARK    1  A    between atoms: C2_6  and  C3_8
REMARK    2  A    between atoms: C3_8  and  N6_21
REMARK    3  A    between atoms: N4_9  and  O2_11
REMARK    4  A    between atoms: O2_11  and  C4_12
REMARK    5  A    between atoms: C7_15  and  N5_16
REMARK    6  A    between atoms: N6_21  and  N7_23
ROOT
HETATM    1  C3  UNL     1       8.423   4.454  92.294  1.00  0.00     0.205 C
HETATM    2  N4  UNL     1       7.828   3.910  93.300  1.00  0.00    -0.245 N
ATOM      3  H4  UNL     1       7.487   4.493  94.064  1.00  0.00     0.196 HD
ENDROOT
BRANCH   1   4
HETATM    4  C2  UNL     1       8.933   3.672  91.172  1.00  0.00     0.294 C
HETATM    5  N3  UNL     1       8.534   2.355  90.896  1.00  0.00    -0.297 N
HETATM    6  C1  UNL     1       7.665   1.999  90.033  1.00  0.00     0.203 C
ATOM      7  H3  UNL     1       8.979   1.613  91.436  1.00  0.00     0.171 HD
HETATM    8  N1  UNL     1       7.403   0.597  89.909  1.00  0.00    -0.066 NA
HETATM    9  N2  UNL     1       6.947   2.891  89.193  1.00  0.00    -0.066 NA
HETATM   10  O1  UNL     1       9.777   4.221  90.420  1.00  0.00    -0.264 OA
ENDBRANCH   1   4
BRANCH   1  11
HETATM   11  N6  UNL     1       8.572   5.869  92.311  1.00  0.00    -0.299 N
ATOM     12  H6  UNL     1       8.317   6.378  91.465  1.00  0.00     0.182 HD
BRANCH  11  13
HETATM   13  N7  UNL     1       9.031   6.604  93.378  1.00  0.00    -0.230 NA
HETATM   14  C9  UNL     1      10.266   7.294  93.148  1.00  0.00     0.113 C
HETATM   15  C10 UNL     1      10.308   8.250  94.338  1.00  0.00     0.017 C
HETATM   16  C11 UNL     1       8.884   8.768  94.336  1.00  0.00     0.017 C
HETATM   17  C12 UNL     1       8.100   7.543  93.917  1.00  0.00     0.113 C
ENDBRANCH  11  13
ENDBRANCH   1  11
BRANCH   2  18
HETATM   18  O2  UNL     1       7.654   2.566  93.346  1.00  0.00    -0.273 OA
BRANCH  18  19
HETATM   19  C4  UNL     1       8.143   1.691  94.298  1.00  0.00     0.154 C
HETATM   20  C5  UNL     1       9.550   1.933  94.734  1.00  0.00     0.036 C
HETATM   21  C6  UNL     1       9.831   0.688  95.581  1.00  0.00     0.035 C
HETATM   22  C7  UNL     1       9.255  -0.403  94.712  1.00  0.00     0.186 C
HETATM   23  C8  UNL     1       8.173   0.245  93.864  1.00  0.00     0.067 C
BRANCH  22  24
HETATM   24  N5  UNL     1       8.625  -1.446  95.497  1.00  0.00    -0.075 N
ATOM     25  H53 UNL     1       8.198  -2.153  94.899  1.00  0.00     0.274 HD
ATOM     26  H52 UNL     1       9.320  -2.028  95.964  1.00  0.00     0.274 HD
ATOM     27  H51 UNL     1       7.951  -1.067  96.163  1.00  0.00     0.274 HD
ENDBRANCH  22  24
ENDBRANCH  18  19
ENDBRANCH   2  18
TORSDOF 6
ENDMDL