MODEL 5
REMARK VINA RESULT: -7.544987267      3.398      5.054
REMARK  6 active torsions:
REMARK  status: ('A' for Active; 'I' for Inactive)
REMARK    1  A    between atoms: C2_2  and  O1_5
REMARK    2  A    between atoms: O1_5  and  C5_6
REMARK       I    between atoms: C5_6  and  N1_8
REMARK    3  A    between atoms: N1_8  and  C6_10
REMARK    4  A    between atoms: C6_10  and  C7_11
REMARK    5  A    between atoms: C6_10  and  C9_19
REMARK    6  A    between atoms: N2_12  and  N3_14
REMARK       I    between atoms: C9_19  and  N6_21
ROOT
HETATM    1  C6  UNL     1       8.504   2.176  92.364  1.00  0.00     0.219 C
ENDROOT
BRANCH   1   2
HETATM    2  N1  UNL     1       9.017   3.525  92.328  1.00  0.00    -0.319 N
HETATM    3  C5  UNL     1       8.258   4.618  91.830  1.00  0.00     0.362 C
HETATM    4  O2  UNL     1       7.092   4.374  91.408  1.00  0.00    -0.238 OA
ATOM      5  H1  UNL     1       9.961   3.701  92.674  1.00  0.00     0.166 HD
BRANCH   3   6
HETATM    6  O1  UNL     1       8.775   5.888  91.810  1.00  0.00    -0.294 OA
BRANCH   6   7
HETATM    7  C2  UNL     1       9.011   6.543  93.041  1.00  0.00     0.061 C
HETATM    8  C1  UNL     1       8.709   8.034  92.893  1.00  0.00     0.046 C
HETATM    9  C3  UNL     1      10.490   6.411  93.340  1.00  0.00     0.046 C
HETATM   10  C4  UNL     1       8.161   6.012  94.154  1.00  0.00     0.046 C
ENDBRANCH   6   7
ENDBRANCH   3   6
ENDBRANCH   1   2
BRANCH   1  11
HETATM   11  C7  UNL     1       9.403   1.208  91.710  1.00  0.00     0.115 C
HETATM   12  N2  UNL     1       9.390   1.102  90.442  1.00  0.00    -0.311 N
ATOM     13  H2  UNL     1      10.003   0.440  89.968  1.00  0.00     0.185 HD
BRANCH  12  14
HETATM   14  N3  UNL     1       8.520   1.910  89.717  1.00  0.00    -0.277 N
HETATM   15  C8  UNL     1       7.424   1.525  89.189  1.00  0.00     0.215 C
HETATM   16  N4  UNL     1       7.026   0.180  89.327  1.00  0.00    -0.065 NA
HETATM   17  N5  UNL     1       6.635   2.455  88.477  1.00  0.00    -0.065 NA
ATOM     18  H3  UNL     1       8.779   2.889  89.597  1.00  0.00     0.189 HD
ENDBRANCH  12  14
ENDBRANCH   1  11
BRANCH   1  19
HETATM   19  C9  UNL     1       8.194   1.747  93.760  1.00  0.00     0.251 C
HETATM   20  O3  UNL     1       7.672   2.515  94.606  1.00  0.00    -0.270 OA
HETATM   21  N6  UNL     1       8.495   0.423  94.164  1.00  0.00    -0.301 N
HETATM   22  C10 UNL     1       9.305   0.221  95.143  1.00  0.00     0.203 C
ATOM     23  H6  UNL     1       8.070  -0.368  93.680  1.00  0.00     0.171 HD
HETATM   24  N7  UNL     1       9.890   1.328  95.805  1.00  0.00    -0.066 NA
HETATM   25  N8  UNL     1       9.639  -1.092  95.587  1.00  0.00    -0.066 NA
ENDBRANCH   1  19
TORSDOF 6
ENDMDL