MODEL 3
REMARK VINA RESULT: -7.308656614      4.383      7.920
REMARK  7 active torsions:
REMARK  status: ('A' for Active; 'I' for Inactive)
REMARK    1  A    between atoms: N2_7  and  C6_8
REMARK    2  A    between atoms: C6_8  and  C7_9
REMARK    3  A    between atoms: C7_9  and  N3_10
REMARK       I    between atoms: N3_10  and  C8_12
REMARK       I    between atoms: C8_12  and  N4_14
REMARK    4  A    between atoms: N4_14  and  N5_16
REMARK    5  A    between atoms: N5_16  and  C9_18
REMARK    6  A    between atoms: C9_18  and  N6_20
REMARK    7  A    between atoms: N6_20  and  N7_22
ROOT
HETATM    1  N3  UNL     1       8.393   7.407  93.664  1.00  0.00    -0.337 N
ATOM      2  H3  UNL     1       7.617   7.511  94.318  1.00  0.00     0.164 HD
HETATM    3  C8  UNL     1       9.611   8.090  93.911  1.00  0.00     0.335 C
HETATM    4  O1  UNL     1      10.545   7.956  93.080  1.00  0.00    -0.246 OA
HETATM    5  N4  UNL     1       9.787   8.898  95.047  1.00  0.00    -0.249 N
ATOM      6  H4  UNL     1       9.027   9.004  95.719  1.00  0.00     0.192 HD
ENDROOT
BRANCH   1   7
HETATM    7  C7  UNL     1       8.232   6.573  92.512  1.00  0.00     0.169 C
BRANCH   7   8
HETATM    8  C6  UNL     1       7.086   5.568  92.624  1.00  0.00     0.092 C
BRANCH   8   9
HETATM    9  N2  UNL     1       7.618   4.321  92.882  1.00  0.00    -0.325 N
HETATM   10  C5  UNL     1       8.450   3.606  92.152  1.00  0.00    -0.068 C
HETATM   11  C4  UNL     1       9.309   3.190  91.104  1.00  0.00     0.109 C
HETATM   12  C3  UNL     1       9.585   1.688  91.432  1.00  0.00     0.057 C
HETATM   13  C2  UNL     1       8.468   0.961  92.074  1.00  0.00     0.063 C
HETATM   14  N1  UNL     1       8.069   1.191  93.417  1.00  0.00    -0.377 N
HETATM   15  C1  UNL     1       8.767   0.567  94.443  1.00  0.00     0.154 C
HETATM   16  C11 UNL     1       6.971   2.020  93.659  1.00  0.00     0.083 C
HETATM   17  C10 UNL     1       7.026   3.478  93.897  1.00  0.00     0.181 C
ENDBRANCH   8   9
ENDBRANCH   7   8
ENDBRANCH   1   7
BRANCH   5  18
HETATM   18  N5  UNL     1      10.995   9.551  95.254  1.00  0.00    -0.271 N
ATOM     19  H5  UNL     1      11.072  10.526  94.964  1.00  0.00     0.189 HD
BRANCH  18  20
HETATM   20  C9  UNL     1      12.112   8.947  95.839  1.00  0.00     0.205 C
HETATM   21  S1  UNL     1      12.680   9.617  97.242  1.00  0.00    -0.038 SA
BRANCH  20  22
HETATM   22  N6  UNL     1      12.743   7.817  95.267  1.00  0.00    -0.282 N
ATOM     23  H6  UNL     1      12.713   6.922  95.755  1.00  0.00     0.189 HD
BRANCH  22  24
HETATM   24  N7  UNL     1      13.413   7.913  94.029  1.00  0.00    -0.343 N
ATOM     25  H72 UNL     1      13.284   7.167  93.345  1.00  0.00     0.176 HD
ATOM     26  H71 UNL     1      14.015   8.709  93.820  1.00  0.00     0.176 HD
ENDBRANCH  22  24
ENDBRANCH  20  22
ENDBRANCH  18  20
ENDBRANCH   5  18
TORSDOF 7
ENDMDL