MODEL 4
REMARK VINA RESULT: -7.693609883      1.793      2.099
REMARK  4 active torsions:
REMARK  status: ('A' for Active; 'I' for Inactive)
REMARK    1  A    between atoms: N1_2  and  O1_3
REMARK       I    between atoms: N1_2  and  C2_5
REMARK       I    between atoms: C2_5  and  N2_7
REMARK    2  A    between atoms: C5_10  and  C6_11
REMARK    3  A    between atoms: N3_12  and  N4_14
REMARK       I    between atoms: C7_16  and  N6_18
REMARK    4  A    between atoms: N6_18  and  N7_20
REMARK       I    between atoms: N7_20  and  C8_22
ROOT
HETATM    1  C6  UNL     1       8.469   2.501  93.553  1.00  0.00     0.085 C
HETATM    2  N3  UNL     1       9.275   1.629  93.048  1.00  0.00    -0.313 N
ATOM      3  H3  UNL     1      10.160   1.403  93.503  1.00  0.00     0.185 HD
ENDROOT
BRANCH   1   4
HETATM    4  C5  UNL     1       7.192   2.854  92.935  1.00  0.00     0.029 C
HETATM    5  C4  UNL     1       7.304   4.046  92.047  1.00  0.00     0.030 C
HETATM    6  C3  UNL     1       7.470   5.354  92.744  1.00  0.00     0.128 C
HETATM    7  N2  UNL     1       6.964   5.418  94.081  1.00  0.00    -0.332 N
HETATM    8  C2  UNL     1       7.064   6.624  94.813  1.00  0.00     0.343 C
HETATM    9  C10 UNL     1       6.331   4.305  94.779  1.00  0.00     0.128 C
HETATM   10  N1  UNL     1       7.635   7.812  94.350  1.00  0.00    -0.215 N
HETATM   11  O2  UNL     1       6.599   6.663  96.012  1.00  0.00    -0.245 OA
HETATM   12  C1  UNL     1       7.676   9.004  95.212  1.00  0.00     0.190 C
HETATM   13  C9  UNL     1       6.074   3.112  93.927  1.00  0.00     0.030 C
BRANCH  10  14
HETATM   14  O1  UNL     1       8.164   7.919  93.124  1.00  0.00    -0.284 OA
ATOM     15  H1  UNL     1       7.579   8.157  92.414  1.00  0.00     0.245 HD
ENDBRANCH  10  14
ENDBRANCH   1   4
BRANCH   2  16
HETATM   16  N4  UNL     1       8.895   1.008  91.862  1.00  0.00    -0.273 N
HETATM   17  C7  UNL     1       9.032   1.491  90.682  1.00  0.00     0.222 C
HETATM   18  N5  UNL     1       9.599   2.751  90.378  1.00  0.00    -0.061 NA
HETATM   19  N6  UNL     1       8.581   0.698  89.595  1.00  0.00    -0.269 N
ATOM     20  H6  UNL     1       9.280   0.249  89.004  1.00  0.00     0.190 HD
ATOM     21  H4  UNL     1       8.468   0.085  91.938  1.00  0.00     0.189 HD
BRANCH  19  22
HETATM   22  N7  UNL     1       7.242   0.501  89.291  1.00  0.00    -0.252 N
HETATM   23  C8  UNL     1       6.427   1.568  88.893  1.00  0.00     0.347 C
HETATM   24  N8  UNL     1       5.066   1.356  88.585  1.00  0.00    -0.038 NA
HETATM   25  O3  UNL     1       6.898   2.722  88.804  1.00  0.00    -0.249 OA
ATOM     26  H7  UNL     1       6.844  -0.437  89.359  1.00  0.00     0.191 HD
ENDBRANCH  19  22
ENDBRANCH   2  16
TORSDOF 4
ENDMDL