MODEL 3
REMARK VINA RESULT: -7.646813248      2.790      4.654
REMARK  4 active torsions:
REMARK  status: ('A' for Active; 'I' for Inactive)
REMARK    1  A    between atoms: C2_9  and  N5_10
REMARK       I    between atoms: N5_10  and  C3_12
REMARK       I    between atoms: C3_12  and  N7_16
REMARK       I    between atoms: N7_16  and  C4_18
REMARK       I    between atoms: C4_18  and  N11_28
REMARK    2  A    between atoms: N8_19  and  C5_21
REMARK    3  A    between atoms: C5_21  and  C6_22
REMARK    4  A    between atoms: C6_22  and  C7_23
ROOT
HETATM    1  N5  UNL     1       8.975   7.876  94.316  1.00  0.00    -0.019 N
ATOM      2  H5  UNL     1       8.797   8.506  95.099  1.00  0.00     0.203 HD
HETATM    3  C3  UNL     1       7.863   7.257  93.701  1.00  0.00     0.705 C
HETATM    4  N6  UNL     1       6.668   7.497  94.096  1.00  0.00    -0.234 N
ATOM      5  H61 UNL     1       5.865   7.050  93.653  1.00  0.00     0.174 HD
ATOM      6  H62 UNL     1       6.521   8.149  94.867  1.00  0.00     0.174 HD
HETATM    7  N7  UNL     1       8.065   6.363  92.644  1.00  0.00    -0.022 N
ATOM      8  H7  UNL     1       8.440   6.721  91.765  1.00  0.00     0.203 HD
HETATM    9  C4  UNL     1       7.763   4.955  92.745  1.00  0.00     0.690 C
HETATM   10  N8  UNL     1       6.948   4.578  93.668  1.00  0.00    -0.225 N
ATOM     11  H8  UNL     1       6.533   5.261  94.303  1.00  0.00     0.177 HD
HETATM   12  N11 UNL     1       8.354   4.023  91.849  1.00  0.00    -0.217 N
HETATM   13  C8  UNL     1       7.831   3.737  90.527  1.00  0.00     0.141 C
HETATM   14  C9  UNL     1       8.264   2.341  90.183  1.00  0.00     0.022 C
HETATM   15  C10 UNL     1       9.084   1.889  91.383  1.00  0.00     0.022 C
HETATM   16  C11 UNL     1       9.525   3.186  91.994  1.00  0.00     0.141 C
ENDROOT
BRANCH   1  17
HETATM   17  C2  UNL     1      10.188   7.701  93.955  1.00  0.00     0.730 A
HETATM   18  N1  UNL     1      11.254   8.273  94.554  1.00  0.00    -0.111 N
HETATM   19  C1  UNL     1      11.165   9.168  95.692  1.00  0.00     0.199 C
HETATM   20  N2  UNL     1      12.371   7.896  93.954  1.00  0.00    -0.211 N
HETATM   21  N3  UNL     1      12.008   7.088  92.977  1.00  0.00    -0.213 N
ATOM     22  H2  UNL     1      13.321   8.175  94.198  1.00  0.00     0.210 HD
HETATM   23  N4  UNL     1      10.694   6.958  92.963  1.00  0.00    -0.114 N
ATOM     24  H3  UNL     1      12.648   6.631  92.328  1.00  0.00     0.210 HD
ATOM     25  H4  UNL     1      10.158   6.389  92.309  1.00  0.00     0.207 HD
ENDBRANCH   1  17
BRANCH  10  26
HETATM   26  C5  UNL     1       6.627   3.170  93.794  1.00  0.00     0.145 C
BRANCH  26  27
HETATM   27  C6  UNL     1       5.496   2.952  94.765  1.00  0.00     0.092 C
BRANCH  27  28
HETATM   28  C7  UNL     1       4.350   2.252  94.117  1.00  0.00     0.088 C
HETATM   29  N9  UNL     1       3.584   2.914  93.332  1.00  0.00    -0.391 N
ATOM     30  H92 UNL     1       3.744   3.903  93.144  1.00  0.00     0.157 HD
ATOM     31  H91 UNL     1       2.800   2.435  92.889  1.00  0.00     0.157 HD
HETATM   32  N10 UNL     1       4.129   0.878  94.379  1.00  0.00    -0.088 NA
ENDBRANCH  27  28
ENDBRANCH  26  27
ENDBRANCH  10  26
TORSDOF 4
ENDMDL