MODEL 3
REMARK VINA RESULT: -7.738393124      1.636      1.862
REMARK  7 active torsions:
REMARK  status: ('A' for Active; 'I' for Inactive)
REMARK    1  A    between atoms: C2_2  and  N1_3
REMARK    2  A    between atoms: N2_7  and  C6_8
REMARK    3  A    between atoms: C6_8  and  C7_9
REMARK    4  A    between atoms: C7_9  and  N4_13
REMARK    5  A    between atoms: N4_13  and  C8_15
REMARK    6  A    between atoms: C8_15  and  N5_17
REMARK    7  A    between atoms: N5_17  and  N6_19
REMARK       I    between atoms: N6_19  and  C9_21
ROOT
HETATM    1  C7  UNL     1       7.904   5.099  91.826  1.00  0.00     0.105 C
HETATM    2  N3  UNL     1       6.690   5.413  92.117  1.00  0.00    -0.387 N
ATOM      3  H31 UNL     1       5.923   5.290  91.456  1.00  0.00     0.157 HD
ATOM      4  H32 UNL     1       6.505   5.800  93.042  1.00  0.00     0.157 HD
ENDROOT
BRANCH   1   5
HETATM    5  C6  UNL     1       9.041   5.280  92.805  1.00  0.00     0.348 C
BRANCH   5   6
HETATM    6  N2  UNL     1       9.060   6.632  93.233  1.00  0.00     0.100 N
HETATM    7  C5  UNL     1       8.545   6.872  94.560  1.00  0.00     0.275 C
HETATM    8  C4  UNL     1       7.991   8.301  94.513  1.00  0.00     0.050 C
HETATM    9  C3  UNL     1       9.172   9.245  94.684  1.00  0.00     0.123 C
HETATM   10  N1  UNL     1      10.348   8.597  95.127  1.00  0.00    -0.392 N
HETATM   11  C11 UNL     1      11.025   7.756  94.230  1.00  0.00     0.088 C
HETATM   12  C10 UNL     1      10.285   7.355  92.981  1.00  0.00     0.317 C
BRANCH  10  13
HETATM   13  C2  UNL     1      11.159   9.491  95.904  1.00  0.00     0.117 C
HETATM   14  C1  UNL     1      12.620   9.086  95.859  1.00  0.00     0.026 C
ENDBRANCH  10  13
ENDBRANCH   5   6
ENDBRANCH   1   5
BRANCH   1  15
HETATM   15  N4  UNL     1       8.162   4.561  90.543  1.00  0.00    -0.321 N
ATOM     16  H4  UNL     1       8.466   5.195  89.804  1.00  0.00     0.169 HD
BRANCH  15  17
HETATM   17  C8  UNL     1       8.020   3.184  90.228  1.00  0.00     0.192 C
HETATM   18  S1  UNL     1       9.018   2.085  90.894  1.00  0.00    -0.039 SA
BRANCH  17  19
HETATM   19  N5  UNL     1       7.000   2.780  89.333  1.00  0.00    -0.272 N
ATOM     20  H5  UNL     1       6.802   3.348  88.509  1.00  0.00     0.189 HD
BRANCH  19  21
HETATM   21  N6  UNL     1       6.266   1.631  89.554  1.00  0.00    -0.252 N
HETATM   22  C9  UNL     1       5.946   0.763  88.499  1.00  0.00     0.347 C
HETATM   23  N7  UNL     1       5.176  -0.423  88.784  1.00  0.00    -0.038 NA
HETATM   24  O1  UNL     1       6.273   0.916  87.292  1.00  0.00    -0.249 OA
ATOM     25  H6  UNL     1       5.952   1.410  90.499  1.00  0.00     0.191 HD
ENDBRANCH  19  21
ENDBRANCH  17  19
ENDBRANCH  15  17
ENDBRANCH   1  15
TORSDOF 7
ENDMDL