MODEL 2
REMARK VINA RESULT: -7.761896386      1.120      1.120
REMARK  6 active torsions:
REMARK  status: ('A' for Active; 'I' for Inactive)
REMARK    1  A    between atoms: C4_5  and  N2_6
REMARK       I    between atoms: N2_6  and  C5_8
REMARK       I    between atoms: C5_8  and  N3_10
REMARK    2  A    between atoms: N3_10  and  N4_12
REMARK       I    between atoms: N4_12  and  C6_14
REMARK    3  A    between atoms: C6_14  and  C7_16
REMARK    4  A    between atoms: C8_17  and  C9_18
REMARK    5  A    between atoms: C9_18  and  N5_20
REMARK    6  A    between atoms: N5_20  and  N6_22
ROOT
HETATM    1  N2  UNL     1       7.702   4.570  91.112  1.00  0.00    -0.337 N
ATOM      2  H2  UNL     1       6.782   4.940  90.873  1.00  0.00     0.164 HD
HETATM    3  C5  UNL     1       8.633   5.380  91.867  1.00  0.00     0.335 C
HETATM    4  O1  UNL     1       9.757   4.936  92.159  1.00  0.00    -0.246 OA
HETATM    5  N3  UNL     1       8.262   6.683  92.273  1.00  0.00    -0.249 N
ATOM      6  H3  UNL     1       7.342   7.059  92.043  1.00  0.00     0.192 HD
ENDROOT
BRANCH   5   7
HETATM    7  N4  UNL     1       9.183   7.442  92.996  1.00  0.00    -0.263 N
HETATM    8  C6  UNL     1       8.928   8.109  94.206  1.00  0.00     0.259 C
HETATM    9  O2  UNL     1       7.803   8.081  94.774  1.00  0.00    -0.267 OA
ATOM     10  H4  UNL     1      10.125   7.519  92.611  1.00  0.00     0.190 HD
BRANCH   8  11
HETATM   11  C7  UNL     1       9.991   8.868  94.840  1.00  0.00     0.079 C
HETATM   12  C8  UNL     1      11.097   8.269  95.199  1.00  0.00     0.048 C
BRANCH  12  13
HETATM   13  C9  UNL     1      12.155   9.028  95.833  1.00  0.00     0.114 C
HETATM   14  S1  UNL     1      13.414   9.527  94.925  1.00  0.00    -0.059 SA
BRANCH  13  15
HETATM   15  N5  UNL     1      12.129   9.356  97.207  1.00  0.00    -0.297 N
ATOM     16  H5  UNL     1      11.249   9.320  97.721  1.00  0.00     0.187 HD
BRANCH  15  17
HETATM   17  N6  UNL     1      13.296   9.724  97.859  1.00  0.00    -0.344 N
ATOM     18  H62 UNL     1      13.341   9.638  98.875  1.00  0.00     0.176 HD
ATOM     19  H61 UNL     1      14.093  10.075  97.328  1.00  0.00     0.176 HD
ENDBRANCH  15  17
ENDBRANCH  13  15
ENDBRANCH  12  13
ENDBRANCH   8  11
ENDBRANCH   5   7
BRANCH   1  20
HETATM   20  C4  UNL     1       8.071   3.254  90.700  1.00  0.00     0.089 C
HETATM   21  C3  UNL     1       7.771   2.167  91.701  1.00  0.00     0.055 C
HETATM   22  C2  UNL     1       8.652   0.978  91.351  1.00  0.00     0.274 C
HETATM   23  N1  UNL     1       8.646   0.803  89.919  1.00  0.00     0.084 N
HETATM   24  C1  UNL     1       8.717  -0.610  89.626  1.00  0.00     0.309 C
HETATM   25  C11 UNL     1       7.478   1.350  89.272  1.00  0.00     0.274 C
HETATM   26  C10 UNL     1       7.391   2.841  89.390  1.00  0.00     0.055 C
ENDBRANCH   1  20
TORSDOF 6
ENDMDL