MODEL 4
REMARK VINA RESULT: -8.178928845      2.262      4.783
REMARK  3 active torsions:
REMARK  status: ('A' for Active; 'I' for Inactive)
REMARK    1  A    between atoms: N1_1  and  N2_4
REMARK    2  A    between atoms: C14_19  and  O1_20
REMARK    3  A    between atoms: C15_22  and  O2_23
ROOT
HETATM    1  N2  UNL     1      38.563   4.613  32.732  1.00  0.00    -0.315 N
ATOM      2  H2  UNL     1      37.874   4.372  32.019  1.00  0.00     0.185 HD
HETATM    3  C1  UNL     1      38.800   5.869  32.986  1.00  0.00     0.006 C
HETATM    4  C2  UNL     1      39.795   6.253  34.016  1.00  0.00     0.054 C
HETATM    5  C3  UNL     1      39.110   6.176  35.365  1.00  0.00     0.006 C
HETATM    6  C4  UNL     1      39.635   7.203  36.327  1.00  0.00     0.000 C
HETATM    7  C5  UNL     1      38.520   8.169  36.660  1.00  0.00     0.000 C
HETATM    8  C6  UNL     1      38.508   9.342  35.741  1.00  0.00     0.000 C
HETATM    9  C7  UNL     1      37.091   9.865  35.479  1.00  0.00     0.000 C
HETATM   10  C8  UNL     1      37.086  10.489  34.125  1.00  0.00     0.000 C
HETATM   11  C9  UNL     1      36.123   9.861  33.158  1.00  0.00     0.000 C
HETATM   12  C10 UNL     1      35.857   8.417  33.400  1.00  0.00     0.007 C
HETATM   13  C11 UNL     1      35.627   7.586  32.197  1.00  0.00     0.023 C
HETATM   14  C12 UNL     1      35.735   8.314  30.884  1.00  0.00     0.010 C
HETATM   15  C13 UNL     1      35.528   7.130  29.926  1.00  0.00     0.035 C
HETATM   16  C14 UNL     1      36.426   6.082  30.545  1.00  0.00     0.153 C
HETATM   17  C15 UNL     1      36.620   6.468  32.004  1.00  0.00     0.092 C
HETATM   18  C16 UNL     1      38.038   6.881  32.202  1.00  0.00     0.095 C
ENDROOT
BRANCH   1  19
HETATM   19  N1  UNL     1      39.219   3.596  33.405  1.00  0.00    -0.345 N
ATOM     20  H12 UNL     1      40.224   3.687  33.549  1.00  0.00     0.176 HD
ATOM     21  H11 UNL     1      38.724   2.773  33.751  1.00  0.00     0.176 HD
ENDBRANCH   1  19
BRANCH  17  22
HETATM   22  O2  UNL     1      36.217   5.416  32.822  1.00  0.00    -0.386 OA
ATOM     23  H2  UNL     1      35.403   5.080  32.463  1.00  0.00     0.210 HD
ENDBRANCH  17  22
BRANCH  16  24
HETATM   24  O1  UNL     1      35.868   4.803  30.435  1.00  0.00    -0.393 OA
ATOM     25  H1  UNL     1      35.872   4.352  31.270  1.00  0.00     0.210 HD
ENDBRANCH  16  24
TORSDOF 3
ENDMDL