MODEL 5
REMARK VINA RESULT: -6.572951755      3.976      6.479
REMARK  3 active torsions:
REMARK  status: ('A' for Active; 'I' for Inactive)
REMARK    1  A    between atoms: C2_2  and  C3_3
REMARK    2  A    between atoms: C11_15  and  O1_16
REMARK    3  A    between atoms: C13_19  and  O2_20
ROOT
HETATM    1  C3  UNL     1      39.749   4.666  34.498  1.00  0.00     0.067 A
HETATM    2  C4  UNL     1      41.011   3.886  34.509  1.00  0.00     0.045 C
HETATM    3  N1  UNL     1      40.084   5.979  33.950  1.00  0.00    -0.322 N
ATOM      4  H1  UNL     1      40.789   6.611  34.330  1.00  0.00     0.181 HD
HETATM    5  N2  UNL     1      39.385   6.210  32.959  1.00  0.00    -0.307 N
ATOM      6  H2  UNL     1      39.425   7.060  32.397  1.00  0.00     0.186 HD
HETATM    7  C5  UNL     1      38.506   5.097  32.718  1.00  0.00     0.041 A
HETATM    8  C6  UNL     1      38.679   4.141  33.610  1.00  0.00    -0.021 A
HETATM    9  C7  UNL     1      37.730   3.062  33.291  1.00  0.00     0.030 C
HETATM   10  C8  UNL     1      36.650   3.736  32.455  1.00  0.00     0.028 C
HETATM   11  C9  UNL     1      37.457   4.738  31.728  1.00  0.00     0.027 C
HETATM   12  C10 UNL     1      36.605   5.955  31.405  1.00  0.00     0.025 C
HETATM   13  C11 UNL     1      38.175   4.225  30.506  1.00  0.00     0.134 C
HETATM   14  C12 UNL     1      37.975   2.753  30.277  1.00  0.00     0.065 C
HETATM   15  C13 UNL     1      38.748   1.924  31.257  1.00  0.00     0.129 C
HETATM   16  C14 UNL     1      38.208   1.849  32.634  1.00  0.00    -0.014 C
HETATM   17  C15 UNL     1      36.961   0.937  32.521  1.00  0.00     0.018 C
HETATM   18  C16 UNL     1      39.194   1.059  33.468  1.00  0.00     0.018 C
ENDROOT
BRANCH   1  19
HETATM   19  C2  UNL     1      39.253   4.920  35.902  1.00  0.00     0.032 C
HETATM   20  C1  UNL     1      40.171   5.767  36.712  1.00  0.00     0.008 C
ENDBRANCH   1  19
BRANCH  13  21
HETATM   21  O1  UNL     1      37.741   4.923  29.357  1.00  0.00    -0.394 OA
ATOM     22  H1  UNL     1      37.771   4.353  28.597  1.00  0.00     0.210 HD
ENDBRANCH  13  21
BRANCH  15  23
HETATM   23  O2  UNL     1      40.089   2.269  31.161  1.00  0.00    -0.395 OA
ATOM     24  H2  UNL     1      40.250   3.010  31.733  1.00  0.00     0.210 HD
ENDBRANCH  15  23
TORSDOF 3
ENDMDL