MODEL 3
REMARK VINA RESULT: -6.410734132      1.776      3.004
REMARK  1 active torsions:
REMARK  status: ('A' for Active; 'I' for Inactive)
REMARK    1  A    between atoms: C7_7  and  O1_8
ROOT
HETATM    1  C1  UNL     1      35.681   8.199  31.120  1.00  0.00     0.010 C
HETATM    2  C2  UNL     1      36.367   7.432  30.070  1.00  0.00    -0.008 C
HETATM    3  C3  UNL     1      37.838   7.124  30.401  1.00  0.00     0.005 C
HETATM    4  C4  UNL     1      37.986   6.328  31.626  1.00  0.00     0.006 C
HETATM    5  C5  UNL     1      38.130   4.857  31.515  1.00  0.00     0.006 C
HETATM    6  C6  UNL     1      37.911   4.228  30.205  1.00  0.00     0.039 C
HETATM    7  C7  UNL     1      36.515   3.939  29.787  1.00  0.00     0.142 C
HETATM    8  C8  UNL     1      35.576   5.006  30.274  1.00  0.00     0.095 C
HETATM    9  S1  UNL     1      35.570   5.018  32.035  1.00  0.00    -0.142 SA
HETATM   10  C9  UNL     1      37.168   4.279  32.570  1.00  0.00     0.005 C
HETATM   11  C10 UNL     1      37.558   4.812  33.928  1.00  0.00     0.027 C
HETATM   12  C11 UNL     1      37.133   2.804  32.609  1.00  0.00     0.027 C
HETATM   13  C12 UNL     1      34.133   4.715  29.829  1.00  0.00     0.348 C
HETATM   14  N1  UNL     1      34.054   5.130  28.456  1.00  0.00    -0.015 N
ATOM     15  H11 UNL     1      33.264   4.927  27.844  1.00  0.00     0.284 HD
ATOM     16  H12 UNL     1      34.626   4.737  27.709  1.00  0.00     0.284 HD
HETATM   17  C13 UNL     1      34.300   6.446  29.076  1.00  0.00     0.233 C
HETATM   18  C14 UNL     1      33.924   7.634  28.359  1.00  0.00     0.079 C
HETATM   19  O2  UNL     1      33.548   5.967  30.137  1.00  0.00    -0.319 OA
HETATM   20  C15 UNL     1      35.746   6.250  29.518  1.00  0.00     0.078 C
ENDROOT
BRANCH   7  21
HETATM   21  O1  UNL     1      36.432   3.973  28.373  1.00  0.00    -0.394 OA
ATOM     22  H1  UNL     1      35.858   4.682  28.109  1.00  0.00     0.210 HD
ENDBRANCH   7  21
TORSDOF 1
ENDMDL