MODEL 1
REMARK VINA RESULT: -7.959928512      0.000      0.000
REMARK  3 active torsions:
REMARK  status: ('A' for Active; 'I' for Inactive)
REMARK    1  A    between atoms: C6_6  and  O1_8
REMARK    2  A    between atoms: C11_14  and  O3_15
REMARK    3  A    between atoms: C13_18  and  O4_19
ROOT
HETATM    1  C1  UNL     1      38.087   9.848  37.182  1.00  0.00     0.043 C
HETATM    2  C2  UNL     1      37.951   8.970  35.982  1.00  0.00    -0.087 C
HETATM    3  C3  UNL     1      37.531   9.475  34.855  1.00  0.00    -0.024 C
HETATM    4  C4  UNL     1      37.339   8.761  33.585  1.00  0.00     0.030 C
HETATM    5  C5  UNL     1      35.926   8.226  33.424  1.00  0.00     0.041 C
HETATM    6  C6  UNL     1      35.822   7.259  32.278  1.00  0.00     0.054 C
HETATM    7  C7  UNL     1      36.696   7.667  31.107  1.00  0.00     0.045 C
HETATM    8  C8  UNL     1      36.053   5.853  32.725  1.00  0.00     0.039 C
HETATM    9  C9  UNL     1      36.836   5.013  31.777  1.00  0.00     0.029 C
HETATM   10  C10 UNL     1      38.214   4.645  32.282  1.00  0.00     0.171 C
HETATM   11  O2  UNL     1      38.335   5.050  33.588  1.00  0.00    -0.361 OA
HETATM   12  C11 UNL     1      39.406   4.534  34.271  1.00  0.00     0.259 C
HETATM   13  C12 UNL     1      39.219   4.796  35.741  1.00  0.00     0.092 C
HETATM   14  C13 UNL     1      40.115   5.873  36.277  1.00  0.00     0.123 C
HETATM   15  C14 UNL     1      39.731   7.236  35.790  1.00  0.00     0.036 C
HETATM   16  C15 UNL     1      38.318   7.527  36.175  1.00  0.00     0.036 C
ENDROOT
BRANCH   6  17
HETATM   17  O1  UNL     1      34.491   7.347  31.805  1.00  0.00    -0.390 OA
ATOM     18  H1  UNL     1      34.025   7.895  32.425  1.00  0.00     0.210 HD
ENDBRANCH   6  17
BRANCH  12  19
HETATM   19  O3  UNL     1      40.572   5.090  33.762  1.00  0.00    -0.371 OA
ATOM     20  H3  UNL     1      40.870   5.772  34.353  1.00  0.00     0.212 HD
ENDBRANCH  12  19
BRANCH  14  21
HETATM   21  O4  UNL     1      40.171   5.792  37.665  1.00  0.00    -0.395 OA
ATOM     22  H4  UNL     1      40.168   6.665  38.039  1.00  0.00     0.210 HD
ENDBRANCH  14  21
TORSDOF 3
ENDMDL