MODEL 5
REMARK VINA RESULT: -6.851008640      3.408      6.773
REMARK  3 active torsions:
REMARK  status: ('A' for Active; 'I' for Inactive)
REMARK    1  A    between atoms: C11_11  and  O1_12
REMARK    2  A    between atoms: C15_17  and  O2_18
REMARK    3  A    between atoms: C16_20  and  O3_21
ROOT
HETATM    1  C1  UNL     1      36.039   8.924  31.578  1.00  0.00     0.014 C
HETATM    2  C2  UNL     1      35.824   7.662  31.917  1.00  0.00    -0.083 C
HETATM    3  C3  UNL     1      35.517   7.390  33.312  1.00  0.00     0.067 C
HETATM    4  C4  UNL     1      36.696   7.259  34.258  1.00  0.00    -0.080 C
HETATM    5  C5  UNL     1      37.809   8.165  33.973  1.00  0.00     0.043 C
HETATM    6  C6  UNL     1      36.909   5.859  34.587  1.00  0.00    -0.001 C
HETATM    7  C7  UNL     1      37.745   4.913  34.477  1.00  0.00    -0.015 C
HETATM    8  C8  UNL     1      39.061   4.591  33.946  1.00  0.00    -0.004 C
HETATM    9  C9  UNL     1      39.875   5.646  33.282  1.00  0.00     0.021 C
HETATM   10  C10 UNL     1      39.934   4.317  35.206  1.00  0.00     0.021 C
HETATM   11  C11 UNL     1      39.105   3.287  33.177  1.00  0.00     0.129 C
HETATM   12  C12 UNL     1      37.802   2.791  32.678  1.00  0.00     0.033 C
HETATM   13  C13 UNL     1      37.704   2.683  31.162  1.00  0.00     0.005 C
HETATM   14  C14 UNL     1      37.374   3.994  30.518  1.00  0.00     0.034 C
HETATM   15  C15 UNL     1      35.947   4.234  30.197  1.00  0.00     0.147 C
HETATM   16  C16 UNL     1      35.317   5.325  31.085  1.00  0.00     0.150 C
HETATM   17  C17 UNL     1      35.913   6.654  30.851  1.00  0.00     0.068 C
ENDROOT
BRANCH  11  18
HETATM   18  O1  UNL     1      39.736   2.314  33.940  1.00  0.00    -0.395 OA
ATOM     19  H1  UNL     1      39.290   1.483  33.830  1.00  0.00     0.210 HD
ENDBRANCH  11  18
BRANCH  15  20
HETATM   20  O2  UNL     1      35.882   4.747  28.892  1.00  0.00    -0.393 OA
ATOM     21  H2  UNL     1      36.399   4.180  28.332  1.00  0.00     0.210 HD
ENDBRANCH  15  20
BRANCH  16  22
HETATM   22  O3  UNL     1      33.975   5.380  30.613  1.00  0.00    -0.393 OA
ATOM     23  H3  UNL     1      33.522   5.827  31.318  1.00  0.00     0.210 HD
ENDBRANCH  16  22
TORSDOF 3
ENDMDL