MODEL 3
REMARK VINA RESULT: -6.232860605      3.389      6.153
REMARK  3 active torsions:
REMARK  status: ('A' for Active; 'I' for Inactive)
REMARK    1  A    between atoms: C15_17  and  O3_18
REMARK    2  A    between atoms: C15_17  and  C16_20
REMARK    3  A    between atoms: C16_20  and  O4_21
ROOT
HETATM    1  C1  UNL     1      37.048   8.139  29.179  1.00  0.00     0.013 C
HETATM    2  C2  UNL     1      36.705   7.933  30.614  1.00  0.00     0.022 C
HETATM    3  C3  UNL     1      36.135   9.281  31.094  1.00  0.00     0.007 C
HETATM    4  C4  UNL     1      36.110   9.350  32.603  1.00  0.00     0.001 C
HETATM    5  C5  UNL     1      35.781   7.973  33.121  1.00  0.00     0.003 C
HETATM    6  C6  UNL     1      34.895   7.312  32.067  1.00  0.00     0.045 C
HETATM    7  C7  UNL     1      35.888   6.795  31.002  1.00  0.00     0.132 C
HETATM    8  O1  UNL     1      36.647   5.882  31.788  1.00  0.00    -0.225 OA
HETATM    9  O2  UNL     1      37.677   5.432  31.146  1.00  0.00    -0.229 OA
HETATM   10  C8  UNL     1      37.505   4.030  31.060  1.00  0.00     0.096 C
HETATM   11  C9  UNL     1      38.795   3.467  30.560  1.00  0.00     0.041 C
HETATM   12  C10 UNL     1      38.932   2.137  31.273  1.00  0.00     0.003 C
HETATM   13  C11 UNL     1      38.143   2.229  32.538  1.00  0.00     0.003 C
HETATM   14  C12 UNL     1      37.243   3.440  32.412  1.00  0.00     0.041 C
HETATM   15  C13 UNL     1      36.407   3.792  30.074  1.00  0.00     0.044 C
HETATM   16  C14 UNL     1      35.128   4.502  30.395  1.00  0.00     0.046 C
HETATM   17  C15 UNL     1      35.187   5.987  29.987  1.00  0.00     0.113 C
ENDROOT
BRANCH  17  18
HETATM   18  O3  UNL     1      35.674   6.005  28.711  1.00  0.00    -0.384 OA
ATOM     19  H3  UNL     1      35.057   6.152  28.003  1.00  0.00     0.210 HD
ENDBRANCH  17  18
BRANCH  17  20
HETATM   20  C16 UNL     1      33.705   6.353  29.850  1.00  0.00     0.205 C
BRANCH  20  21
HETATM   21  O4  UNL     1      33.480   7.329  28.917  1.00  0.00    -0.398 OA
ATOM     22  H4  UNL     1      32.800   7.939  29.177  1.00  0.00     0.209 HD
ENDBRANCH  20  21
ENDBRANCH  17  20
TORSDOF 3
ENDMDL