MODEL 4
REMARK VINA RESULT: -7.226812526      3.348      4.654
REMARK  2 active torsions:
REMARK  status: ('A' for Active; 'I' for Inactive)
REMARK    1  A    between atoms: C14_17  and  O1_18
REMARK    2  A    between atoms: C16_21  and  O2_22
ROOT
HETATM    1  C1  UNL     1      40.631   4.312  34.770  1.00  0.00     0.044 C
HETATM    2  C2  UNL     1      39.503   3.838  33.959  1.00  0.00    -0.076 C
HETATM    3  C3  UNL     1      38.926   4.688  33.110  1.00  0.00    -0.043 C
HETATM    4  C4  UNL     1      39.433   6.048  33.021  1.00  0.00     0.038 C
HETATM    5  C5  UNL     1      38.251   6.944  32.640  1.00  0.00     0.011 C
HETATM    6  C6  UNL     1      37.818   6.484  31.274  1.00  0.00     0.011 C
HETATM    7  C7  UNL     1      36.729   7.392  30.768  1.00  0.00    -0.038 C
HETATM    8  C8  UNL     1      37.303   8.211  29.637  1.00  0.00     0.015 C
HETATM    9  C9  UNL     1      36.182   8.302  31.830  1.00  0.00     0.015 C
HETATM   10  C10 UNL     1      35.634   6.469  30.323  1.00  0.00     0.062 C
HETATM   11  C11 UNL     1      35.816   5.308  31.237  1.00  0.00    -0.007 C
HETATM   12  N1  UNL     1      34.869   4.711  31.821  1.00  0.00    -0.405 N
ATOM     13  H11 UNL     1      34.995   3.916  32.448  1.00  0.00     0.155 HD
ATOM     14  H12 UNL     1      33.861   4.866  31.810  1.00  0.00     0.155 HD
HETATM   15  C12 UNL     1      37.289   5.082  31.253  1.00  0.00     0.034 C
HETATM   16  C13 UNL     1      37.609   4.529  29.851  1.00  0.00     0.025 C
HETATM   17  C14 UNL     1      37.791   4.186  32.303  1.00  0.00     0.097 C
HETATM   18  C15 UNL     1      38.265   2.832  31.747  1.00  0.00     0.075 C
HETATM   19  C16 UNL     1      38.399   1.859  32.889  1.00  0.00     0.125 C
HETATM   20  C17 UNL     1      39.039   2.427  34.109  1.00  0.00     0.065 C
ENDROOT
BRANCH  17  21
HETATM   21  O1  UNL     1      36.746   3.863  33.175  1.00  0.00    -0.384 OA
ATOM     22  H1  UNL     1      36.247   3.153  32.789  1.00  0.00     0.211 HD
ENDBRANCH  17  21
BRANCH  19  23
HETATM   23  O2  UNL     1      37.181   1.262  33.208  1.00  0.00    -0.395 OA
ATOM     24  H2  UNL     1      37.182   0.901  34.087  1.00  0.00     0.210 HD
ENDBRANCH  19  23
TORSDOF 2
ENDMDL