MODEL 4
REMARK VINA RESULT: -7.296910611      1.532      5.708
REMARK  3 active torsions:
REMARK  status: ('A' for Active; 'I' for Inactive)
REMARK    1  A    between atoms: C8_9  and  O2_10
REMARK    2  A    between atoms: C10_13  and  O3_15
REMARK    3  A    between atoms: C14_19  and  O4_21
ROOT
HETATM    1  C1  UNL     1      36.877  12.130  35.069  1.00  0.00     0.043 C
HETATM    2  C2  UNL     1      37.108  10.633  34.819  1.00  0.00    -0.085 C
HETATM    3  C3  UNL     1      36.146  10.029  34.189  1.00  0.00    -0.024 C
HETATM    4  C4  UNL     1      35.902   8.669  33.735  1.00  0.00     0.030 C
HETATM    5  C5  UNL     1      36.904   7.990  32.884  1.00  0.00     0.047 C
HETATM    6  C6  UNL     1      36.775   6.519  32.763  1.00  0.00     0.117 A
HETATM    7  C7  UNL     1      35.744   6.052  31.725  1.00  0.00     0.052 C
HETATM    8  O1  UNL     1      38.123   5.954  32.422  1.00  0.00    -0.336 OA
HETATM    9  C8  UNL     1      37.434   5.588  33.546  1.00  0.00     0.197 A
HETATM   10  C9  UNL     1      37.882   5.912  34.932  1.00  0.00     0.108 C
HETATM   11  C10 UNL     1      39.343   5.953  35.185  1.00  0.00     0.059 C
HETATM   12  C11 UNL     1      40.189   5.488  34.030  1.00  0.00     0.046 C
HETATM   13  C12 UNL     1      39.791   7.397  35.500  1.00  0.00     0.040 C
HETATM   14  C13 UNL     1      39.064   7.989  36.631  1.00  0.00     0.040 C
HETATM   15  C14 UNL     1      38.365   9.272  36.551  1.00  0.00     0.058 C
HETATM   16  C15 UNL     1      38.852  10.088  37.786  1.00  0.00     0.046 C
HETATM   17  C16 UNL     1      38.405  10.111  35.341  1.00  0.00     0.070 C
ENDROOT
BRANCH  11  18
HETATM   18  O3  UNL     1      39.734   5.207  36.308  1.00  0.00    -0.390 OA
ATOM     19  H3  UNL     1      39.776   4.272  36.142  1.00  0.00     0.210 HD
ENDBRANCH  11  18
BRANCH   9  20
HETATM   20  O2  UNL     1      36.968   4.246  33.437  1.00  0.00    -0.363 OA
ATOM     21  H2  UNL     1      37.289   3.643  34.097  1.00  0.00     0.213 HD
ENDBRANCH   9  20
BRANCH  15  22
HETATM   22  O4  UNL     1      36.992   9.134  36.906  1.00  0.00    -0.390 OA
ATOM     23  H4  UNL     1      36.426   9.304  36.162  1.00  0.00     0.210 HD
ENDBRANCH  15  22
TORSDOF 3
ENDMDL