MODEL 5
REMARK VINA RESULT: -4.944323922      2.131      4.799
REMARK  2 active torsions:
REMARK  status: ('A' for Active; 'I' for Inactive)
REMARK    1  A    between atoms: C11_13  and  O1_15
REMARK    2  A    between atoms: C15_20  and  O3_21
ROOT
HETATM    1  C1  UNL     1      37.408  -0.728  28.285  1.00  0.00     0.043 C
HETATM    2  C2  UNL     1      38.212  -0.124  29.420  1.00  0.00    -0.085 C
HETATM    3  C3  UNL     1      38.440   1.155  29.139  1.00  0.00     0.005 C
HETATM    4  C4  UNL     1      39.127   2.325  29.755  1.00  0.00     0.155 C
HETATM    5  N1  UNL     1      40.509   2.373  29.483  1.00  0.00    -0.406 N
ATOM      6  H1  UNL     1      41.125   2.997  30.003  1.00  0.00     0.154 HD
HETATM    7  C5  UNL     1      41.016   1.524  28.459  1.00  0.00     0.073 C
HETATM    8  C6  UNL     1      41.339   2.431  27.262  1.00  0.00     0.032 C
HETATM    9  C7  UNL     1      42.258   0.735  28.901  1.00  0.00     0.025 C
HETATM   10  C8  UNL     1      42.397   0.640  30.364  1.00  0.00     0.009 C
HETATM   11  C9  UNL     1      42.088  -0.586  31.077  1.00  0.00     0.016 C
HETATM   12  C10 UNL     1      43.313  -1.505  30.844  1.00  0.00     0.013 C
HETATM   13  C11 UNL     1      40.896  -1.413  30.935  1.00  0.00     0.063 C
HETATM   14  C12 UNL     1      40.857  -2.113  29.563  1.00  0.00     0.046 C
HETATM   15  C13 UNL     1      39.563  -0.991  31.405  1.00  0.00     0.048 C
HETATM   16  C14 UNL     1      39.468   0.287  32.186  1.00  0.00     0.179 C
HETATM   17  O2  UNL     1      38.460   1.067  31.638  1.00  0.00    -0.359 OA
HETATM   18  C15 UNL     1      38.789   2.327  31.255  1.00  0.00     0.282 C
HETATM   19  C16 UNL     1      38.440  -1.162  30.399  1.00  0.00     0.043 C
ENDROOT
BRANCH  13  20
HETATM   20  O1  UNL     1      41.267  -2.549  31.745  1.00  0.00    -0.389 OA
ATOM     21  H1  UNL     1      40.500  -2.623  32.301  1.00  0.00     0.210 HD
ENDBRANCH  13  20
BRANCH  18  22
HETATM   22  O3  UNL     1      39.748   2.961  32.013  1.00  0.00    -0.369 OA
ATOM     23  H3  UNL     1      39.590   3.894  32.097  1.00  0.00     0.212 HD
ENDBRANCH  18  22
TORSDOF 2
ENDMDL