MODEL 2
REMARK VINA RESULT: -6.623996337      1.756      4.340
REMARK  2 active torsions:
REMARK  status: ('A' for Active; 'I' for Inactive)
REMARK    1  A    between atoms: C9_9  and  O1_10
REMARK    2  A    between atoms: C11_13  and  O2_14
ROOT
HETATM    1  C1  UNL     1      37.995   7.170  35.557  1.00  0.00     0.011 C
HETATM    2  C2  UNL     1      37.869   5.998  34.635  1.00  0.00    -0.002 C
HETATM    3  C3  UNL     1      38.889   4.934  35.079  1.00  0.00     0.006 C
HETATM    4  C4  UNL     1      39.061   3.811  34.127  1.00  0.00     0.007 C
HETATM    5  C5  UNL     1      37.972   3.785  33.101  1.00  0.00     0.008 C
HETATM    6  C6  UNL     1      38.023   2.670  32.114  1.00  0.00    -0.017 C
HETATM    7  C7  UNL     1      39.202   2.678  31.206  1.00  0.00     0.018 C
HETATM    8  C8  UNL     1      38.175   1.385  32.951  1.00  0.00     0.018 C
HETATM    9  C9  UNL     1      36.697   2.596  31.424  1.00  0.00     0.128 C
HETATM   10  C10 UNL     1      35.826   3.758  31.413  1.00  0.00     0.065 C
HETATM   11  C11 UNL     1      36.108   4.937  32.314  1.00  0.00     0.130 C
HETATM   12  C12 UNL     1      37.577   5.046  32.468  1.00  0.00     0.005 C
HETATM   13  C13 UNL     1      38.106   5.445  31.138  1.00  0.00     0.021 C
HETATM   14  C14 UNL     1      37.678   6.928  31.078  1.00  0.00     0.080 C
HETATM   15  C15 UNL     1      37.403   7.313  32.511  1.00  0.00     0.136 C
HETATM   16  O3  UNL     1      36.767   8.262  32.838  1.00  0.00    -0.297 OA
HETATM   17  C16 UNL     1      38.113   6.234  33.231  1.00  0.00     0.030 C
HETATM   18  C17 UNL     1      39.538   6.556  32.980  1.00  0.00     0.025 C
ENDROOT
BRANCH   9  19
HETATM   19  O1  UNL     1      36.990   2.167  30.099  1.00  0.00    -0.395 OA
ATOM     20  H1  UNL     1      37.468   1.353  30.200  1.00  0.00     0.210 HD
ENDBRANCH   9  19
BRANCH  11  21
HETATM   21  O2  UNL     1      35.337   5.958  31.933  1.00  0.00    -0.395 OA
ATOM     22  H2  UNL     1      35.873   6.581  31.456  1.00  0.00     0.210 HD
ENDBRANCH  11  21
TORSDOF 2
ENDMDL