MODEL 5
REMARK VINA RESULT: -7.491887640      0.882      1.183
REMARK  8 active torsions:
REMARK  status: ('A' for Active; 'I' for Inactive)
REMARK    1  A    between atoms: N6_16  and  C6_17
REMARK    2  A    between atoms: C9_24  and  C10_25
REMARK    3  A    between atoms: C10_25  and  N8_26
REMARK    4  A    between atoms: N8_26  and  C11_28
REMARK    5  A    between atoms: C11_28  and  C12_29
REMARK    6  A    between atoms: C12_29  and  C13_30
REMARK    7  A    between atoms: C13_30  and  C14_31
REMARK    8  A    between atoms: C14_31  and  N9_32
ROOT
HETATM    1  C6  UNL     1      11.105   7.194  12.803  1.00  0.00     0.257 C
HETATM    2  C7  UNL     1       9.737   7.631  13.126  1.00  0.00     0.289 C
HETATM    3  N7  UNL     1       9.539   8.982  13.523  1.00  0.00    -0.037 N
ATOM      4  H71 UNL     1       9.027   9.023  14.404  1.00  0.00     0.280 HD
ATOM      5  H72 UNL     1       8.864   9.439  12.909  1.00  0.00     0.280 HD
HETATM    6  C8  UNL     1      10.747   9.761  13.607  1.00  0.00     0.401 C
HETATM    7  F1  UNL     1      10.991  10.122  12.239  1.00  0.00    -0.216 F
HETATM    8  C9  UNL     1      11.940   8.989  14.000  1.00  0.00     0.223 C
HETATM    9  O1  UNL     1      12.125   8.091  12.891  1.00  0.00    -0.349 OA
ENDROOT
BRANCH   1  10
HETATM   10  N6  UNL     1      11.156   6.646  11.441  1.00  0.00    -0.298 N
HETATM   11  C3  UNL     1      10.882   5.350  11.132  1.00  0.00     0.144 A
HETATM   12  N4  UNL     1      10.525   4.272  11.822  1.00  0.00    -0.314 N
HETATM   13  C4  UNL     1      11.037   5.209   9.749  1.00  0.00     0.122 A
HETATM   14  C2  UNL     1      10.305   3.064  11.283  1.00  0.00     0.195 A
ATOM     15  H4  UNL     1      10.411   4.370  12.831  1.00  0.00     0.170 HD
HETATM   16  N2  UNL     1      10.453   2.922   9.955  1.00  0.00    -0.315 N
HETATM   17  N3  UNL     1       9.922   1.946  12.108  1.00  0.00    -0.063 NA
HETATM   18  C1  UNL     1      10.811   3.965   9.189  1.00  0.00     0.132 A
ATOM     19  H2  UNL     1      10.291   2.012   9.524  1.00  0.00     0.170 HD
HETATM   20  N1  UNL     1      10.961   3.873   7.917  1.00  0.00    -0.383 N
ATOM     21  H12 UNL     1      10.794   2.955   7.504  1.00  0.00     0.157 HD
ATOM     22  H11 UNL     1      11.233   4.665   7.335  1.00  0.00     0.157 HD
HETATM   23  N5  UNL     1      11.393   6.413   9.294  1.00  0.00    -0.346 N
HETATM   24  C5  UNL     1      11.469   7.293  10.312  1.00  0.00     0.188 A
ATOM     25  H5  UNL     1      11.581   6.634   8.316  1.00  0.00     0.167 HD
ENDBRANCH   1  10
BRANCH   8  26
HETATM   26  C10 UNL     1      11.988   8.243  15.265  1.00  0.00     0.092 C
BRANCH  26  27
HETATM   27  N8  UNL     1      12.556   8.788  16.425  1.00  0.00    -0.400 N
ATOM     28  H8  UNL     1      13.443   9.289  16.391  1.00  0.00     0.158 HD
BRANCH  27  29
HETATM   29  C11 UNL     1      11.869   8.622  17.626  1.00  0.00     0.119 C
BRANCH  29  30
HETATM   30  C12 UNL     1      11.524   7.157  17.919  1.00  0.00     0.021 C
BRANCH  30  31
HETATM   31  C13 UNL     1      12.762   6.414  18.376  1.00  0.00     0.029 C
BRANCH  31  32
HETATM   32  C14 UNL     1      13.172   5.326  17.414  1.00  0.00     0.229 C
BRANCH  32  33
HETATM   33  N9  UNL     1      14.059   4.373  18.059  1.00  0.00    -0.079 N
ATOM     34  H93 UNL     1      15.006   4.740  18.147  1.00  0.00     0.274 HD
ATOM     35  H92 UNL     1      13.842   4.267  19.051  1.00  0.00     0.274 HD
ATOM     36  H91 UNL     1      14.044   3.477  17.573  1.00  0.00     0.274 HD
ENDBRANCH  32  33
ENDBRANCH  31  32
ENDBRANCH  30  31
ENDBRANCH  29  30
ENDBRANCH  27  29
ENDBRANCH  26  27
ENDBRANCH   8  26
TORSDOF 8
ENDMDL