MODEL 1
REMARK VINA RESULT: -8.311215737      0.000      0.000
REMARK  10 active torsions:
REMARK  status: ('A' for Active; 'I' for Inactive)
REMARK    1  A    between atoms: N1_1  and  C1_4
REMARK    2  A    between atoms: C3_8  and  N3_9
REMARK    3  A    between atoms: N3_9  and  N4_10
REMARK       I    between atoms: N3_9  and  C4_14
REMARK    4  A    between atoms: N4_10  and  O1_12
REMARK       I    between atoms: C4_14  and  N5_16
REMARK    5  A    between atoms: N5_16  and  C5_18
REMARK    6  A    between atoms: C5_18  and  C6_19
REMARK    7  A    between atoms: C10_23  and  C11_24
REMARK    8  A    between atoms: C11_24  and  N6_25
REMARK    9  A    between atoms: C11_24  and  C12_29
REMARK   10  A    between atoms: C13_33  and  N8_34
ROOT
HETATM    1  N3  UNL     1      10.251   8.890  13.717  1.00  0.00    -0.181 N
HETATM    2  C4  UNL     1       9.833   7.562  13.437  1.00  0.00     0.343 C
HETATM    3  O2  UNL     1       8.624   7.320  13.187  1.00  0.00    -0.245 OA
HETATM    4  N5  UNL     1      10.749   6.481  13.433  1.00  0.00    -0.336 N
ATOM      5  H5  UNL     1      11.737   6.644  13.629  1.00  0.00     0.164 HD
ENDROOT
BRANCH   1   6
HETATM    6  C3  UNL     1      11.592   9.234  14.017  1.00  0.00     0.123 A
HETATM    7  C2  UNL     1      12.529   9.470  13.012  1.00  0.00     0.141 A
HETATM    8  N2  UNL     1      13.791   9.783  13.350  1.00  0.00    -0.200 N
HETATM    9  C1  UNL     1      14.173   9.873  14.634  1.00  0.00     0.677 A
ATOM     10  H2  UNL     1      14.476   9.955  12.614  1.00  0.00     0.183 HD
HETATM   11  N9  UNL     1      13.303   9.653  15.636  1.00  0.00    -0.175 N
HETATM   12  C13 UNL     1      12.015   9.335  15.318  1.00  0.00     0.145 A
ATOM     13  H9  UNL     1      13.599   9.722  16.610  1.00  0.00     0.186 HD
BRANCH   9  14
HETATM   14  N1  UNL     1      15.394  10.175  14.893  1.00  0.00    -0.234 N
ATOM     15  H12 UNL     1      16.038  10.401  14.136  1.00  0.00     0.174 HD
ATOM     16  H11 UNL     1      15.699  10.184  15.866  1.00  0.00     0.174 HD
ENDBRANCH   9  14
BRANCH  12  17
HETATM   17  N8  UNL     1      11.215   9.139  16.310  1.00  0.00    -0.383 N
ATOM     18  H82 UNL     1      10.638   8.298  16.265  1.00  0.00     0.157 HD
ATOM     19  H81 UNL     1      11.165   9.786  17.097  1.00  0.00     0.157 HD
ENDBRANCH  12  17
ENDBRANCH   1   6
BRANCH   1  20
HETATM   20  N4  UNL     1       9.297   9.903  13.701  1.00  0.00    -0.199 N
ATOM     21  H4  UNL     1       9.208  10.518  12.892  1.00  0.00     0.216 HD
BRANCH  20  22
HETATM   22  O1  UNL     1       8.554  10.048  14.687  1.00  0.00    -0.274 OA
ATOM     23  H1  UNL     1       7.921   9.370  14.891  1.00  0.00     0.246 HD
ENDBRANCH  20  22
ENDBRANCH   1  20
BRANCH   4  24
HETATM   24  C5  UNL     1      10.280   5.157  13.150  1.00  0.00     0.181 C
BRANCH  24  25
HETATM   25  C6  UNL     1      10.504   4.752  11.739  1.00  0.00     0.027 A
HETATM   26  C7  UNL     1      10.437   3.457  11.290  1.00  0.00     0.027 A
HETATM   27  C8  UNL     1      10.665   3.134   9.970  1.00  0.00     0.004 A
HETATM   28  C9  UNL     1      10.970   4.176   9.091  1.00  0.00     0.027 A
HETATM   29  C10 UNL     1      11.038   5.483   9.545  1.00  0.00     0.042 A
HETATM   30  N7  UNL     1      10.802   5.704  10.834  1.00  0.00    -0.360 N
ATOM     31  H7  UNL     1      10.851   6.668  11.164  1.00  0.00     0.165 HD
BRANCH  29  32
HETATM   32  C11 UNL     1      11.377   6.614   8.609  1.00  0.00     0.261 C
BRANCH  32  33
HETATM   33  N6  UNL     1      11.891   7.736   9.337  1.00  0.00    -0.067 N
ATOM     34  H63 UNL     1      11.143   8.332   9.693  1.00  0.00     0.275 HD
ATOM     35  H62 UNL     1      12.298   7.454  10.229  1.00  0.00     0.275 HD
ATOM     36  H61 UNL     1      12.555   8.261   8.768  1.00  0.00     0.275 HD
ENDBRANCH  32  33
BRANCH  32  37
HETATM   37  C12 UNL     1      12.327   6.091   7.565  1.00  0.00     0.261 C
HETATM   38  F1  UNL     1      12.392   6.968   6.501  1.00  0.00    -0.253 F
ENDBRANCH  32  37
ENDBRANCH  29  32
ENDBRANCH  24  25
ENDBRANCH   4  24
TORSDOF 10
ENDMDL