MODEL 4
REMARK VINA RESULT: -8.777183558      2.525      9.382
REMARK  6 active torsions:
REMARK  status: ('A' for Active; 'I' for Inactive)
REMARK       I    between atoms: N1_1  and  C1_5
REMARK       I    between atoms: C1_5  and  N2_6
REMARK       I    between atoms: C1_5  and  N3_10
REMARK       I    between atoms: N3_10  and  C2_12
REMARK    1  A    between atoms: C2_12  and  C3_14
REMARK    2  A    between atoms: C3_14  and  C4_15
REMARK       I    between atoms: C4_15  and  N4_17
REMARK    3  A    between atoms: N4_17  and  C5_19
REMARK    4  A    between atoms: C8_22  and  N5_23
REMARK    5  A    between atoms: N5_23  and  N6_25
REMARK    6  A    between atoms: N6_25  and  C9_27
ROOT
HETATM    1  C5  UNL     1      11.007   5.525   9.526  1.00  0.00     0.037 A
HETATM    2  C6  UNL     1      10.805   4.205   9.089  1.00  0.00     0.032 A
HETATM    3  C7  UNL     1      11.124   3.765   7.836  1.00  0.00     0.036 A
HETATM    4  C8  UNL     1      11.673   4.658   6.946  1.00  0.00     0.086 A
HETATM    5  C13 UNL     1      11.884   5.955   7.338  1.00  0.00     0.146 A
HETATM    6  F1  UNL     1      12.427   6.849   6.465  1.00  0.00    -0.204 F
HETATM    7  C14 UNL     1      11.549   6.386   8.631  1.00  0.00     0.074 A
ENDROOT
BRANCH   1   8
HETATM    8  N4  UNL     1      10.663   5.830  10.820  1.00  0.00    -0.327 N
HETATM    9  C4  UNL     1      11.131   5.190  11.979  1.00  0.00     0.230 C
HETATM   10  O2  UNL     1      11.942   4.251  11.892  1.00  0.00    -0.273 OA
ATOM     11  H4  UNL     1      10.005   6.597  10.952  1.00  0.00     0.169 HD
BRANCH   9  12
HETATM   12  C3  UNL     1      10.660   5.626  13.340  1.00  0.00     0.205 C
BRANCH  12  13
HETATM   13  C2  UNL     1       9.762   6.763  13.215  1.00  0.00     0.229 C
HETATM   14  N3  UNL     1      10.135   8.013  13.782  1.00  0.00    -0.311 N
HETATM   15  C1  UNL     1       9.279   9.179  13.687  1.00  0.00     0.482 C
ATOM     16  H3  UNL     1      11.027   8.091  14.269  1.00  0.00     0.166 HD
HETATM   17  N1  UNL     1       8.845   9.552  15.020  1.00  0.00    -0.033 N
HETATM   18  N2  UNL     1       9.907  10.279  13.023  1.00  0.00    -0.033 N
ATOM     19  H13 UNL     1       9.614   9.934  15.571  1.00  0.00     0.278 HD
ATOM     20  H12 UNL     1       8.242  10.374  15.002  1.00  0.00     0.278 HD
ATOM     21  H11 UNL     1       8.398   8.767  15.492  1.00  0.00     0.278 HD
ATOM     22  H23 UNL     1       9.304  11.102  13.006  1.00  0.00     0.278 HD
ATOM     23  H22 UNL     1      10.675  10.662  13.575  1.00  0.00     0.278 HD
ATOM     24  H21 UNL     1      10.212  10.017  12.086  1.00  0.00     0.278 HD
HETATM   25  O1  UNL     1       8.670   6.682  12.623  1.00  0.00    -0.273 OA
ENDBRANCH  12  13
ENDBRANCH   9  12
ENDBRANCH   1   8
BRANCH   4  26
HETATM   26  N5  UNL     1      12.019   4.229   5.621  1.00  0.00    -0.297 N
ATOM     27  H5  UNL     1      12.156   4.937   4.899  1.00  0.00     0.187 HD
BRANCH  26  28
HETATM   28  N6  UNL     1      12.176   2.903   5.278  1.00  0.00    -0.299 N
ATOM     29  H6  UNL     1      11.410   2.382   4.852  1.00  0.00     0.187 HD
BRANCH  28  30
HETATM   30  C9  UNL     1      13.421   2.278   5.527  1.00  0.00     0.066 A
HETATM   31  C10 UNL     1      13.599   1.322   6.498  1.00  0.00     0.051 A
HETATM   32  C11 UNL     1      14.835   0.748   6.695  1.00  0.00     0.109 A
HETATM   33  N7  UNL     1      15.848   1.156   5.912  1.00  0.00    -0.312 N
HETATM   34  N8  UNL     1      15.688   2.078   4.972  1.00  0.00    -0.310 N
ATOM     35  H7  UNL     1      16.770   0.742   6.044  1.00  0.00     0.186 HD
HETATM   36  C12 UNL     1      14.504   2.649   4.758  1.00  0.00     0.138 A
ATOM     37  H8  UNL     1      16.487   2.354   4.402  1.00  0.00     0.186 HD
ENDBRANCH  28  30
ENDBRANCH  26  28
ENDBRANCH   4  26
TORSDOF 6
ENDMDL