MODEL 2
REMARK VINA RESULT: -9.001222287      1.014      1.014
REMARK  8 active torsions:
REMARK  status: ('A' for Active; 'I' for Inactive)
REMARK       I    between atoms: C1_2  and  N2_4
REMARK    1  A    between atoms: N2_4  and  N3_6
REMARK    2  A    between atoms: N3_6  and  C2_7
REMARK    3  A    between atoms: C2_7  and  C3_8
REMARK    4  A    between atoms: C5_10  and  N4_11
REMARK    5  A    between atoms: C5_10  and  N5_15
REMARK    6  A    between atoms: C7_20  and  N6_21
REMARK    7  A    between atoms: N6_21  and  C8_23
REMARK    8  A    between atoms: C13_29  and  N7_30
ROOT
HETATM    1  C3  UNL     1      11.222   7.464  14.864  1.00  0.00     0.144 C
HETATM    2  C4  UNL     1       9.871   8.119  14.911  1.00  0.00     0.102 C
HETATM    3  C5  UNL     1       9.104   8.010  13.623  1.00  0.00     0.288 C
HETATM    4  C6  UNL     1       9.291   6.670  13.008  1.00  0.00     0.122 C
HETATM    5  C7  UNL     1      10.782   6.441  12.802  1.00  0.00     0.225 C
HETATM    6  O4  UNL     1      11.343   6.381  14.054  1.00  0.00    -0.360 OA
ENDROOT
BRANCH   5   7
HETATM    7  N6  UNL     1      10.912   5.104  12.220  1.00  0.00    -0.362 N
ATOM      8  H6  UNL     1      10.994   4.282  12.818  1.00  0.00     0.162 HD
BRANCH   7   9
HETATM    9  C8  UNL     1      10.921   4.977  10.801  1.00  0.00     0.063 A
HETATM   10  C9  UNL     1      11.225   6.094  10.013  1.00  0.00     0.035 A
HETATM   11  C10 UNL     1      11.264   5.999   8.646  1.00  0.00     0.044 A
HETATM   12  C11 UNL     1      11.003   4.794   8.055  1.00  0.00     0.118 A
HETATM   13  F1  UNL     1      11.044   4.698   6.685  1.00  0.00    -0.206 F
HETATM   14  C12 UNL     1      10.706   3.696   8.821  1.00  0.00     0.080 A
HETATM   15  C13 UNL     1      10.656   3.761  10.220  1.00  0.00     0.132 A
BRANCH  15  16
HETATM   16  N7  UNL     1      10.345   2.572  10.915  1.00  0.00    -0.113 N
HETATM   17  O2  UNL     1      11.130   1.899  11.600  1.00  0.00    -0.532 OA
HETATM   18  O3  UNL     1       8.998   2.169  10.826  1.00  0.00    -0.532 OA
ENDBRANCH  15  16
ENDBRANCH   7   9
ENDBRANCH   5   7
BRANCH   3  19
HETATM   19  N4  UNL     1       7.681   8.137  13.990  1.00  0.00    -0.045 N
ATOM     20  H43 UNL     1       7.256   7.259  14.287  1.00  0.00     0.277 HD
ATOM     21  H42 UNL     1       7.528   8.648  14.859  1.00  0.00     0.277 HD
ATOM     22  H41 UNL     1       7.222   8.559  13.183  1.00  0.00     0.277 HD
ENDBRANCH   3  19
BRANCH   3  23
HETATM   23  N5  UNL     1       9.347   9.068  12.688  1.00  0.00    -0.045 N
ATOM     24  H53 UNL     1       8.781   9.884  12.922  1.00  0.00     0.277 HD
ATOM     25  H52 UNL     1      10.281   9.455  12.826  1.00  0.00     0.277 HD
ATOM     26  H51 UNL     1       9.212   8.812  11.710  1.00  0.00     0.277 HD
ENDBRANCH   3  23
BRANCH   1  27
HETATM   27  C2  UNL     1      12.337   8.486  14.678  1.00  0.00     0.167 C
BRANCH  27  28
HETATM   28  N3  UNL     1      13.395   8.253  15.637  1.00  0.00    -0.135 NA
BRANCH  28  29
HETATM   29  N2  UNL     1      12.918   7.680  16.814  1.00  0.00    -0.258 N
HETATM   30  C1  UNL     1      13.166   6.321  17.127  1.00  0.00     0.344 C
HETATM   31  N1  UNL     1      12.707   5.694  18.302  1.00  0.00    -0.039 NA
HETATM   32  O1  UNL     1      13.831   5.632  16.313  1.00  0.00    -0.250 OA
ATOM     33  H2  UNL     1      12.379   8.252  17.464  1.00  0.00     0.186 HD
ENDBRANCH  28  29
ENDBRANCH  27  28
ENDBRANCH   1  27
TORSDOF 8
ENDMDL