MODEL 3
REMARK VINA RESULT: -8.020300514      6.552      7.880
REMARK  8 active torsions:
REMARK  status: ('A' for Active; 'I' for Inactive)
REMARK    1  A    between atoms: C3_6  and  C4_7
REMARK    2  A    between atoms: C4_7  and  C5_8
REMARK    3  A    between atoms: C4_7  and  C8_21
REMARK    4  A    between atoms: C5_8  and  C6_10
REMARK       I    between atoms: C6_10  and  N2_12
REMARK    5  A    between atoms: N2_12  and  N3_14
REMARK       I    between atoms: N3_14  and  C7_16
REMARK    6  A    between atoms: C8_21  and  O4_22
REMARK    7  A    between atoms: C8_21  and  N6_24
REMARK    8  A    between atoms: N6_24  and  C9_26
ROOT
HETATM    1  C4  UNL     1      12.556   7.871  16.084  1.00  0.00     0.169 C
ENDROOT
BRANCH   1   2
HETATM    2  C3  UNL     1      11.346   8.617  16.608  1.00  0.00     0.089 A
HETATM    3  N1  UNL     1      11.098   9.040  17.845  1.00  0.00    -0.261 N
HETATM    4  O1  UNL     1       9.937   9.646  17.876  1.00  0.00    -0.239 OA
ATOM      5  H1  UNL     1      11.716   8.912  18.646  1.00  0.00     0.194 HD
HETATM    6  C2  UNL     1       9.386   9.646  16.687  1.00  0.00     0.113 A
HETATM    7  C1  UNL     1       8.072  10.239  16.335  1.00  0.00     0.082 C
HETATM    8  C13 UNL     1      10.252   8.997  15.846  1.00  0.00     0.172 A
HETATM    9  F1  UNL     1      10.073   8.777  14.537  1.00  0.00    -0.201 F
ENDBRANCH   1   2
BRANCH   1  10
HETATM   10  C5  UNL     1      12.781   6.755  17.028  1.00  0.00     0.232 C
HETATM   11  O2  UNL     1      12.693   7.054  18.272  1.00  0.00    -0.286 OA
BRANCH  10  12
HETATM   12  C6  UNL     1      13.080   5.388  16.691  1.00  0.00     0.306 C
HETATM   13  O3  UNL     1      12.605   4.730  15.741  1.00  0.00    -0.263 OA
HETATM   14  N2  UNL     1      14.016   4.653  17.503  1.00  0.00    -0.261 N
ATOM     15  H2  UNL     1      14.444   5.131  18.297  1.00  0.00     0.190 HD
BRANCH  14  16
HETATM   16  N3  UNL     1      14.367   3.339  17.267  1.00  0.00    -0.271 N
HETATM   17  C7  UNL     1      15.514   2.896  16.593  1.00  0.00     0.200 C
HETATM   18  N4  UNL     1      15.444   1.906  15.755  1.00  0.00    -0.372 N
HETATM   19  N5  UNL     1      16.782   3.493  16.785  1.00  0.00    -0.062 NA
ATOM     20  H42 UNL     1      14.530   1.475  15.617  1.00  0.00     0.158 HD
ATOM     21  H41 UNL     1      16.279   1.583  15.266  1.00  0.00     0.158 HD
ATOM     22  H3  UNL     1      13.730   2.622  17.615  1.00  0.00     0.189 HD
ENDBRANCH  14  16
ENDBRANCH  10  12
ENDBRANCH   1  10
BRANCH   1  23
HETATM   23  C8  UNL     1      13.678   8.893  16.093  1.00  0.00     0.237 C
BRANCH  23  24
HETATM   24  O4  UNL     1      13.056  10.124  16.464  1.00  0.00    -0.376 OA
ATOM     25  H4  UNL     1      13.771  10.741  16.567  1.00  0.00     0.212 HD
ENDBRANCH  23  24
BRANCH  23  26
HETATM   26  N6  UNL     1      14.228   9.174  14.787  1.00  0.00    -0.343 N
ATOM     27  H6  UNL     1      15.234   9.232  14.629  1.00  0.00     0.164 HD
BRANCH  26  28
HETATM   28  C9  UNL     1      13.284   9.368  13.727  1.00  0.00     0.144 A
HETATM   29  C10 UNL     1      12.625  10.516  13.378  1.00  0.00     0.058 A
HETATM   30  C11 UNL     1      11.822  10.224  12.299  1.00  0.00     0.029 A
HETATM   31  C12 UNL     1      12.037   8.870  12.033  1.00  0.00     0.144 A
HETATM   32  O5  UNL     1      12.898   8.444  12.905  1.00  0.00    -0.306 OA
ENDBRANCH  26  28
ENDBRANCH  23  26
ENDBRANCH   1  23
TORSDOF 8
ENDMDL