MODEL 3
REMARK VINA RESULT: -6.870650492      1.690      2.156
REMARK  10 active torsions:
REMARK  status: ('A' for Active; 'I' for Inactive)
REMARK    1  A    between atoms: N1_1  and  N2_4
REMARK       I    between atoms: N2_4  and  C1_6
REMARK       I    between atoms: C1_6  and  N3_8
REMARK    2  A    between atoms: N3_8  and  N4_10
REMARK    3  A    between atoms: C2_12  and  C3_13
REMARK    4  A    between atoms: C2_12  and  C10_25
REMARK    5  A    between atoms: C3_13  and  N5_14
REMARK    6  A    between atoms: N6_16  and  C4_18
REMARK       I    between atoms: C10_25  and  N7_27
REMARK    7  A    between atoms: N7_27  and  C11_29
REMARK    8  A    between atoms: C11_29  and  C12_30
REMARK    9  A    between atoms: C12_30  and  N8_31
REMARK   10  A    between atoms: C12_30  and  N9_35
ROOT
HETATM    1  N4  UNL     1      12.134   4.108  12.596  1.00  0.00    -0.294 N
ATOM      2  H4  UNL     1      12.155   4.707  13.422  1.00  0.00     0.187 HD
HETATM    3  C2  UNL     1      11.362   4.529  11.712  1.00  0.00     0.112 C
ENDROOT
BRANCH   3   4
HETATM    4  C3  UNL     1      10.626   5.834  12.062  1.00  0.00     0.203 C
BRANCH   4   5
HETATM    5  N5  UNL     1      11.142   6.819  11.158  1.00  0.00    -0.330 N
HETATM    6  N6  UNL     1      11.305   8.005  11.547  1.00  0.00    -0.305 N
ATOM      7  H6  UNL     1      11.671   8.712  10.909  1.00  0.00     0.186 HD
ATOM      8  H5  UNL     1      11.376   6.560  10.201  1.00  0.00     0.180 HD
BRANCH   6   9
HETATM    9  C4  UNL     1      10.967   8.352  12.909  1.00  0.00     0.047 A
HETATM   10  C5  UNL     1       9.662   8.600  13.264  1.00  0.00     0.032 A
HETATM   11  C6  UNL     1       9.383   8.927  14.569  1.00  0.00     0.026 A
HETATM   12  C7  UNL     1      10.359   9.015  15.538  1.00  0.00     0.034 A
HETATM   13 CL1  UNL     1       9.899   9.437  17.166  1.00  0.00    -0.084 Cl
HETATM   14  C8  UNL     1      11.662   8.766  15.180  1.00  0.00     0.026 A
HETATM   15  C9  UNL     1      11.943   8.439  13.874  1.00  0.00     0.032 A
ENDBRANCH   6   9
ENDBRANCH   4   5
ENDBRANCH   3   4
BRANCH   3  16
HETATM   16  C10 UNL     1      11.088   3.944  10.428  1.00  0.00     0.267 C
HETATM   17  O2  UNL     1      10.780   2.708  10.380  1.00  0.00    -0.266 OA
HETATM   18  N7  UNL     1      11.137   4.645   9.220  1.00  0.00    -0.352 N
ATOM     19  H7  UNL     1      11.378   5.636   9.202  1.00  0.00     0.162 HD
BRANCH  18  20
HETATM   20  C11 UNL     1      10.833   3.924   7.975  1.00  0.00     0.185 C
BRANCH  20  21
HETATM   21  C12 UNL     1      11.758   4.432   6.898  1.00  0.00     0.395 C
BRANCH  21  22
HETATM   22  N8  UNL     1      11.977   5.814   7.032  1.00  0.00    -0.049 N
ATOM     23  H83 UNL     1      11.691   6.152   7.950  1.00  0.00     0.276 HD
ATOM     24  H82 UNL     1      12.971   6.033   7.088  1.00  0.00     0.276 HD
ATOM     25  H81 UNL     1      11.518   6.331   6.282  1.00  0.00     0.276 HD
ENDBRANCH  21  22
BRANCH  21  26
HETATM   26  N9  UNL     1      11.138   4.152   5.622  1.00  0.00    -0.049 N
ATOM     27  H93 UNL     1      10.407   4.821   5.380  1.00  0.00     0.276 HD
ATOM     28  H92 UNL     1      11.755   4.336   4.831  1.00  0.00     0.276 HD
ATOM     29  H91 UNL     1      10.802   3.189   5.646  1.00  0.00     0.276 HD
ENDBRANCH  21  26
ENDBRANCH  20  21
ENDBRANCH  18  20
ENDBRANCH   3  16
BRANCH   1  30
HETATM   30  N3  UNL     1      12.945   3.044  12.705  1.00  0.00    -0.250 N
HETATM   31  C1  UNL     1      13.749   2.781  13.875  1.00  0.00     0.352 C
HETATM   32  N2  UNL     1      14.589   1.649  13.949  1.00  0.00    -0.257 N
HETATM   33  O1  UNL     1      13.674   3.593  14.828  1.00  0.00    -0.244 OA
ATOM     34  H2  UNL     1      14.645   0.992  13.172  1.00  0.00     0.191 HD
ATOM     35  H3  UNL     1      12.996   2.390  11.923  1.00  0.00     0.192 HD
BRANCH  32  36
HETATM   36  N1  UNL     1      15.339   1.448  15.103  1.00  0.00    -0.341 N
ATOM     37  H12 UNL     1      15.525   2.233  15.728  1.00  0.00     0.177 HD
ATOM     38  H11 UNL     1      15.692   0.512  15.301  1.00  0.00     0.177 HD
ENDBRANCH  32  36
ENDBRANCH   1  30
TORSDOF 10
ENDMDL