MODEL 2
REMARK VINA RESULT: -8.407664746      0.769      1.019
REMARK  10 active torsions:
REMARK  status: ('A' for Active; 'I' for Inactive)
REMARK    1  A    between atoms: N1_1  and  C1_4
REMARK    2  A    between atoms: C2_7  and  N3_8
REMARK    3  A    between atoms: C4_12  and  N4_13
REMARK    4  A    between atoms: N4_13  and  C5_15
REMARK    5  A    between atoms: C6_20  and  C7_21
REMARK    6  A    between atoms: C7_21  and  C8_22
REMARK    7  A    between atoms: C8_22  and  C9_23
REMARK    8  A    between atoms: C9_23  and  C10_24
REMARK    9  A    between atoms: C10_24  and  N7_25
REMARK   10  A    between atoms: N8_29  and  C11_30
ROOT
HETATM    1  C1  UNL     1      11.402   4.075   6.991  1.00  0.00     0.679 A
HETATM    2  N2  UNL     1      11.506   5.387   7.177  1.00  0.00    -0.176 N
ATOM      3  H2  UNL     1      11.697   5.971   6.364  1.00  0.00     0.186 HD
HETATM    4  C2  UNL     1      11.370   6.009   8.401  1.00  0.00     0.132 A
HETATM    5  C3  UNL     1      11.107   5.161   9.482  1.00  0.00     0.097 A
HETATM    6  C4  UNL     1      10.958   5.696  10.739  1.00  0.00     0.139 A
HETATM    7  N9  UNL     1      10.702   4.829  11.766  1.00  0.00    -0.337 N
ATOM      8  H9  UNL     1      10.584   5.189  12.713  1.00  0.00     0.168 HD
HETATM    9  C12 UNL     1      10.604   3.512  11.541  1.00  0.00     0.183 A
HETATM   10  N10 UNL     1      10.749   2.985  10.317  1.00  0.00    -0.337 N
ATOM     11  H10 UNL     1      10.668   1.978  10.180  1.00  0.00     0.168 HD
HETATM   12  C13 UNL     1      11.003   3.793   9.268  1.00  0.00     0.139 A
HETATM   13  N11 UNL     1      11.150   3.267   8.031  1.00  0.00    -0.176 N
ATOM     14  H11 UNL     1      11.070   2.261   7.890  1.00  0.00     0.186 HD
ENDROOT
BRANCH   6  15
HETATM   15  N4  UNL     1      11.051   6.945  10.950  1.00  0.00    -0.174 N
ATOM     16  H4  UNL     1      11.581   7.524  10.299  1.00  0.00     0.186 HD
BRANCH  15  17
HETATM   17  C5  UNL     1      10.431   7.553  12.075  1.00  0.00     0.706 A
HETATM   18  N5  UNL     1       9.221   7.208  12.551  1.00  0.00    -0.130 N
HETATM   19  N6  UNL     1       8.974   7.976  13.587  1.00  0.00    -0.274 N
ATOM     20  H5  UNL     1       8.609   6.484  12.176  1.00  0.00     0.205 HD
HETATM   21  C6  UNL     1       9.997   8.826  13.810  1.00  0.00     0.120 A
ATOM     22  H6  UNL     1       8.124   7.935  14.148  1.00  0.00     0.189 HD
HETATM   23  N8  UNL     1      10.898   8.542  12.847  1.00  0.00    -0.110 N
BRANCH  21  24
HETATM   24  C7  UNL     1      10.080   9.843  14.889  1.00  0.00     0.079 C
BRANCH  24  25
HETATM   25  C8  UNL     1      10.254   9.196  16.248  1.00  0.00     0.009 C
BRANCH  25  26
HETATM   26  C9  UNL     1      11.720   9.252  16.625  1.00  0.00     0.027 C
BRANCH  26  27
HETATM   27  C10 UNL     1      12.324   7.862  16.583  1.00  0.00     0.229 C
BRANCH  27  28
HETATM   28  N7  UNL     1      12.441   7.308  17.917  1.00  0.00    -0.079 N
ATOM     29  H73 UNL     1      13.327   6.820  18.046  1.00  0.00     0.274 HD
ATOM     30  H72 UNL     1      12.564   8.037  18.618  1.00  0.00     0.274 HD
ATOM     31  H71 UNL     1      11.644   6.708  18.132  1.00  0.00     0.274 HD
ENDBRANCH  27  28
ENDBRANCH  26  27
ENDBRANCH  25  26
ENDBRANCH  24  25
ENDBRANCH  21  24
BRANCH  23  32
HETATM   32  C11 UNL     1      12.170   9.221  12.700  1.00  0.00     0.481 C
HETATM   33  F1  UNL     1      13.027   8.928  13.740  1.00  0.00    -0.190 F
HETATM   34  F2  UNL     1      11.935  10.578  12.583  1.00  0.00    -0.190 F
ENDBRANCH  23  32
ENDBRANCH  15  17
ENDBRANCH   6  15
BRANCH   4  35
HETATM   35  N3  UNL     1      11.485   7.242   8.465  1.00  0.00    -0.384 N
ATOM     36  H32 UNL     1      12.131   7.806   7.913  1.00  0.00     0.157 HD
ATOM     37  H31 UNL     1      10.896   7.761   9.117  1.00  0.00     0.157 HD
ENDBRANCH   4  35
BRANCH   1  38
HETATM   38  N1  UNL     1      11.545   3.564   5.790  1.00  0.00    -0.234 N
ATOM     39  H12 UNL     1      12.202   2.798   5.641  1.00  0.00     0.174 HD
ATOM     40  H11 UNL     1      11.002   3.930   5.008  1.00  0.00     0.174 HD
ENDBRANCH   1  38
TORSDOF 10
ENDMDL