MODEL 2
REMARK VINA RESULT: -8.874270489      0.850      1.023
REMARK  9 active torsions:
REMARK  status: ('A' for Active; 'I' for Inactive)
REMARK       I    between atoms: N2_3  and  C2_5
REMARK    1  A    between atoms: C2_5  and  C3_7
REMARK    2  A    between atoms: C3_7  and  N3_8
REMARK    3  A    between atoms: C3_7  and  C10_17
REMARK    4  A    between atoms: N3_8  and  C4_10
REMARK    5  A    between atoms: C12_21  and  C13_22
REMARK    6  A    between atoms: C13_22  and  N5_23
REMARK    7  A    between atoms: C13_22  and  N6_27
REMARK    8  A    between atoms: N6_27  and  O2_28
REMARK    9  A    between atoms: O2_28  and  C14_29
ROOT
HETATM    1  N1  UNL     1       9.372   1.311  11.761  1.00  0.00    -0.172 NA
HETATM    2  C1  UNL     1       9.508   2.463  11.536  1.00  0.00     0.184 C
HETATM    3  N2  UNL     1       9.681   3.815  11.230  1.00  0.00    -0.258 N
ATOM      4  H2  UNL     1       8.909   4.376  10.869  1.00  0.00     0.181 HD
HETATM    5  C2  UNL     1      11.003   4.401  11.445  1.00  0.00     0.284 C
HETATM    6  O1  UNL     1      11.874   3.674  11.920  1.00  0.00    -0.265 OA
ENDROOT
BRANCH   5   7
HETATM    7  C3  UNL     1      11.179   5.813  11.069  1.00  0.00     0.146 C
BRANCH   7   8
HETATM    8  N3  UNL     1      10.772   6.015   9.679  1.00  0.00    -0.349 N
ATOM      9  H3  UNL     1      10.035   6.690   9.474  1.00  0.00     0.166 HD
BRANCH   8  10
HETATM   10  C4  UNL     1      11.365   5.309   8.612  1.00  0.00     0.032 A
HETATM   11  C5  UNL     1      12.750   5.350   8.438  1.00  0.00     0.032 A
HETATM   12  C6  UNL     1      13.364   4.610   7.466  1.00  0.00     0.044 A
HETATM   13  C7  UNL     1      12.601   3.804   6.630  1.00  0.00     0.116 A
HETATM   14  F1  UNL     1      13.187   3.047   5.680  1.00  0.00    -0.206 F
HETATM   15  C8  UNL     1      11.244   3.750   6.767  1.00  0.00     0.044 A
HETATM   16  C9  UNL     1      10.631   4.516   7.773  1.00  0.00     0.032 A
ENDBRANCH   8  10
ENDBRANCH   7   8
BRANCH   7  17
HETATM   17  C10 UNL     1      10.912   6.906  11.980  1.00  0.00     0.138 A
HETATM   18  N4  UNL     1      11.458   8.185  11.798  1.00  0.00    -0.348 N
HETATM   19  C11 UNL     1      11.085   8.995  12.775  1.00  0.00     0.118 A
ATOM     20  H4  UNL     1      12.061   8.453  11.020  1.00  0.00     0.167 HD
HETATM   21  C12 UNL     1      10.281   8.277  13.618  1.00  0.00     0.075 A
HETATM   22  N8  UNL     1      10.211   7.035  13.097  1.00  0.00    -0.340 N
ATOM     23  H8  UNL     1       9.675   6.276  13.518  1.00  0.00     0.167 HD
BRANCH  21  24
HETATM   24  C13 UNL     1       9.741   8.781  14.874  1.00  0.00     0.354 C
BRANCH  24  25
HETATM   25  N5  UNL     1       8.509   9.490  14.786  1.00  0.00    -0.053 N
ATOM     26  H53 UNL     1       8.690  10.480  14.618  1.00  0.00     0.276 HD
ATOM     27  H52 UNL     1       8.028   9.241  13.922  1.00  0.00     0.276 HD
ATOM     28  H51 UNL     1       7.874   9.385  15.577  1.00  0.00     0.276 HD
ENDBRANCH  24  25
BRANCH  24  29
HETATM   29  N6  UNL     1      10.745   9.638  15.456  1.00  0.00    -0.050 NA
BRANCH  29  30
HETATM   30  O2  UNL     1      11.710   8.947  16.124  1.00  0.00    -0.189 OA
BRANCH  30  31
HETATM   31  C14 UNL     1      11.438   8.773  17.504  1.00  0.00     0.391 C
HETATM   32  N7  UNL     1      10.486   9.536  18.197  1.00  0.00    -0.031 NA
HETATM   33  O3  UNL     1      12.082   7.911  18.118  1.00  0.00    -0.241 OA
ENDBRANCH  30  31
ENDBRANCH  29  30
ENDBRANCH  24  29
ENDBRANCH  21  24
ENDBRANCH   7  17
ENDBRANCH   5   7
TORSDOF 9
ENDMDL