MODEL 4
REMARK VINA RESULT: -8.069234499      1.405      1.538
REMARK  7 active torsions:
REMARK  status: ('A' for Active; 'I' for Inactive)
REMARK    1  A    between atoms: C4_10  and  S1_11
REMARK    2  A    between atoms: S1_11  and  C5_12
REMARK    3  A    between atoms: C9_17  and  C10_18
REMARK    4  A    between atoms: C10_18  and  N4_19
REMARK    5  A    between atoms: C10_18  and  C11_23
REMARK    6  A    between atoms: C11_23  and  O1_24
REMARK    7  A    between atoms: O1_24  and  N5_25
REMARK       I    between atoms: N5_25  and  C12_27
ROOT
HETATM    1  C5  UNL     1      10.619   7.987  13.796  1.00  0.00     0.064 C
HETATM    2  C6  UNL     1       9.209   8.308  14.168  1.00  0.00     0.053 C
HETATM    3  C7  UNL     1       9.330   9.821  14.467  1.00  0.00     0.171 C
HETATM    4  F1  UNL     1       9.653  10.470  13.291  1.00  0.00    -0.249 F
HETATM    5  C8  UNL     1      10.552   9.845  15.351  1.00  0.00     0.045 C
HETATM    6  C9  UNL     1      11.463   8.831  14.679  1.00  0.00     0.035 C
ENDROOT
BRANCH   1   7
HETATM    7  S1  UNL     1      11.054   6.282  13.635  1.00  0.00    -0.088 SA
BRANCH   7   8
HETATM    8  C4  UNL     1      10.888   5.622  12.018  1.00  0.00     0.147 A
HETATM    9  N3  UNL     1      11.083   6.334  10.884  1.00  0.00    -0.325 N
HETATM   10  C3  UNL     1      11.056   5.711   9.704  1.00  0.00     0.121 A
ATOM     11  H3  UNL     1      11.249   7.339  10.930  1.00  0.00     0.169 HD
HETATM   12  C2  UNL     1      10.827   4.347   9.580  1.00  0.00     0.093 A
HETATM   13  N2  UNL     1      11.318   6.447   8.485  1.00  0.00    -0.083 NA
HETATM   14  C1  UNL     1      10.623   3.635  10.737  1.00  0.00     0.103 A
HETATM   15  N1  UNL     1      10.425   2.372  10.715  1.00  0.00    -0.385 N
HETATM   16  N7  UNL     1      10.664   4.314  11.884  1.00  0.00    -0.323 N
ATOM     17  H12 UNL     1      10.394   1.853   9.838  1.00  0.00     0.157 HD
ATOM     18  H11 UNL     1      10.273   1.844  11.574  1.00  0.00     0.157 HD
ATOM     19  H7  UNL     1      10.508   3.784  12.740  1.00  0.00     0.169 HD
ENDBRANCH   7   8
ENDBRANCH   1   7
BRANCH   6  20
HETATM   20  C10 UNL     1      12.381   8.171  15.605  1.00  0.00     0.215 C
BRANCH  20  21
HETATM   21  N4  UNL     1      13.686   8.742  15.555  1.00  0.00    -0.072 N
ATOM     22  H43 UNL     1      14.105   8.626  14.633  1.00  0.00     0.274 HD
ATOM     23  H42 UNL     1      13.648   9.760  15.587  1.00  0.00     0.274 HD
ATOM     24  H41 UNL     1      14.291   8.370  16.287  1.00  0.00     0.274 HD
ENDBRANCH  20  21
BRANCH  20  25
HETATM   25  C11 UNL     1      11.950   8.083  17.062  1.00  0.00     0.234 C
BRANCH  25  26
HETATM   26  O1  UNL     1      12.827   7.044  17.502  1.00  0.00    -0.275 OA
BRANCH  26  27
HETATM   27  N5  UNL     1      12.698   5.961  16.800  1.00  0.00    -0.219 N
HETATM   28  C12 UNL     1      13.334   4.724  16.890  1.00  0.00     0.352 C
HETATM   29  N6  UNL     1      13.056   3.708  15.870  1.00  0.00    -0.038 NA
HETATM   30  O2  UNL     1      14.156   4.388  17.767  1.00  0.00    -0.249 OA
ATOM     31  H5  UNL     1      12.011   6.026  16.050  1.00  0.00     0.199 HD
ENDBRANCH  26  27
ENDBRANCH  25  26
ENDBRANCH  20  25
ENDBRANCH   6  20
TORSDOF 7
ENDMDL