MODEL 1
REMARK VINA RESULT: -8.757822013      0.000      0.000
REMARK  8 active torsions:
REMARK  status: ('A' for Active; 'I' for Inactive)
REMARK    1  A    between atoms: N1_1  and  C1_4
REMARK    2  A    between atoms: C4_9  and  N3_10
REMARK    3  A    between atoms: N3_10  and  N4_12
REMARK    4  A    between atoms: N4_12  and  C5_14
REMARK    5  A    between atoms: C8_17  and  C9_18
REMARK       I    between atoms: C9_18  and  N5_20
REMARK    6  A    between atoms: N5_20  and  C10_22
REMARK    7  A    between atoms: C10_22  and  C11_23
REMARK    8  A    between atoms: C10_22  and  C12_25
ROOT
HETATM    1  C5  UNL     1       8.900   7.835  13.470  1.00  0.00     0.063 A
HETATM    2  C6  UNL     1       8.575   6.509  13.276  1.00  0.00     0.035 A
HETATM    3  C7  UNL     1       9.299   5.701  12.411  1.00  0.00     0.037 A
HETATM    4  C8  UNL     1      10.370   6.232  11.727  1.00  0.00     0.100 A
HETATM    5  N6  UNL     1      10.681   7.531  11.926  1.00  0.00    -0.359 N
ATOM      6  H6  UNL     1      11.474   7.928  11.422  1.00  0.00     0.165 HD
HETATM    7  C13 UNL     1       9.977   8.329  12.769  1.00  0.00     0.119 A
ENDROOT
BRANCH   1   8
HETATM    8  N4  UNL     1       8.173   8.680  14.349  1.00  0.00    -0.298 N
ATOM      9  H4  UNL     1       7.180   8.516  14.517  1.00  0.00     0.187 HD
BRANCH   8  10
HETATM   10  N3  UNL     1       8.830   9.737  14.983  1.00  0.00    -0.284 N
ATOM     11  H3  UNL     1       8.511  10.688  14.799  1.00  0.00     0.188 HD
BRANCH  10  12
HETATM   12  C4  UNL     1       9.919   9.546  15.870  1.00  0.00     0.137 A
HETATM   13  C3  UNL     1       9.674   9.394  17.218  1.00  0.00     0.137 A
HETATM   14  N2  UNL     1      10.729   9.212  18.044  1.00  0.00    -0.368 N
HETATM   15  C2  UNL     1      11.981   9.183  17.553  1.00  0.00     0.136 A
ATOM     16  H2  UNL     1      10.575   9.097  19.046  1.00  0.00     0.164 HD
HETATM   17  C1  UNL     1      12.218   9.337  16.197  1.00  0.00     0.116 A
HETATM   18  N7  UNL     1      11.160   9.520  15.356  1.00  0.00    -0.326 N
ATOM     19  H7  UNL     1      11.309   9.635  14.353  1.00  0.00     0.169 HD
BRANCH  17  20
HETATM   20  N1  UNL     1      13.409   9.307  15.748  1.00  0.00    -0.384 N
ATOM     21  H12 UNL     1      14.081   8.625  16.100  1.00  0.00     0.157 HD
ATOM     22  H11 UNL     1      13.701   9.967  15.028  1.00  0.00     0.157 HD
ENDBRANCH  17  20
ENDBRANCH  10  12
ENDBRANCH   8  10
ENDBRANCH   1   8
BRANCH   4  23
HETATM   23  C9  UNL     1      11.152   5.413  10.813  1.00  0.00     0.269 C
HETATM   24  O1  UNL     1      11.985   4.598  11.284  1.00  0.00    -0.266 OA
HETATM   25  N5  UNL     1      11.014   5.491   9.405  1.00  0.00    -0.336 N
ATOM     26  H5  UNL     1      10.340   6.150   9.017  1.00  0.00     0.164 HD
BRANCH  25  27
HETATM   27  C10 UNL     1      11.785   4.681   8.498  1.00  0.00     0.247 C
BRANCH  27  28
HETATM   28  C11 UNL     1      10.953   4.139   7.388  1.00  0.00     0.267 C
HETATM   29  O2  UNL     1      11.450   3.282   6.679  1.00  0.00    -0.304 OA
ENDBRANCH  27  28
BRANCH  27  30
HETATM   30  C12 UNL     1      12.837   5.533   7.888  1.00  0.00     0.203 C
HETATM   31  O3  UNL     1      14.033   5.481   8.274  1.00  0.00    -0.646 OA
HETATM   32  O4  UNL     1      12.482   6.417   6.857  1.00  0.00    -0.646 OA
ENDBRANCH  27  30
ENDBRANCH  25  27
ENDBRANCH   4  23
TORSDOF 8
ENDMDL