MODEL 4
REMARK VINA RESULT: -6.283659870      3.706      6.003
REMARK  6 active torsions:
REMARK  status: ('A' for Active; 'I' for Inactive)
REMARK    1  A    between atoms: C3_4  and  N2_5
REMARK    2  A    between atoms: C8_12  and  S1_13
REMARK    3  A    between atoms: S1_13  and  C9_14
REMARK    4  A    between atoms: C9_14  and  C10_15
REMARK    5  A    between atoms: C10_15  and  O1_16
REMARK    6  A    between atoms: C11_18  and  C12_19
ROOT
HETATM    1  N1  UNL     1      23.019  24.215   8.227  1.00  0.00    -0.191 NA
HETATM    2  C1  UNL     1      22.185  24.860   8.729  1.00  0.00     0.105 C
HETATM    3  C2  UNL     1      21.160  25.648   9.371  1.00  0.00     0.110 A
HETATM    4  C3  UNL     1      21.394  26.335  10.544  1.00  0.00     0.127 A
HETATM    5  N3  UNL     1      20.409  27.056  11.098  1.00  0.00    -0.335 N
ATOM      6  H3  UNL     1      20.595  27.559  11.966  1.00  0.00     0.168 HD
HETATM    7  C8  UNL     1      19.171  27.142  10.544  1.00  0.00     0.086 A
HETATM    8  C11 UNL     1      18.899  26.478   9.385  1.00  0.00     0.058 A
HETATM    9  C13 UNL     1      19.906  25.721   8.788  1.00  0.00     0.071 A
HETATM   10  S2  UNL     1      19.555  24.929   7.394  1.00  0.00    -0.077 SA
ENDROOT
BRANCH   4  11
HETATM   11  N2  UNL     1      22.680  26.258  11.129  1.00  0.00    -0.366 N
HETATM   12  C4  UNL     1      23.842  26.997  10.611  1.00  0.00     0.124 C
HETATM   13  C5  UNL     1      24.989  26.145  11.105  1.00  0.00     0.021 C
HETATM   14  C6  UNL     1      24.517  25.832  12.523  1.00  0.00     0.021 C
HETATM   15  C7  UNL     1      23.077  25.476  12.286  1.00  0.00     0.124 C
ENDBRANCH   4  11
BRANCH   8  16
HETATM   16  C12 UNL     1      17.584  26.547   8.780  1.00  0.00     0.274 C
HETATM   17  O2  UNL     1      17.233  27.445   7.976  1.00  0.00    -0.301 OA
ENDBRANCH   8  16
BRANCH   7  18
HETATM   18  S1  UNL     1      17.956  28.134  11.373  1.00  0.00    -0.109 SA
BRANCH  18  19
HETATM   19  C9  UNL     1      18.626  28.863  12.896  1.00  0.00     0.107 C
BRANCH  19  20
HETATM   20  C10 UNL     1      17.435  29.123  13.819  1.00  0.00     0.174 C
BRANCH  20  21
HETATM   21  O1  UNL     1      16.410  29.773  13.148  1.00  0.00    -0.400 OA
ATOM     22  H1  UNL     1      15.995  30.426  13.700  1.00  0.00     0.209 HD
ENDBRANCH  20  21
ENDBRANCH  19  20
ENDBRANCH  18  19
ENDBRANCH   7  18
TORSDOF 6
ENDMDL