MODEL 1
REMARK VINA RESULT: -6.910253609      0.000      0.000
REMARK  6 active torsions:
REMARK  status: ('A' for Active; 'I' for Inactive)
REMARK    1  A    between atoms: C4_4  and  N1_5
REMARK    2  A    between atoms: C5_12  and  S1_13
REMARK    3  A    between atoms: S1_13  and  C6_14
REMARK    4  A    between atoms: C6_14  and  C7_15
REMARK    5  A    between atoms: C7_15  and  N5_16
REMARK    6  A    between atoms: N5_16  and  C8_19
ROOT
HETATM    1  N1  UNL     1      21.287  28.913  11.760  1.00  0.00    -0.215 N
HETATM    2  N2  UNL     1      21.963  29.994  12.141  1.00  0.00    -0.219 N
ATOM      3  H2  UNL     1      22.981  30.063  12.161  1.00  0.00     0.210 HD
HETATM    4  N3  UNL     1      21.149  30.953  12.484  1.00  0.00    -0.226 N
ATOM      5  H3  UNL     1      21.413  31.882  12.812  1.00  0.00     0.210 HD
HETATM    6  N4  UNL     1      19.932  30.504  12.329  1.00  0.00    -0.263 N
ATOM      7  H4  UNL     1      19.076  31.027  12.517  1.00  0.00     0.190 HD
HETATM    8  C5  UNL     1      19.995  29.228  11.876  1.00  0.00     0.183 A
ENDROOT
BRANCH   8   9
HETATM    9  S1  UNL     1      18.590  28.208  11.522  1.00  0.00    -0.089 SA
BRANCH   9  10
HETATM   10  C6  UNL     1      18.485  27.890   9.738  1.00  0.00     0.110 C
BRANCH  10  11
HETATM   11  C7  UNL     1      18.818  26.446   9.510  1.00  0.00     0.243 C
BRANCH  11  12
HETATM   12  N5  UNL     1      17.830  25.760   8.712  1.00  0.00    -0.070 N
ATOM     13  H52 UNL     1      17.105  25.319   9.279  1.00  0.00     0.277 HD
ATOM     14  H51 UNL     1      17.230  26.401   8.194  1.00  0.00     0.277 HD
BRANCH  12  15
HETATM   15  C8  UNL     1      18.508  24.822   7.856  1.00  0.00     0.186 C
HETATM   16  C9  UNL     1      19.987  24.717   8.192  1.00  0.00     0.033 C
HETATM   17  C10 UNL     1      20.616  24.324   6.883  1.00  0.00     0.002 C
HETATM   18  C11 UNL     1      19.580  24.437   5.820  1.00  0.00     0.002 C
HETATM   19  C12 UNL     1      18.571  25.395   6.455  1.00  0.00     0.033 C
ENDBRANCH  12  15
ENDBRANCH  11  12
ENDBRANCH  10  11
ENDBRANCH   9  10
ENDBRANCH   8   9
BRANCH   1  20
HETATM   20  C4  UNL     1      21.856  27.685  11.321  1.00  0.00     0.084 A
HETATM   21  C3  UNL     1      22.468  27.386  10.127  1.00  0.00     0.058 A
HETATM   22  C2  UNL     1      22.884  26.069  10.102  1.00  0.00     0.007 A
HETATM   23  C1  UNL     1      23.587  25.351   8.994  1.00  0.00     0.068 C
HETATM   24  N6  UNL     1      22.516  25.560  11.301  1.00  0.00    -0.362 N
HETATM   25  C13 UNL     1      21.904  26.498  12.045  1.00  0.00     0.034 A
ATOM     26  H6  UNL     1      22.681  24.598  11.600  1.00  0.00     0.165 HD
HETATM   27  C14 UNL     1      21.352  26.318  13.431  1.00  0.00     0.070 C
ENDBRANCH   1  20
TORSDOF 6
ENDMDL