MODEL 3
REMARK VINA RESULT: -5.413009058      2.541      3.477
REMARK  5 active torsions:
REMARK  status: ('A' for Active; 'I' for Inactive)
REMARK    1  A    between atoms: C2_2  and  C3_3
REMARK    2  A    between atoms: N1_4  and  C5_6
REMARK    3  A    between atoms: C5_6  and  C6_7
REMARK    4  A    between atoms: C7_8  and  C8_9
REMARK    5  A    between atoms: C8_9  and  O1_10
ROOT
HETATM    1  C5  UNL     1      22.161  27.887  12.203  1.00  0.00     0.143 C
HETATM    2  C11 UNL     1      21.668  26.542  11.835  1.00  0.00     0.133 C
HETATM    3  S1  UNL     1      22.236  25.878  10.227  1.00  0.00    -0.161 SA
HETATM    4  C12 UNL     1      24.032  26.151  10.278  1.00  0.00     0.114 C
HETATM    5  C13 UNL     1      24.323  27.485  10.904  1.00  0.00     0.196 C
HETATM    6  C14 UNL     1      25.668  27.297  11.539  1.00  0.00     0.085 C
HETATM    7  N3  UNL     1      26.733  27.168  12.027  1.00  0.00    -0.195 NA
HETATM    8  N4  UNL     1      23.498  28.162  11.691  1.00  0.00    -0.375 N
ATOM      9  H4  UNL     1      23.876  29.057  12.001  1.00  0.00     0.157 HD
ENDROOT
BRANCH   1  10
HETATM   10  N1  UNL     1      21.325  29.006  11.991  1.00  0.00    -0.367 N
HETATM   11  C3  UNL     1      20.050  29.108  11.541  1.00  0.00     0.060 C
HETATM   12  C4  UNL     1      21.660  30.248  12.649  1.00  0.00     0.151 C
BRANCH  11  13
HETATM   13  C2  UNL     1      19.204  28.005  11.029  1.00  0.00     0.040 C
HETATM   14  C1  UNL     1      17.763  28.130  11.621  1.00  0.00     0.010 C
ENDBRANCH  11  13
ENDBRANCH   1  10
BRANCH   1  15
HETATM   15  C6  UNL     1      22.386  27.898  13.708  1.00  0.00     0.049 A
HETATM   16  C7  UNL     1      21.538  27.251  14.608  1.00  0.00     0.069 A
HETATM   17  N2  UNL     1      22.105  27.414  15.826  1.00  0.00    -0.262 N
HETATM   18  O2  UNL     1      23.175  28.073  15.766  1.00  0.00    -0.242 OA
ATOM     19  H2  UNL     1      21.711  27.046  16.692  1.00  0.00     0.194 HD
HETATM   20  C9  UNL     1      23.397  28.398  14.472  1.00  0.00     0.085 A
HETATM   21  C10 UNL     1      24.600  29.165  14.166  1.00  0.00     0.079 C
BRANCH  16  22
HETATM   22  C8  UNL     1      20.284  26.597  14.318  1.00  0.00     0.224 C
BRANCH  22  23
HETATM   23  O1  UNL     1      19.241  27.513  14.663  1.00  0.00    -0.395 OA
ATOM     24  H1  UNL     1      18.638  27.050  15.231  1.00  0.00     0.209 HD
ENDBRANCH  22  23
ENDBRANCH  16  22
ENDBRANCH   1  15
TORSDOF 5
ENDMDL