MODEL 4
REMARK VINA RESULT: -6.670994359      2.565      4.083
REMARK  5 active torsions:
REMARK  status: ('A' for Active; 'I' for Inactive)
REMARK    1  A    between atoms: C2_2  and  N1_3
REMARK    2  A    between atoms: N1_3  and  C4_5
REMARK    3  A    between atoms: C4_5  and  C5_6
REMARK    4  A    between atoms: C5_6  and  S1_7
REMARK    5  A    between atoms: S1_7  and  C6_8
ROOT
HETATM    1  C6  UNL     1      19.942  24.881   7.481  1.00  0.00     0.147 A
HETATM    2  N2  UNL     1      18.839  25.567   7.118  1.00  0.00    -0.323 N
ATOM      3  H2  UNL     1      18.455  25.394   6.189  1.00  0.00     0.169 HD
HETATM    4  C7  UNL     1      18.213  26.461   7.898  1.00  0.00     0.149 A
HETATM    5  N3  UNL     1      17.047  27.170   7.471  1.00  0.00    -0.080 NA
HETATM    6  C8  UNL     1      18.765  26.664   9.145  1.00  0.00     0.125 A
HETATM    7  C9  UNL     1      19.891  25.983   9.552  1.00  0.00     0.176 A
HETATM    8  N4  UNL     1      20.461  25.095   8.699  1.00  0.00    -0.315 N
ATOM      9  H4  UNL     1      21.295  24.585   8.988  1.00  0.00     0.170 HD
HETATM   10  O1  UNL     1      20.531  26.102  10.771  1.00  0.00    -0.319 OA
HETATM   11  C10 UNL     1      20.644  27.211  11.663  1.00  0.00     0.081 C
HETATM   12  C11 UNL     1      21.612  28.219  11.047  1.00  0.00     0.051 C
HETATM   13  C12 UNL     1      21.216  26.722  12.954  1.00  0.00     0.051 C
HETATM   14  C13 UNL     1      19.374  27.899  11.915  1.00  0.00     0.027 C
HETATM   15  C14 UNL     1      18.266  28.089  11.193  1.00  0.00     0.087 C
HETATM   16  N5  UNL     1      18.022  27.632   9.890  1.00  0.00    -0.360 N
ATOM     17  H5  UNL     1      17.216  28.039   9.417  1.00  0.00     0.165 HD
ENDROOT
BRANCH   1  18
HETATM   18  S1  UNL     1      20.591  23.739   6.280  1.00  0.00    -0.089 SA
BRANCH  18  19
HETATM   19  C5  UNL     1      22.399  23.774   6.362  1.00  0.00     0.127 C
BRANCH  19  20
HETATM   20  C4  UNL     1      22.906  22.970   7.541  1.00  0.00     0.073 C
BRANCH  20  21
HETATM   21  N1  UNL     1      24.117  23.443   8.078  1.00  0.00    -0.378 N
HETATM   22  C3  UNL     1      25.163  22.561   8.358  1.00  0.00     0.154 C
BRANCH  21  23
HETATM   23  C2  UNL     1      24.278  24.825   8.294  1.00  0.00     0.058 C
HETATM   24  C1  UNL     1      23.891  25.212   9.701  1.00  0.00     0.055 C
ENDBRANCH  21  23
ENDBRANCH  20  21
ENDBRANCH  19  20
ENDBRANCH  18  19
ENDBRANCH   1  18
TORSDOF 5
ENDMDL