MODEL 1
REMARK VINA RESULT: -7.827543990      0.000      0.000
REMARK  6 active torsions:
REMARK  status: ('A' for Active; 'I' for Inactive)
REMARK    1  A    between atoms: C3_4  and  C4_5
REMARK    2  A    between atoms: C9_12  and  S1_13
REMARK    3  A    between atoms: S1_13  and  C10_14
REMARK    4  A    between atoms: C10_14  and  C11_15
REMARK    5  A    between atoms: C11_15  and  N3_16
REMARK    6  A    between atoms: C15_24  and  N6_25
ROOT
HETATM    1  N1  UNL     1      18.648  24.975   5.910  1.00  0.00    -0.191 NA
HETATM    2  C1  UNL     1      18.986  25.395   6.956  1.00  0.00     0.105 C
HETATM    3  C2  UNL     1      19.386  25.939   8.240  1.00  0.00     0.111 A
HETATM    4  C3  UNL     1      20.645  25.704   8.755  1.00  0.00     0.040 A
HETATM    5  N2  UNL     1      20.927  26.266   9.948  1.00  0.00    -0.338 N
ATOM      6  H2  UNL     1      21.851  26.109  10.350  1.00  0.00     0.168 HD
HETATM    7  C9  UNL     1      20.068  27.012  10.624  1.00  0.00     0.146 A
HETATM    8  N5  UNL     1      18.841  27.229  10.104  1.00  0.00    -0.322 N
ATOM      9  H5  UNL     1      18.174  27.803  10.620  1.00  0.00     0.169 HD
HETATM   10  C15 UNL     1      18.481  26.709   8.926  1.00  0.00     0.123 A
ENDROOT
BRANCH   4  11
HETATM   11  C4  UNL     1      21.564  24.871   7.994  1.00  0.00     0.037 C
HETATM   12  C5  UNL     1      23.001  24.898   8.440  1.00  0.00     0.011 C
HETATM   13  C6  UNL     1      23.605  23.624   7.854  1.00  0.00     0.001 C
HETATM   14  C7  UNL     1      22.449  22.851   7.272  1.00  0.00     0.001 C
HETATM   15  C8  UNL     1      21.273  23.376   8.095  1.00  0.00     0.011 C
ENDBRANCH   4  11
BRANCH  10  16
HETATM   16  N6  UNL     1      17.317  26.900   8.407  1.00  0.00    -0.384 N
ATOM     17  H62 UNL     1      16.723  26.135   8.087  1.00  0.00     0.157 HD
ATOM     18  H61 UNL     1      16.977  27.857   8.311  1.00  0.00     0.157 HD
ENDBRANCH  10  16
BRANCH   7  19
HETATM   19  S1  UNL     1      20.439  27.756  12.230  1.00  0.00    -0.092 SA
BRANCH  19  20
HETATM   20  C10 UNL     1      19.278  29.104  12.510  1.00  0.00     0.102 C
BRANCH  20  21
HETATM   21  C11 UNL     1      19.033  29.253  13.986  1.00  0.00     0.139 C
BRANCH  21  22
HETATM   22  N3  UNL     1      17.749  28.692  14.310  1.00  0.00    -0.351 N
HETATM   23  C12 UNL     1      16.711  29.441  14.781  1.00  0.00     0.108 A
HETATM   24  C13 UNL     1      15.648  28.595  14.978  1.00  0.00     0.106 A
HETATM   25  N4  UNL     1      16.023  27.350  14.638  1.00  0.00    -0.361 N
HETATM   26  C14 UNL     1      17.326  27.439  14.228  1.00  0.00     0.182 A
ATOM     27  H4  UNL     1      15.451  26.506  14.678  1.00  0.00     0.166 HD
ENDBRANCH  21  22
ENDBRANCH  20  21
ENDBRANCH  19  20
ENDBRANCH   7  19
TORSDOF 6
ENDMDL