MODEL 5
REMARK VINA RESULT: -6.704707851      1.926      2.586
REMARK  6 active torsions:
REMARK  status: ('A' for Active; 'I' for Inactive)
REMARK    1  A    between atoms: C2_2  and  C3_3
REMARK    2  A    between atoms: C3_3  and  C4_4
REMARK    3  A    between atoms: C4_4  and  N1_5
REMARK    4  A    between atoms: C5_10  and  N4_11
REMARK    5  A    between atoms: N4_11  and  O1_13
REMARK    6  A    between atoms: C6_15  and  C7_16
ROOT
HETATM    1  N1  UNL     1      21.300  24.705   7.626  1.00  0.00    -0.274 N
HETATM    2  N2  UNL     1      21.343  24.017   6.477  1.00  0.00    -0.239 N
ATOM      3  H2  UNL     1      20.617  24.054   5.762  1.00  0.00     0.208 HD
HETATM    4  N3  UNL     1      22.421  23.299   6.383  1.00  0.00    -0.268 N
ATOM      5  H3  UNL     1      22.670  22.693   5.601  1.00  0.00     0.190 HD
HETATM    6  C5  UNL     1      23.139  23.487   7.475  1.00  0.00     0.169 A
HETATM    7  C6  UNL     1      22.420  24.394   8.276  1.00  0.00     0.127 A
ENDROOT
BRANCH   7   8
HETATM    8  C7  UNL     1      22.928  24.793   9.583  1.00  0.00     0.344 C
HETATM    9  N5  UNL     1      22.013  25.424  10.492  1.00  0.00    -0.326 N
HETATM   10  C8  UNL     1      22.888  25.871  11.569  1.00  0.00     0.256 C
ATOM     11  H5  UNL     1      21.002  25.532  10.406  1.00  0.00     0.165 HD
HETATM   12  O2  UNL     1      22.595  25.904  12.783  1.00  0.00    -0.271 OA
HETATM   13  C9  UNL     1      24.153  26.256  10.890  1.00  0.00     0.208 C
HETATM   14  C10 UNL     1      25.353  25.787  11.641  1.00  0.00     0.049 C
HETATM   15  C14 UNL     1      24.115  27.766  10.724  1.00  0.00     0.049 C
HETATM   16  N6  UNL     1      24.065  25.691   9.552  1.00  0.00    -0.031 N
HETATM   17  C11 UNL     1      26.503  26.743  11.622  1.00  0.00     0.003 C
HETATM   18  C12 UNL     1      26.146  28.140  12.006  1.00  0.00     0.000 C
HETATM   19  C13 UNL     1      24.638  28.367  12.012  1.00  0.00     0.003 C
ATOM     20  H62 UNL     1      24.928  25.249   9.236  1.00  0.00     0.281 HD
ATOM     21  H61 UNL     1      24.012  26.394   8.814  1.00  0.00     0.281 HD
ENDBRANCH   7   8
BRANCH   1  22
HETATM   22  C4  UNL     1      20.251  25.560   8.080  1.00  0.00     0.150 C
BRANCH  22  23
HETATM   23  C3  UNL     1      19.078  25.611   7.127  1.00  0.00     0.021 C
BRANCH  23  24
HETATM   24  C2  UNL     1      17.923  26.398   7.665  1.00  0.00    -0.003 C
HETATM   25  C1  UNL     1      17.498  25.765   8.973  1.00  0.00     0.005 C
ENDBRANCH  23  24
ENDBRANCH  22  23
ENDBRANCH   1  22
BRANCH   6  26
HETATM   26  N4  UNL     1      24.387  22.868   7.732  1.00  0.00    -0.250 N
ATOM     27  H4  UNL     1      24.412  21.896   8.039  1.00  0.00     0.196 HD
BRANCH  26  28
HETATM   28  O1  UNL     1      25.450  23.490   7.591  1.00  0.00    -0.288 OA
ATOM     29  H1  UNL     1      26.289  23.054   7.686  1.00  0.00     0.244 HD
ENDBRANCH  26  28
ENDBRANCH   6  26
TORSDOF 6
ENDMDL