MODEL 1
REMARK VINA RESULT: -7.313487959      0.000      0.000
REMARK  5 active torsions:
REMARK  status: ('A' for Active; 'I' for Inactive)
REMARK    1  A    between atoms: C2_2  and  C3_3
REMARK    2  A    between atoms: C3_3  and  N1_4
REMARK    3  A    between atoms: C4_5  and  C5_6
REMARK    4  A    between atoms: C5_6  and  S1_7
REMARK    5  A    between atoms: S1_7  and  C6_8
ROOT
HETATM    1  C5  UNL     1      17.853  27.483  10.569  1.00  0.00     0.159 C
ENDROOT
BRANCH   1   2
HETATM    2  C4  UNL     1      18.872  28.394  11.245  1.00  0.00     0.110 A
HETATM    3  N1  UNL     1      18.879  28.805  12.528  1.00  0.00    -0.311 N
HETATM    4  C12 UNL     1      19.952  29.650  12.695  1.00  0.00     0.194 A
HETATM    5  N5  UNL     1      20.580  29.745  11.520  1.00  0.00    -0.275 N
HETATM    6  S2  UNL     1      20.406  30.425  14.065  1.00  0.00    -0.039 SA
HETATM    7  N4  UNL     1      19.929  28.994  10.669  1.00  0.00    -0.286 N
ATOM      8  H5  UNL     1      21.412  30.301  11.322  1.00  0.00     0.189 HD
ATOM      9  H4  UNL     1      20.190  28.878   9.690  1.00  0.00     0.188 HD
BRANCH   3  10
HETATM   10  C3  UNL     1      17.997  28.487  13.599  1.00  0.00     0.132 C
BRANCH  10  11
HETATM   11  C2  UNL     1      16.742  29.244  13.749  1.00  0.00     0.016 C
HETATM   12  C1  UNL     1      15.823  28.899  14.865  1.00  0.00     0.006 C
ENDBRANCH  10  11
ENDBRANCH   3  10
ENDBRANCH   1   2
BRANCH   1  13
HETATM   13  S1  UNL     1      18.274  27.080   8.914  1.00  0.00    -0.103 SA
BRANCH  13  14
HETATM   14  C6  UNL     1      19.473  25.873   8.555  1.00  0.00     0.091 A
HETATM   15  N2  UNL     1      20.396  25.637   9.551  1.00  0.00    -0.291 N
HETATM   16  N3  UNL     1      21.399  24.826   9.454  1.00  0.00    -0.265 N
ATOM     17  H2  UNL     1      20.280  26.140  10.431  1.00  0.00     0.187 HD
HETATM   18  C7  UNL     1      21.573  24.152   8.310  1.00  0.00     0.266 A
ATOM     19  H3  UNL     1      22.044  24.701  10.234  1.00  0.00     0.190 HD
HETATM   20  O1  UNL     1      22.531  23.343   8.152  1.00  0.00    -0.266 OA
HETATM   21  C8  UNL     1      20.714  24.313   7.250  1.00  0.00     0.016 A
HETATM   22  C9  UNL     1      20.926  23.566   5.973  1.00  0.00     0.055 C
HETATM   23  C10 UNL     1      19.639  25.195   7.374  1.00  0.00    -0.016 A
HETATM   24  C11 UNL     1      18.784  25.425   6.181  1.00  0.00     0.052 C
ENDBRANCH  13  14
ENDBRANCH   1  13
TORSDOF 5
ENDMDL