MODEL 2
REMARK VINA RESULT: -6.491258362      1.919      2.481
REMARK  7 active torsions:
REMARK  status: ('A' for Active; 'I' for Inactive)
REMARK    1  A    between atoms: C2_4  and  C3_6
REMARK    2  A    between atoms: C3_6  and  N3_8
REMARK    3  A    between atoms: C3_6  and  C8_13
REMARK    4  A    between atoms: N3_8  and  C5_10
REMARK    5  A    between atoms: N4_15  and  C10_16
REMARK    6  A    between atoms: C15_23  and  N6_24
REMARK    7  A    between atoms: N6_24  and  O1_26
ROOT
HETATM    1  C8  UNL     1      19.333  28.724  12.566  1.00  0.00     0.041 A
HETATM    2  C9  UNL     1      18.797  27.833  11.656  1.00  0.00     0.124 A
HETATM    3  N4  UNL     1      19.327  28.022  10.449  1.00  0.00    -0.296 N
HETATM    4  N5  UNL     1      20.173  28.995  10.565  1.00  0.00    -0.281 N
ATOM      5  H5  UNL     1      20.733  29.361   9.795  1.00  0.00     0.189 HD
HETATM    6  C15 UNL     1      20.223  29.463  11.821  1.00  0.00     0.150 A
ENDROOT
BRANCH   1   7
HETATM    7  C3  UNL     1      19.016  28.819  14.007  1.00  0.00     0.111 C
HETATM    8  C4  UNL     1      18.257  27.510  14.328  1.00  0.00     0.052 C
BRANCH   7   9
HETATM    9  C2  UNL     1      20.292  28.688  14.777  1.00  0.00     0.121 C
HETATM   10  N1  UNL     1      20.878  27.548  14.928  1.00  0.00    -0.384 N
HETATM   11  C1  UNL     1      22.098  27.447  15.666  1.00  0.00     0.147 C
ATOM     12  H1  UNL     1      20.467  26.710  14.518  1.00  0.00     0.160 HD
HETATM   13  N2  UNL     1      20.955  29.784  15.391  1.00  0.00    -0.085 NA
ENDBRANCH   7   9
BRANCH   7  14
HETATM   14  N3  UNL     1      18.370  29.953  14.462  1.00  0.00    -0.400 N
ATOM     15  H3  UNL     1      18.929  30.807  14.461  1.00  0.00     0.155 HD
BRANCH  14  16
HETATM   16  C5  UNL     1      17.090  30.088  14.911  1.00  0.00     0.070 C
HETATM   17  C6  UNL     1      16.791  31.295  15.818  1.00  0.00     0.031 C
HETATM   18  C7  UNL     1      15.952  30.043  13.927  1.00  0.00     0.031 C
ENDBRANCH  14  16
ENDBRANCH   7  14
ENDBRANCH   1   7
BRANCH   6  19
HETATM   19  N6  UNL     1      21.055  30.547  12.247  1.00  0.00    -0.251 N
ATOM     20  H6  UNL     1      22.073  30.504  12.191  1.00  0.00     0.196 HD
BRANCH  19  21
HETATM   21  O1  UNL     1      20.453  31.559  12.694  1.00  0.00    -0.288 OA
ATOM     22  H1  UNL     1      20.826  31.952  13.474  1.00  0.00     0.244 HD
ENDBRANCH  19  21
ENDBRANCH   6  19
BRANCH   3  23
HETATM   23  C10 UNL     1      18.969  27.235   9.259  1.00  0.00     0.107 C
HETATM   24  C11 UNL     1      17.650  26.513   9.503  1.00  0.00     0.027 C
HETATM   25  C12 UNL     1      17.648  25.489   8.384  1.00  0.00     0.002 C
HETATM   26  C13 UNL     1      19.100  25.199   8.093  1.00  0.00     0.002 C
HETATM   27  C14 UNL     1      19.908  26.101   9.024  1.00  0.00     0.027 C
ENDBRANCH   3  23
TORSDOF 7
ENDMDL