MODEL 1
REMARK VINA RESULT: -6.834616166      0.000      0.000
REMARK  5 active torsions:
REMARK  status: ('A' for Active; 'I' for Inactive)
REMARK    1  A    between atoms: C2_2  and  C3_3
REMARK    2  A    between atoms: C8_8  and  C9_9
REMARK    3  A    between atoms: C9_9  and  C10_11
REMARK    4  A    between atoms: C10_11  and  N1_12
REMARK    5  A    between atoms: C12_18  and  N4_19
ROOT
HETATM    1  C3  UNL     1      20.994  25.933  10.653  1.00  0.00    -0.003 C
HETATM    2  C4  UNL     1      22.462  26.103  10.811  1.00  0.00    -0.007 C
HETATM    3  C5  UNL     1      22.800  27.381  10.069  1.00  0.00     0.005 C
HETATM    4  C6  UNL     1      21.524  28.185  10.101  1.00  0.00     0.009 C
HETATM    5  C7  UNL     1      20.497  27.373  10.838  1.00  0.00     0.036 C
HETATM    6  C8  UNL     1      20.393  27.699  12.306  1.00  0.00     0.164 C
HETATM    7  C13 UNL     1      21.715  28.078  12.923  1.00  0.00     0.085 C
HETATM    8  C14 UNL     1      22.232  26.710  13.249  1.00  0.00     0.164 C
HETATM    9  C15 UNL     1      22.983  26.037  12.187  1.00  0.00     0.040 C
HETATM   10  O2  UNL     1      21.057  26.084  13.636  1.00  0.00    -0.234 OA
HETATM   11  O3  UNL     1      20.072  26.550  12.972  1.00  0.00    -0.221 OA
ENDROOT
BRANCH   6  12
HETATM   12  C9  UNL     1      19.400  28.756  12.584  1.00  0.00     0.183 C
HETATM   13  O1  UNL     1      19.773  29.773  13.143  1.00  0.00    -0.293 OA
BRANCH  12  14
HETATM   14  C10 UNL     1      17.964  28.635  12.212  1.00  0.00     0.230 C
BRANCH  14  15
HETATM   15  N1  UNL     1      17.152  28.578  13.409  1.00  0.00    -0.170 N
HETATM   16  C11 UNL     1      16.801  27.438  14.031  1.00  0.00     0.218 A
HETATM   17  N2  UNL     1      16.040  27.752  15.119  1.00  0.00    -0.281 N
HETATM   18  N3  UNL     1      15.921  29.068  15.173  1.00  0.00    -0.131 N
ATOM     19  H2  UNL     1      15.633  27.087  15.778  1.00  0.00     0.188 HD
HETATM   20  C12 UNL     1      16.604  29.575  14.122  1.00  0.00     0.694 A
ATOM     21  H3  UNL     1      15.409  29.601  15.876  1.00  0.00     0.205 HD
BRANCH  20  22
HETATM   22  N4  UNL     1      16.723  30.817  13.833  1.00  0.00    -0.233 N
ATOM     23  H42 UNL     1      16.849  31.203  12.898  1.00  0.00     0.174 HD
ATOM     24  H41 UNL     1      16.703  31.570  14.520  1.00  0.00     0.174 HD
ENDBRANCH  20  22
ENDBRANCH  14  15
ENDBRANCH  12  14
ENDBRANCH   6  12
BRANCH   1  25
HETATM   25  C2  UNL     1      20.562  25.505   9.282  1.00  0.00     0.001 C
HETATM   26  C1  UNL     1      21.279  24.318   8.750  1.00  0.00     0.005 C
ENDBRANCH   1  25
TORSDOF 5
ENDMDL