MODEL 1
REMARK VINA RESULT: -7.563107510      0.000      0.000
REMARK  5 active torsions:
REMARK  status: ('A' for Active; 'I' for Inactive)
REMARK    1  A    between atoms: C2_2  and  C3_3
REMARK    2  A    between atoms: C3_3  and  C4_4
REMARK    3  A    between atoms: C4_4  and  C5_5
REMARK    4  A    between atoms: C5_5  and  C6_6
REMARK    5  A    between atoms: C6_6  and  N1_7
ROOT
HETATM    1  N1  UNL     1      19.691  26.405   8.829  1.00  0.00    -0.379 N
HETATM    2  C7  UNL     1      18.380  26.419   8.114  1.00  0.00     0.128 C
HETATM    3  C8  UNL     1      17.466  26.183   9.323  1.00  0.00     0.068 C
HETATM    4  C9  UNL     1      18.148  27.148  10.281  1.00  0.00     0.013 A
HETATM    5  S1  UNL     1      17.932  28.164  11.615  1.00  0.00    -0.086 SA
HETATM    6  C10 UNL     1      19.513  28.792  11.748  1.00  0.00     0.091 A
HETATM    7  C11 UNL     1      20.107  29.715  12.628  1.00  0.00     0.279 A
HETATM    8  O1  UNL     1      19.356  30.184  13.511  1.00  0.00    -0.265 OA
HETATM    9  N2  UNL     1      21.394  30.052  12.502  1.00  0.00    -0.259 N
HETATM   10  C12 UNL     1      21.983  31.001  13.416  1.00  0.00     0.181 C
HETATM   11  N3  UNL     1      22.038  29.472  11.526  1.00  0.00    -0.280 N
ATOM     12  H3  UNL     1      23.023  29.719  11.417  1.00  0.00     0.189 HD
HETATM   13  C13 UNL     1      21.541  28.583  10.649  1.00  0.00     0.128 A
HETATM   14  N4  UNL     1      22.336  28.149   9.738  1.00  0.00    -0.384 N
ATOM     15  H41 UNL     1      21.958  27.474   9.073  1.00  0.00     0.157 HD
ATOM     16  H42 UNL     1      23.312  28.440   9.685  1.00  0.00     0.157 HD
HETATM   17  C14 UNL     1      20.188  28.180  10.724  1.00  0.00     0.059 A
HETATM   18  C15 UNL     1      19.478  27.313   9.950  1.00  0.00     0.059 A
ENDROOT
BRANCH   1  19
HETATM   19  C6  UNL     1      20.756  25.577   8.406  1.00  0.00     0.123 C
BRANCH  19  20
HETATM   20  C5  UNL     1      20.339  24.391   7.539  1.00  0.00     0.020 C
BRANCH  20  21
HETATM   21  C4  UNL     1      21.238  23.253   7.946  1.00  0.00     0.002 C
BRANCH  21  22
HETATM   22  C3  UNL     1      22.428  23.177   7.061  1.00  0.00    -0.000 C
BRANCH  22  23
HETATM   23  C2  UNL     1      23.686  23.004   7.863  1.00  0.00    -0.005 C
HETATM   24  C1  UNL     1      24.323  24.372   8.144  1.00  0.00     0.005 C
ENDBRANCH  22  23
ENDBRANCH  21  22
ENDBRANCH  20  21
ENDBRANCH  19  20
ENDBRANCH   1  19
TORSDOF 5
ENDMDL