MODEL 5
REMARK VINA RESULT: -6.539799731      1.126      1.294
REMARK  7 active torsions:
REMARK  status: ('A' for Active; 'I' for Inactive)
REMARK    1  A    between atoms: C3_3  and  O1_4
REMARK    2  A    between atoms: C3_3  and  N1_6
REMARK    3  A    between atoms: C6_9  and  N2_10
REMARK       I    between atoms: N2_10  and  C7_12
REMARK       I    between atoms: C7_12  and  N3_14
REMARK    4  A    between atoms: C8_16  and  C9_17
REMARK    5  A    between atoms: C9_17  and  C10_18
REMARK    6  A    between atoms: C10_18  and  N4_19
REMARK    7  A    between atoms: C10_18  and  C11_23
ROOT
HETATM    1  C1  UNL     1      18.230  17.399  23.173  1.00  0.00     0.016 C
HETATM    2  C2  UNL     1      18.636  17.280  22.034  1.00  0.00    -0.054 C
HETATM    3  C3  UNL     1      19.110  17.152  20.648  1.00  0.00     0.437 C
ENDROOT
BRANCH   3   4
HETATM    4  O1  UNL     1      20.289  17.916  20.578  1.00  0.00    -0.359 OA
ATOM      5  H1  UNL     1      20.150  18.538  19.874  1.00  0.00     0.213 HD
ENDBRANCH   3   4
BRANCH   3   6
HETATM    6  N1  UNL     1      18.116  17.733  19.783  1.00  0.00     0.129 N
HETATM    7  C4  UNL     1      16.834  17.135  19.910  1.00  0.00     0.279 C
HETATM    8  C5  UNL     1      15.815  17.494  18.904  1.00  0.00     0.055 C
HETATM    9  C6  UNL     1      16.352  17.850  17.545  1.00  0.00     0.089 C
HETATM   10  C12 UNL     1      17.524  18.774  17.722  1.00  0.00     0.055 C
HETATM   11  C13 UNL     1      18.575  17.964  18.453  1.00  0.00     0.279 C
BRANCH   9  12
HETATM   12  N2  UNL     1      15.282  18.453  16.766  1.00  0.00    -0.338 N
HETATM   13  C7  UNL     1      14.262  17.708  16.120  1.00  0.00     0.320 C
HETATM   14  O2  UNL     1      14.306  16.470  16.240  1.00  0.00    -0.247 OA
HETATM   15  N3  UNL     1      13.272  18.347  15.396  1.00  0.00    -0.323 N
HETATM   16  C8  UNL     1      12.324  17.792  14.796  1.00  0.00     0.068 C
ATOM     17  H3  UNL     1      13.318  19.365  15.346  1.00  0.00     0.169 HD
ATOM     18  H2  UNL     1      15.264  19.469  16.679  1.00  0.00     0.164 HD
BRANCH  16  19
HETATM   19  C9  UNL     1      12.101  16.354  14.763  1.00  0.00     0.088 C
BRANCH  19  20
HETATM   20  C10 UNL     1      11.520  15.781  16.044  1.00  0.00     0.288 C
BRANCH  20  21
HETATM   21  N4  UNL     1      12.062  14.412  16.153  1.00  0.00    -0.065 N
ATOM     22  H43 UNL     1      12.359  14.018  15.260  1.00  0.00     0.275 HD
ATOM     23  H42 UNL     1      12.972  14.368  16.613  1.00  0.00     0.275 HD
ATOM     24  H41 UNL     1      11.340  13.865  16.622  1.00  0.00     0.275 HD
ENDBRANCH  20  21
BRANCH  20  25
HETATM   25  C11 UNL     1      10.066  15.695  16.066  1.00  0.00     0.204 C
HETATM   26  O3  UNL     1       9.357  16.016  15.089  1.00  0.00    -0.646 OA
HETATM   27  O4  UNL     1       9.414  15.242  17.203  1.00  0.00    -0.646 OA
ENDBRANCH  20  25
ENDBRANCH  19  20
ENDBRANCH  16  19
ENDBRANCH   9  12
ENDBRANCH   3   6
TORSDOF 7
ENDMDL