MODEL 5
REMARK VINA RESULT: -6.025141628      3.594      7.060
REMARK  7 active torsions:
REMARK  status: ('A' for Active; 'I' for Inactive)
REMARK       I    between atoms: C2_2  and  N1_4
REMARK    1  A    between atoms: N1_4  and  C3_6
REMARK    2  A    between atoms: N2_9  and  C6_10
REMARK    3  A    between atoms: C6_10  and  N3_11
REMARK    4  A    between atoms: C6_10  and  C10_19
REMARK    5  A    between atoms: N3_11  and  C7_13
REMARK    6  A    between atoms: C7_13  and  O2_14
REMARK    7  A    between atoms: C7_13  and  C8_16
ROOT
HETATM    1  C6  UNL     1      13.187  15.603  18.122  1.00  0.00     0.288 C
ENDROOT
BRANCH   1   2
HETATM    2  N2  UNL     1      13.675  16.925  17.998  1.00  0.00    -0.344 N
HETATM    3  C5  UNL     1      13.923  17.358  16.698  1.00  0.00     0.068 C
HETATM    4  C4  UNL     1      13.890  18.835  16.458  1.00  0.00     0.070 C
HETATM    5  C3  UNL     1      14.336  19.652  17.641  1.00  0.00     0.093 C
HETATM    6  C12 UNL     1      15.006  18.772  18.696  1.00  0.00     0.070 C
HETATM    7  C11 UNL     1      13.942  17.744  19.072  1.00  0.00     0.068 C
BRANCH   5   8
HETATM    8  N1  UNL     1      15.222  20.725  17.231  1.00  0.00    -0.356 N
HETATM    9  C2  UNL     1      15.213  21.986  17.840  1.00  0.00     0.213 C
HETATM   10  C1  UNL     1      16.121  23.076  17.412  1.00  0.00     0.117 C
HETATM   11  O1  UNL     1      14.415  22.211  18.780  1.00  0.00    -0.274 OA
ATOM     12  H1  UNL     1      15.877  20.553  16.468  1.00  0.00     0.162 HD
ENDBRANCH   5   8
ENDBRANCH   1   2
BRANCH   1  13
HETATM   13  N3  UNL     1      11.920  15.646  18.724  1.00  0.00    -0.361 N
ATOM     14  H3  UNL     1      11.806  16.186  19.582  1.00  0.00     0.158 HD
BRANCH  13  15
HETATM   15  C7  UNL     1      10.805  14.980  18.198  1.00  0.00     0.286 C
BRANCH  15  16
HETATM   16  O2  UNL     1       9.625  15.403  18.887  1.00  0.00    -0.370 OA
ATOM     17  H2  UNL     1       9.483  14.848  19.644  1.00  0.00     0.212 HD
ENDBRANCH  15  16
BRANCH  15  18
HETATM   18  C8  UNL     1      10.582  15.317  16.787  1.00  0.00     0.170 C
HETATM   19  C9  UNL     1      11.436  14.726  15.727  1.00  0.00     0.096 C
HETATM   20  O3  UNL     1       9.706  16.077  16.445  1.00  0.00    -0.294 OA
ENDBRANCH  15  18
ENDBRANCH  13  15
ENDBRANCH   1  13
BRANCH   1  21
HETATM   21  C10 UNL     1      14.138  14.642  18.727  1.00  0.00     0.217 C
HETATM   22  O4  UNL     1      13.810  13.695  19.496  1.00  0.00    -0.645 OA
HETATM   23  O5  UNL     1      15.499  14.730  18.469  1.00  0.00    -0.645 OA
ENDBRANCH   1  21
TORSDOF 7
ENDMDL