MODEL 2
REMARK VINA RESULT: -6.621894825      1.653      2.105
REMARK  6 active torsions:
REMARK  status: ('A' for Active; 'I' for Inactive)
REMARK    1  A    between atoms: C1_2  and  C2_4
REMARK    2  A    between atoms: C2_4  and  O3_5
REMARK    3  A    between atoms: O3_5  and  C3_6
REMARK    4  A    between atoms: C5_8  and  C6_9
REMARK    5  A    between atoms: C7_12  and  C8_13
REMARK    6  A    between atoms: C9_16  and  C10_17
ROOT
HETATM    1  C3  UNL     1      16.433  17.033  19.555  1.00  0.00     0.067 A
HETATM    2  C4  UNL     1      17.049  17.668  18.338  1.00  0.00     0.054 C
HETATM    3  C5  UNL     1      16.089  18.210  17.354  1.00  0.00     0.105 C
HETATM    4  C7  UNL     1      14.824  17.424  17.184  1.00  0.00     0.116 C
HETATM    5  C9  UNL     1      14.808  16.103  17.861  1.00  0.00     0.109 C
HETATM    6  C11 UNL     1      15.344  16.090  19.252  1.00  0.00     0.038 A
HETATM    7  C12 UNL     1      15.089  17.370  20.018  1.00  0.00     0.047 A
ENDROOT
BRANCH   1   8
HETATM    8  O3  UNL     1      17.376  16.717  20.513  1.00  0.00    -0.369 OA
BRANCH   8   9
HETATM    9  C2  UNL     1      17.127  17.169  21.778  1.00  0.00     0.281 C
BRANCH   9  10
HETATM   10  C1  UNL     1      18.447  17.599  22.362  1.00  0.00     0.197 C
HETATM   11  O1  UNL     1      19.347  17.913  21.532  1.00  0.00    -0.646 OA
HETATM   12  O2  UNL     1      18.678  17.652  23.713  1.00  0.00    -0.646 OA
ENDBRANCH   9  10
ENDBRANCH   8   9
ENDBRANCH   1   8
BRANCH   3  13
HETATM   13  C6  UNL     1      15.815  19.649  17.592  1.00  0.00     0.178 C
HETATM   14  O4  UNL     1      16.736  20.500  17.594  1.00  0.00    -0.648 OA
HETATM   15  O5  UNL     1      14.531  20.115  17.823  1.00  0.00    -0.648 OA
ENDBRANCH   3  13
BRANCH   5  16
HETATM   16  C10 UNL     1      13.389  15.646  17.946  1.00  0.00     0.178 C
HETATM   17  O8  UNL     1      13.080  14.436  17.801  1.00  0.00    -0.648 OA
HETATM   18  O9  UNL     1      12.335  16.517  18.190  1.00  0.00    -0.648 OA
ENDBRANCH   5  16
BRANCH   4  19
HETATM   19  C8  UNL     1      14.492  17.221  15.745  1.00  0.00     0.178 C
HETATM   20  O6  UNL     1      15.158  16.427  15.035  1.00  0.00    -0.648 OA
HETATM   21  O7  UNL     1      13.446  17.889  15.126  1.00  0.00    -0.648 OA
ENDBRANCH   4  19
TORSDOF 6
ENDMDL