MODEL 5
REMARK VINA RESULT: -6.102924372      2.219      3.570
REMARK  11 active torsions:
REMARK  status: ('A' for Active; 'I' for Inactive)
REMARK    1  A    between atoms: C2_2  and  C3_3
REMARK    2  A    between atoms: C3_3  and  C4_4
REMARK    3  A    between atoms: C5_5  and  C6_6
REMARK    4  A    between atoms: C8_8  and  C9_9
REMARK    5  A    between atoms: C9_9  and  O1_10
REMARK    6  A    between atoms: C9_9  and  C10_12
REMARK    7  A    between atoms: C10_12  and  O2_13
REMARK    8  A    between atoms: C14_19  and  C15_20
REMARK    9  A    between atoms: C15_20  and  O4_21
REMARK   10  A    between atoms: C15_20  and  C16_23
REMARK   11  A    between atoms: C16_23  and  O5_24
ROOT
HETATM    1  C6  UNL     1      14.096  17.340  17.597  1.00  0.00     0.077 C
HETATM    2  C7  UNL     1      12.679  16.750  17.497  1.00  0.00     0.058 C
HETATM    3  C8  UNL     1      12.884  15.233  17.346  1.00  0.00     0.090 C
HETATM    4  C11 UNL     1      12.688  14.564  18.667  1.00  0.00     0.043 C
HETATM    5  C12 UNL     1      14.110  14.151  19.063  1.00  0.00     0.035 C
HETATM    6  C13 UNL     1      14.898  15.151  18.211  1.00  0.00     0.130 C
HETATM    7  O3  UNL     1      14.200  14.957  16.991  1.00  0.00    -0.372 OA
HETATM    8  C14 UNL     1      14.742  16.551  18.730  1.00  0.00     0.061 C
ENDROOT
BRANCH   3   9
HETATM    9  C9  UNL     1      11.915  14.802  16.276  1.00  0.00     0.176 C
BRANCH   9  10
HETATM   10  O1  UNL     1      12.558  14.531  15.094  1.00  0.00    -0.390 OA
ATOM     11  H1  UNL     1      12.862  13.631  15.061  1.00  0.00     0.210 HD
ENDBRANCH   9  10
BRANCH   9  12
HETATM   12  C10 UNL     1      10.715  15.682  16.131  1.00  0.00     0.198 C
BRANCH  12  13
HETATM   13  O2  UNL     1       9.638  15.337  16.915  1.00  0.00    -0.398 OA
ATOM     14  H2  UNL     1       9.809  15.314  17.849  1.00  0.00     0.209 HD
ENDBRANCH  12  13
ENDBRANCH   9  12
ENDBRANCH   3   9
BRANCH   1  15
HETATM   15  C5  UNL     1      14.068  18.729  18.003  1.00  0.00    -0.101 C
HETATM   16  C4  UNL     1      14.039  19.893  18.322  1.00  0.00    -0.106 C
BRANCH  16  17
HETATM   17  C3  UNL     1      14.000  21.311  18.683  1.00  0.00     0.093 C
BRANCH  17  18
HETATM   18  C2  UNL     1      14.640  22.090  17.553  1.00  0.00     0.007 C
HETATM   19  C1  UNL     1      16.149  21.880  17.670  1.00  0.00     0.006 C
ENDBRANCH  17  18
ENDBRANCH  16  17
ENDBRANCH   1  15
BRANCH   8  20
HETATM   20  C15 UNL     1      16.020  17.184  19.191  1.00  0.00     0.149 C
BRANCH  20  21
HETATM   21  O4  UNL     1      17.080  16.758  18.430  1.00  0.00    -0.393 OA
ATOM     22  H4  UNL     1      17.525  16.029  18.847  1.00  0.00     0.210 HD
ENDBRANCH  20  21
BRANCH  20  23
HETATM   23  C16 UNL     1      16.301  16.925  20.647  1.00  0.00     0.196 C
BRANCH  23  24
HETATM   24  O5  UNL     1      15.223  17.023  21.483  1.00  0.00    -0.398 OA
ATOM     25  H5  UNL     1      14.376  16.878  21.077  1.00  0.00     0.209 HD
ENDBRANCH  23  24
ENDBRANCH  20  23
ENDBRANCH   8  20
TORSDOF 11
ENDMDL