MODEL 3
REMARK VINA RESULT: -6.566856753      0.805      1.069
REMARK  8 active torsions:
REMARK  status: ('A' for Active; 'I' for Inactive)
REMARK    1  A    between atoms: C2_2  and  N1_3
REMARK    2  A    between atoms: C2_2  and  C10_18
REMARK    3  A    between atoms: C3_5  and  C4_6
REMARK    4  A    between atoms: C6_8  and  O1_9
REMARK    5  A    between atoms: C8_12  and  O2_13
REMARK    6  A    between atoms: C9_15  and  O3_16
REMARK       I    between atoms: C10_18  and  N2_20
REMARK    7  A    between atoms: N2_20  and  C11_22
REMARK    8  A    between atoms: C11_22  and  C12_23
ROOT
HETATM    1  N1  UNL     1      15.303  17.623  16.420  1.00  0.00    -0.389 N
ATOM      2  H1  UNL     1      15.297  17.088  17.288  1.00  0.00     0.159 HD
HETATM    3  C3  UNL     1      14.301  17.483  15.635  1.00  0.00     0.063 C
ENDROOT
BRANCH   1   4
HETATM    4  C2  UNL     1      16.417  18.460  16.179  1.00  0.00     0.169 C
HETATM    5  C1  UNL     1      17.080  18.128  14.844  1.00  0.00     0.042 C
BRANCH   4   6
HETATM    6  C10 UNL     1      17.469  18.339  17.218  1.00  0.00     0.239 C
HETATM    7  O4  UNL     1      18.440  19.131  17.119  1.00  0.00    -0.271 OA
HETATM    8  N2  UNL     1      17.424  17.410  18.266  1.00  0.00    -0.359 N
ATOM      9  H2  UNL     1      16.614  16.791  18.304  1.00  0.00     0.162 HD
BRANCH   8  10
HETATM   10  C11 UNL     1      18.419  17.252  19.296  1.00  0.00     0.127 C
BRANCH  10  11
HETATM   11  C12 UNL     1      17.920  17.766  20.597  1.00  0.00     0.003 C
HETATM   12  C13 UNL     1      16.668  17.046  21.123  1.00  0.00     0.006 C
HETATM   13  C14 UNL     1      17.271  17.225  22.508  1.00  0.00     0.001 C
HETATM   14  C15 UNL     1      18.632  17.191  21.830  1.00  0.00     0.006 C
ENDBRANCH  10  11
ENDBRANCH   8  10
ENDBRANCH   4   6
ENDBRANCH   1   4
BRANCH   3  15
HETATM   15  C4  UNL     1      13.227  16.561  16.055  1.00  0.00     0.057 C
HETATM   16  C5  UNL     1      11.842  17.097  15.760  1.00  0.00     0.044 C
HETATM   17  C6  UNL     1      10.900  15.898  15.773  1.00  0.00     0.121 C
HETATM   18  C7  UNL     1      11.470  14.780  16.590  1.00  0.00     0.066 C
HETATM   19  C8  UNL     1      12.197  15.241  17.820  1.00  0.00     0.150 C
HETATM   20  C9  UNL     1      13.270  16.246  17.535  1.00  0.00     0.155 C
BRANCH  17  21
HETATM   21  O1  UNL     1       9.628  16.273  16.173  1.00  0.00    -0.395 OA
ATOM     22  H1  UNL     1       9.627  16.551  17.081  1.00  0.00     0.210 HD
ENDBRANCH  17  21
BRANCH  19  23
HETATM   23  O2  UNL     1      11.249  15.688  18.733  1.00  0.00    -0.393 OA
ATOM     24  H2  UNL     1      11.176  16.631  18.640  1.00  0.00     0.210 HD
ENDBRANCH  19  23
BRANCH  20  25
HETATM   25  O3  UNL     1      12.994  17.443  18.206  1.00  0.00    -0.392 OA
ATOM     26  H3  UNL     1      12.807  17.212  19.109  1.00  0.00     0.210 HD
ENDBRANCH  20  25
ENDBRANCH   3  15
TORSDOF 8
ENDMDL