MODEL 1
REMARK VINA RESULT: -6.634517520      0.000      0.000
REMARK  7 active torsions:
REMARK  status: ('A' for Active; 'I' for Inactive)
REMARK    1  A    between atoms: C2_2  and  O1_3
REMARK    2  A    between atoms: C2_2  and  C3_5
REMARK    3  A    between atoms: C3_5  and  N1_6
REMARK    4  A    between atoms: C3_5  and  C12_20
REMARK       I    between atoms: N1_6  and  C4_7
REMARK    5  A    between atoms: C4_7  and  O3_9
REMARK    6  A    between atoms: O3_9  and  C5_10
REMARK    7  A    between atoms: C9_14  and  C10_15
ROOT
HETATM    1  N1  UNL     1      15.682  17.205  19.320  1.00  0.00    -0.371 NA
HETATM    2  C4  UNL     1      14.499  17.530  19.098  1.00  0.00     0.436 C
HETATM    3  O2  UNL     1      13.773  18.444  19.621  1.00  0.00    -0.221 OA
ENDROOT
BRANCH   2   4
HETATM    4  O3  UNL     1      13.611  16.921  18.139  1.00  0.00    -0.283 OA
BRANCH   4   5
HETATM    5  C5  UNL     1      13.396  16.152  17.204  1.00  0.00     0.186 C
HETATM    6  C6  UNL     1      13.604  16.735  15.805  1.00  0.00     0.043 C
HETATM    7  C7  UNL     1      13.199  15.606  14.925  1.00  0.00     0.013 C
HETATM    8  C11 UNL     1      12.453  17.729  15.754  1.00  0.00     0.177 C
HETATM    9  C8  UNL     1      12.020  15.044  15.693  1.00  0.00     0.053 C
HETATM   10  C9  UNL     1      11.829  15.931  16.882  1.00  0.00     0.175 C
HETATM   11  O6  UNL     1      11.427  17.157  16.489  1.00  0.00    -0.366 OA
BRANCH  10  12
HETATM   12  C10 UNL     1      11.170  15.241  17.952  1.00  0.00     0.212 C
HETATM   13  O4  UNL     1      11.892  14.469  18.678  1.00  0.00    -0.646 OA
HETATM   14  O5  UNL     1       9.832  15.323  18.280  1.00  0.00    -0.646 OA
ENDBRANCH  10  12
ENDBRANCH   4   5
ENDBRANCH   2   4
BRANCH   1  15
HETATM   15  C3  UNL     1      17.091  16.862  19.622  1.00  0.00     0.297 C
BRANCH  15  16
HETATM   16  C2  UNL     1      18.015  17.874  19.016  1.00  0.00     0.160 C
HETATM   17  C1  UNL     1      17.638  18.418  17.682  1.00  0.00     0.043 C
BRANCH  16  18
HETATM   18  O1  UNL     1      19.321  17.315  18.937  1.00  0.00    -0.392 OA
ATOM     19  H1  UNL     1      19.861  17.690  19.624  1.00  0.00     0.210 HD
ENDBRANCH  16  18
ENDBRANCH  15  16
BRANCH  15  20
HETATM   20  C12 UNL     1      17.149  17.176  21.171  1.00  0.00     0.213 C
HETATM   21  O7  UNL     1      18.229  17.601  21.592  1.00  0.00    -0.646 OA
HETATM   22  O8  UNL     1      16.027  16.942  21.892  1.00  0.00    -0.646 OA
ENDBRANCH  15  20
ENDBRANCH   1  15
TORSDOF 7
ENDMDL