MODEL 4
REMARK VINA RESULT: -5.839746091      3.160      4.431
REMARK  5 active torsions:
REMARK  status: ('A' for Active; 'I' for Inactive)
REMARK    1  A    between atoms: O1_2  and  N1_3
REMARK       I    between atoms: N1_3  and  C2_5
REMARK       I    between atoms: C2_5  and  N2_7
REMARK    2  A    between atoms: N2_7  and  C3_9
REMARK    3  A    between atoms: C7_14  and  C8_15
REMARK    4  A    between atoms: C8_15  and  O4_16
REMARK    5  A    between atoms: C8_15  and  C9_18
ROOT
HETATM    1  C3  UNL     1      14.543  19.845  16.677  1.00  0.00     0.090 C
HETATM    2  C4  UNL     1      15.251  18.991  15.670  1.00  0.00     0.033 C
HETATM    3  C5  UNL     1      16.116  17.915  16.225  1.00  0.00     0.081 C
HETATM    4  C6  UNL     1      15.656  17.290  17.461  1.00  0.00     0.138 C
HETATM    5  O3  UNL     1      16.555  16.923  18.233  1.00  0.00    -0.297 OA
HETATM    6  C7  UNL     1      14.310  16.990  18.011  1.00  0.00     0.057 C
HETATM    7  C10 UNL     1      14.121  17.639  19.364  1.00  0.00     0.021 C
HETATM    8  C11 UNL     1      13.896  19.089  19.003  1.00  0.00     0.008 C
HETATM    9  C12 UNL     1      13.563  19.157  17.540  1.00  0.00     0.010 C
HETATM   10  C13 UNL     1      13.305  17.718  17.170  1.00  0.00     0.027 C
ENDROOT
BRANCH   1  11
HETATM   11  N2  UNL     1      15.553  20.610  17.376  1.00  0.00    -0.336 N
HETATM   12  C2  UNL     1      15.436  21.998  17.621  1.00  0.00     0.340 C
HETATM   13  N1  UNL     1      16.457  22.680  18.307  1.00  0.00    -0.217 N
HETATM   14  O2  UNL     1      14.428  22.606  17.224  1.00  0.00    -0.245 OA
ATOM     15  H1  UNL     1      17.281  22.174  18.630  1.00  0.00     0.199 HD
ATOM     16  H2  UNL     1      16.387  20.126  17.708  1.00  0.00     0.164 HD
BRANCH  13  17
HETATM   17  O1  UNL     1      16.342  24.008  18.538  1.00  0.00    -0.281 OA
HETATM   18  C1  UNL     1      17.531  24.450  19.103  1.00  0.00     0.237 C
ENDBRANCH  13  17
ENDBRANCH   1  11
BRANCH   6  19
HETATM   19  C8  UNL     1      14.048  15.519  18.159  1.00  0.00     0.234 C
BRANCH  19  20
HETATM   20  O4  UNL     1      15.010  14.848  17.395  1.00  0.00    -0.384 OA
ATOM     21  H4  UNL     1      15.176  14.015  17.820  1.00  0.00     0.210 HD
ENDBRANCH  19  20
BRANCH  19  22
HETATM   22  C9  UNL     1      12.694  15.120  17.768  1.00  0.00     0.204 C
HETATM   23  O5  UNL     1      12.468  14.656  16.627  1.00  0.00    -0.646 OA
HETATM   24  O6  UNL     1      11.666  15.253  18.664  1.00  0.00    -0.646 OA
ENDBRANCH  19  22
ENDBRANCH   6  19
TORSDOF 5
ENDMDL