MODEL 2
REMARK VINA RESULT: -6.455802575      2.245      5.867
REMARK  6 active torsions:
REMARK  status: ('A' for Active; 'I' for Inactive)
REMARK    1  A    between atoms: C1_4  and  C2_5
REMARK    2  A    between atoms: C2_5  and  C3_6
REMARK       I    between atoms: C3_6  and  N2_8
REMARK    3  A    between atoms: N2_8  and  C4_10
REMARK    4  A    between atoms: C5_11  and  O2_12
REMARK    5  A    between atoms: C6_14  and  C7_15
REMARK    6  A    between atoms: C7_15  and  C8_16
ROOT
HETATM    1  C4  UNL     1      15.404  17.413  19.044  1.00  0.00     0.137 C
HETATM    2  C5  UNL     1      14.937  15.998  18.742  1.00  0.00     0.152 C
HETATM    3  C6  UNL     1      13.854  15.950  17.719  1.00  0.00     0.065 C
HETATM    4  C9  UNL     1      13.206  17.318  17.617  1.00  0.00     0.071 C
HETATM    5  N3  UNL     1      14.166  18.250  17.177  1.00  0.00    -0.367 N
HETATM    6  C10 UNL     1      13.946  18.992  16.015  1.00  0.00     0.063 C
HETATM    7  C11 UNL     1      14.766  20.243  15.869  1.00  0.00     0.045 C
HETATM    8  C12 UNL     1      16.136  20.119  16.491  1.00  0.00     0.007 C
HETATM    9  C13 UNL     1      16.007  19.558  17.896  1.00  0.00     0.028 C
HETATM   10  C14 UNL     1      15.459  18.158  17.728  1.00  0.00     0.113 C
ENDROOT
BRANCH   1  11
HETATM   11  N2  UNL     1      16.769  17.302  19.537  1.00  0.00    -0.352 N
HETATM   12  C3  UNL     1      17.080  17.157  20.907  1.00  0.00     0.222 C
HETATM   13  O1  UNL     1      16.190  17.115  21.793  1.00  0.00    -0.273 OA
ATOM     14  H2  UNL     1      17.535  17.330  18.864  1.00  0.00     0.163 HD
BRANCH  12  15
HETATM   15  C2  UNL     1      18.486  17.047  21.364  1.00  0.00     0.146 C
BRANCH  15  16
HETATM   16  C1  UNL     1      19.436  17.449  20.307  1.00  0.00     0.062 C
HETATM   17  N1  UNL     1      20.384  16.620  20.004  1.00  0.00    -0.411 N
ATOM     18  H12 UNL     1      20.458  15.725  20.488  1.00  0.00     0.155 HD
ATOM     19  H11 UNL     1      21.040  16.897  19.274  1.00  0.00     0.155 HD
ENDBRANCH  15  16
ENDBRANCH  12  15
ENDBRANCH   1  11
BRANCH   2  20
HETATM   20  O2  UNL     1      14.605  15.321  19.914  1.00  0.00    -0.393 OA
ATOM     21  H2  UNL     1      14.897  14.418  19.879  1.00  0.00     0.210 HD
ENDBRANCH   2  20
BRANCH   3  22
HETATM   22  C7  UNL     1      12.828  14.865  17.955  1.00  0.00     0.125 C
BRANCH  22  23
HETATM   23  C8  UNL     1      11.734  14.991  16.963  1.00  0.00     0.173 C
HETATM   24  O3  UNL     1      11.841  14.730  15.742  1.00  0.00    -0.648 OA
HETATM   25  O4  UNL     1      10.494  15.427  17.408  1.00  0.00    -0.648 OA
ENDBRANCH  22  23
ENDBRANCH   3  22
TORSDOF 6
ENDMDL