MODEL 1
REMARK VINA RESULT: -7.122518671      0.000      0.000
REMARK  6 active torsions:
REMARK  status: ('A' for Active; 'I' for Inactive)
REMARK    1  A    between atoms: O1_2  and  C2_3
REMARK    2  A    between atoms: C2_3  and  C3_4
REMARK    3  A    between atoms: C2_3  and  C10_14
REMARK       I    between atoms: C3_4  and  N1_6
REMARK    4  A    between atoms: N1_6  and  C4_8
REMARK    5  A    between atoms: C11_16  and  C12_17
REMARK    6  A    between atoms: N2_21  and  O6_22
ROOT
HETATM    1  C2  UNL     1      14.436  17.154  16.305  1.00  0.00     0.257 C
ENDROOT
BRANCH   1   2
HETATM    2  O1  UNL     1      15.424  16.942  15.351  1.00  0.00    -0.377 OA
HETATM    3  C1  UNL     1      14.905  17.043  14.071  1.00  0.00     0.202 C
ENDBRANCH   1   2
BRANCH   1   4
HETATM    4  C3  UNL     1      15.058  17.675  17.527  1.00  0.00     0.251 C
HETATM    5  O2  UNL     1      14.560  18.674  18.102  1.00  0.00    -0.271 OA
HETATM    6  N1  UNL     1      16.222  17.102  18.115  1.00  0.00    -0.354 N
ATOM      7  H1  UNL     1      16.649  16.290  17.670  1.00  0.00     0.162 HD
BRANCH   6   8
HETATM    8  C4  UNL     1      16.820  17.633  19.322  1.00  0.00     0.084 C
HETATM    9  C5  UNL     1      16.406  16.747  20.465  1.00  0.00     0.025 C
HETATM   10  C6  UNL     1      17.079  17.272  21.717  1.00  0.00     0.002 C
HETATM   11  C7  UNL     1      18.571  17.038  21.526  1.00  0.00     0.000 C
HETATM   12  C8  UNL     1      19.090  17.853  20.375  1.00  0.00     0.002 C
HETATM   13  C9  UNL     1      18.304  17.689  19.117  1.00  0.00     0.025 C
ENDBRANCH   6   8
ENDBRANCH   1   4
BRANCH   1  14
HETATM   14  C10 UNL     1      13.707  15.848  16.534  1.00  0.00     0.260 C
HETATM   15  O3  UNL     1      12.349  15.941  16.244  1.00  0.00    -0.349 OA
HETATM   16  C11 UNL     1      11.718  15.049  17.136  1.00  0.00     0.239 C
HETATM   17  C13 UNL     1      12.477  15.353  18.415  1.00  0.00     0.167 C
HETATM   18  N2  UNL     1      13.832  15.492  17.913  1.00  0.00    -0.164 NA
BRANCH  16  19
HETATM   19  C12 UNL     1      10.275  15.365  17.263  1.00  0.00     0.204 C
HETATM   20  O4  UNL     1       9.702  15.832  16.249  1.00  0.00    -0.646 OA
HETATM   21  O5  UNL     1       9.538  15.178  18.407  1.00  0.00    -0.646 OA
ENDBRANCH  16  19
BRANCH  18  22
HETATM   22  O6  UNL     1      14.458  14.310  18.104  1.00  0.00    -0.310 OA
ATOM     23  H6  UNL     1      15.100  14.334  18.804  1.00  0.00     0.237 HD
ENDBRANCH  18  22
ENDBRANCH   1  14
TORSDOF 6
ENDMDL