MODEL 3
REMARK VINA RESULT: -7.241675322      1.652      2.123
REMARK  3 active torsions:
REMARK  status: ('A' for Active; 'I' for Inactive)
REMARK    1  A    between atoms: C1_2  and  C2_3
REMARK       I    between atoms: C1_2  and  N3_18
REMARK    2  A    between atoms: C2_3  and  C3_4
REMARK    3  A    between atoms: C3_4  and  N1_5
ROOT
HETATM    1  N1  UNL     1      22.868  -1.534  25.053  1.00  0.00    -0.268 N
HETATM    2  C4  UNL     1      23.471  -0.660  24.098  1.00  0.00     0.326 C
HETATM    3  O2  UNL     1      24.715  -0.396  24.002  1.00  0.00    -0.247 OA
HETATM    4  N2  UNL     1      22.419  -0.148  23.288  1.00  0.00    -0.324 N
ATOM      5  H2  UNL     1      22.460   0.688  22.706  1.00  0.00     0.165 HD
HETATM    6  C5  UNL     1      21.296  -1.019  23.437  1.00  0.00     0.116 C
HETATM    7  C6  UNL     1      19.969  -0.306  23.336  1.00  0.00     0.041 C
HETATM    8  C7  UNL     1      18.935  -1.338  22.934  1.00  0.00     0.003 C
HETATM    9  C8  UNL     1      19.122  -1.577  21.441  1.00  0.00     0.000 C
HETATM   10  C9  UNL     1      20.585  -1.874  21.192  1.00  0.00     0.003 C
HETATM   11  C10 UNL     1      21.324  -2.186  22.472  1.00  0.00     0.041 C
HETATM   12  C11 UNL     1      21.456  -1.547  24.816  1.00  0.00     0.256 C
HETATM   13  O3  UNL     1      20.619  -1.936  25.648  1.00  0.00    -0.270 OA
ENDROOT
BRANCH   1  14
HETATM   14  C3  UNL     1      23.570  -2.275  26.082  1.00  0.00     0.146 C
BRANCH  14  15
HETATM   15  C2  UNL     1      23.589  -3.735  25.656  1.00  0.00     0.123 C
BRANCH  15  16
HETATM   16  C1  UNL     1      24.893  -4.369  25.960  1.00  0.00     0.221 C
HETATM   17  O1  UNL     1      25.077  -4.789  27.134  1.00  0.00    -0.273 OA
HETATM   18  N3  UNL     1      25.880  -4.488  24.952  1.00  0.00    -0.348 N
HETATM   19  C12 UNL     1      27.160  -5.097  25.200  1.00  0.00     0.152 C
HETATM   20  C15 UNL     1      25.604  -3.984  23.623  1.00  0.00     0.152 C
HETATM   21  C13 UNL     1      28.290  -4.394  24.461  1.00  0.00     0.187 C
HETATM   22  O4  UNL     1      27.897  -4.018  23.178  1.00  0.00    -0.388 OA
HETATM   23  C14 UNL     1      26.802  -3.161  23.200  1.00  0.00     0.187 C
ENDBRANCH  15  16
ENDBRANCH  14  15
ENDBRANCH   1  14
TORSDOF 3
ENDMDL