MODEL 3
REMARK VINA RESULT: -6.692878556      1.669      1.983
REMARK  3 active torsions:
REMARK  status: ('A' for Active; 'I' for Inactive)
REMARK    1  A    between atoms: C2_2  and  N1_3
REMARK       I    between atoms: N2_10  and  C9_11
REMARK    2  A    between atoms: C9_11  and  C10_13
REMARK    3  A    between atoms: C10_13  and  N3_14
ROOT
HETATM    1  N1  UNL     1      20.664  -4.997  24.286  1.00  0.00     0.088 N
HETATM    2  C3  UNL     1      20.419  -4.576  25.647  1.00  0.00     0.273 C
HETATM    3  C4  UNL     1      20.460  -3.099  25.806  1.00  0.00     0.041 C
HETATM    4  C5  UNL     1      21.157  -2.396  24.649  1.00  0.00    -0.021 C
HETATM    5  C6  UNL     1      20.853  -0.918  24.827  1.00  0.00     0.013 C
HETATM    6  C7  UNL     1      21.595  -0.175  23.748  1.00  0.00     0.021 C
HETATM    7  C8  UNL     1      23.070  -0.308  24.035  1.00  0.00     0.126 C
HETATM    8  N2  UNL     1      23.485  -1.655  24.265  1.00  0.00    -0.350 N
HETATM    9  C9  UNL     1      24.849  -1.993  24.058  1.00  0.00     0.237 C
HETATM   10  O1  UNL     1      25.620  -1.077  23.680  1.00  0.00    -0.272 OA
HETATM   11  C15 UNL     1      22.606  -2.721  24.699  1.00  0.00     0.135 C
HETATM   12  C16 UNL     1      20.548  -2.791  23.309  1.00  0.00     0.041 C
HETATM   13  C17 UNL     1      19.986  -4.196  23.323  1.00  0.00     0.273 C
ENDROOT
BRANCH   9  14
HETATM   14  C10 UNL     1      25.368  -3.365  24.272  1.00  0.00     0.220 C
BRANCH  14  15
HETATM   15  N3  UNL     1      26.781  -3.494  24.235  1.00  0.00    -0.401 N
HETATM   16  C11 UNL     1      27.318  -3.706  22.927  1.00  0.00     0.144 C
HETATM   17  C12 UNL     1      28.826  -3.538  23.045  1.00  0.00     0.251 C
HETATM   18  N4  UNL     1      29.321  -4.667  23.788  1.00  0.00    -0.072 N
HETATM   19  C13 UNL     1      28.316  -5.307  24.568  1.00  0.00     0.251 C
ATOM     20  H42 UNL     1      29.782  -5.336  23.171  1.00  0.00     0.277 HD
ATOM     21  H41 UNL     1      30.116  -4.400  24.369  1.00  0.00     0.277 HD
HETATM   22  C14 UNL     1      27.389  -4.312  25.221  1.00  0.00     0.144 C
ENDBRANCH  14  15
ENDBRANCH   9  14
BRANCH   1  23
HETATM   23  C2  UNL     1      20.474  -6.404  24.098  1.00  0.00     0.268 C
HETATM   24  C1  UNL     1      19.413  -6.753  23.107  1.00  0.00     0.037 C
ENDBRANCH   1  23
TORSDOF 3
ENDMDL