MODEL 3
REMARK VINA RESULT: -7.115275111      0.784      1.010
REMARK  3 active torsions:
REMARK  status: ('A' for Active; 'I' for Inactive)
REMARK    1  A    between atoms: N2_12  and  C9_13
REMARK    2  A    between atoms: C9_13  and  C10_14
REMARK    3  A    between atoms: C10_14  and  N3_15
ROOT
HETATM    1  C1  UNL     1      29.733  -4.567  22.252  1.00  0.00     0.054 C
HETATM    2  C2  UNL     1      28.269  -4.390  22.495  1.00  0.00     0.007 A
HETATM    3  C3  UNL     1      27.733  -3.260  23.059  1.00  0.00     0.025 A
HETATM    4  C4  UNL     1      26.354  -3.105  23.292  1.00  0.00    -0.014 A
HETATM    5  C5  UNL     1      25.619  -4.216  22.888  1.00  0.00     0.034 A
HETATM    6  N1  UNL     1      26.125  -5.305  22.345  1.00  0.00    -0.325 N
ATOM      7  H1  UNL     1      25.499  -6.066  22.083  1.00  0.00     0.169 HD
HETATM    8  C6  UNL     1      27.459  -5.442  22.126  1.00  0.00     0.251 A
HETATM    9  O1  UNL     1      27.874  -6.506  21.605  1.00  0.00    -0.268 OA
HETATM   10  C7  UNL     1      24.116  -4.306  23.049  1.00  0.00     0.162 C
HETATM   11  C8  UNL     1      23.699  -3.270  23.954  1.00  0.00    -0.067 C
HETATM   12  N2  UNL     1      23.725  -2.184  24.754  1.00  0.00    -0.347 N
HETATM   13  C16 UNL     1      25.041  -1.592  24.931  1.00  0.00     0.160 C
HETATM   14  C17 UNL     1      26.055  -1.819  23.890  1.00  0.00     0.007 C
ENDROOT
BRANCH  12  15
HETATM   15  C9  UNL     1      22.632  -1.286  24.677  1.00  0.00     0.151 C
BRANCH  15  16
HETATM   16  C10 UNL     1      21.389  -2.122  24.972  1.00  0.00     0.137 C
BRANCH  16  17
HETATM   17  N3  UNL     1      20.226  -1.733  24.267  1.00  0.00    -0.407 N
HETATM   18  C11 UNL     1      20.443  -0.889  23.128  1.00  0.00     0.147 C
HETATM   19  C12 UNL     1      20.500  -1.657  21.829  1.00  0.00     0.291 C
HETATM   20  N4  UNL     1      20.679  -3.050  22.095  1.00  0.00     0.087 N
HETATM   21  C13 UNL     1      20.764  -3.771  20.849  1.00  0.00     0.310 C
HETATM   22  C14 UNL     1      19.485  -3.526  22.776  1.00  0.00     0.291 C
HETATM   23  C15 UNL     1      19.288  -2.778  24.080  1.00  0.00     0.147 C
ENDBRANCH  16  17
ENDBRANCH  15  16
ENDBRANCH  12  15
TORSDOF 3
ENDMDL