MODEL 5
REMARK VINA RESULT: -6.738810961      2.654      3.776
REMARK  3 active torsions:
REMARK  status: ('A' for Active; 'I' for Inactive)
REMARK    1  A    between atoms: S1_2  and  N1_4
REMARK    2  A    between atoms: S1_2  and  N5_20
REMARK    3  A    between atoms: C3_8  and  N2_9
ROOT
HETATM    1  N1  UNL     1      27.066  -5.776  21.501  1.00  0.00    -0.257 N
ATOM      2  H1  UNL     1      26.330  -5.790  20.795  1.00  0.00     0.181 HD
HETATM    3  C1  UNL     1      26.919  -5.023  22.540  1.00  0.00     0.119 A
HETATM    4  C2  UNL     1      25.772  -4.272  22.644  1.00  0.00     0.097 A
HETATM    5  C3  UNL     1      25.537  -3.449  23.710  1.00  0.00     0.107 A
HETATM    6  N3  UNL     1      26.496  -3.409  24.665  1.00  0.00    -0.339 N
ATOM      7  H3  UNL     1      26.367  -2.810  25.481  1.00  0.00     0.168 HD
HETATM    8  C9  UNL     1      27.617  -4.146  24.557  1.00  0.00     0.183 A
HETATM    9  N4  UNL     1      27.854  -4.956  23.515  1.00  0.00    -0.338 N
ATOM     10  H4  UNL     1      28.713  -5.503  23.459  1.00  0.00     0.168 HD
ENDROOT
BRANCH   1  11
HETATM   11  S1  UNL     1      28.465  -6.760  21.267  1.00  0.00     0.304 S
HETATM   12  O1  UNL     1      29.676  -5.885  21.123  1.00  0.00    -0.188 OA
HETATM   13  O2  UNL     1      28.593  -7.656  22.447  1.00  0.00    -0.188 OA
BRANCH  11  14
HETATM   14  N5  UNL     1      28.267  -7.625  19.791  1.00  0.00    -0.193 NA
HETATM   15  C10 UNL     1      27.285  -8.675  19.983  1.00  0.00     0.109 C
HETATM   16  C11 UNL     1      27.494  -9.494  18.703  1.00  0.00     0.017 C
HETATM   17  C12 UNL     1      29.021  -9.600  18.709  1.00  0.00     0.017 C
HETATM   18  C13 UNL     1      29.445  -8.320  19.384  1.00  0.00     0.109 C
ENDBRANCH  11  14
ENDBRANCH   1  11
BRANCH   5  19
HETATM   19  N2  UNL     1      24.337  -2.693  23.777  1.00  0.00    -0.367 N
HETATM   20  C4  UNL     1      24.410  -1.323  24.161  1.00  0.00     0.124 C
HETATM   21  C5  UNL     1      23.154  -0.545  24.030  1.00  0.00     0.020 C
HETATM   22  C6  UNL     1      22.142  -1.189  23.143  1.00  0.00     0.003 C
HETATM   23  C7  UNL     1      21.892  -2.592  23.712  1.00  0.00     0.020 C
HETATM   24  C8  UNL     1      23.119  -3.395  23.444  1.00  0.00     0.124 C
ENDBRANCH   5  19
TORSDOF 3
ENDMDL