MODEL 1
REMARK VINA RESULT: -6.784042286      0.000      0.000
REMARK  4 active torsions:
REMARK  status: ('A' for Active; 'I' for Inactive)
REMARK    1  A    between atoms: C2_2  and  C3_3
REMARK    2  A    between atoms: C3_3  and  N1_4
REMARK    3  A    between atoms: N2_14  and  C12_15
REMARK    4  A    between atoms: C12_15  and  C13_16
ROOT
HETATM    1  N1  UNL     1      27.762  -3.894  24.172  1.00  0.00     0.092 N
HETATM    2  C4  UNL     1      27.054  -3.069  23.260  1.00  0.00     0.277 C
HETATM    3  C5  UNL     1      25.787  -2.482  23.860  1.00  0.00     0.102 C
HETATM    4  C6  UNL     1      24.736  -3.477  24.207  1.00  0.00     0.264 C
HETATM    5  C7  UNL     1      25.548  -4.789  24.303  1.00  0.00     0.102 C
HETATM    6  C8  UNL     1      26.851  -4.496  25.072  1.00  0.00     0.277 C
HETATM    7  O1  UNL     1      24.217  -3.274  25.481  1.00  0.00    -0.352 OA
HETATM    8  C9  UNL     1      23.442  -4.275  25.982  1.00  0.00     0.172 C
HETATM    9  C10 UNL     1      22.560  -5.004  25.009  1.00  0.00     0.056 C
HETATM   10  C11 UNL     1      23.126  -4.983  23.598  1.00  0.00     0.278 C
HETATM   11  N2  UNL     1      23.668  -3.621  23.320  1.00  0.00     0.124 N
ENDROOT
BRANCH  11  12
HETATM   12  C12 UNL     1      22.513  -2.856  23.302  1.00  0.00     0.291 C
BRANCH  12  13
HETATM   13  C13 UNL     1      22.399  -1.428  23.047  1.00  0.00     0.115 C
HETATM   14  C14 UNL     1      20.900  -1.084  23.375  1.00  0.00     0.119 C
HETATM   15  C15 UNL     1      20.911  -1.185  24.856  1.00  0.00     0.225 C
HETATM   16  O2  UNL     1      20.026  -1.552  25.659  1.00  0.00    -0.273 OA
HETATM   17  N3  UNL     1      22.230  -0.753  25.251  1.00  0.00    -0.297 N
HETATM   18  C16 UNL     1      22.968  -0.493  24.054  1.00  0.00     0.230 C
ATOM     19  H3  UNL     1      22.572  -0.650  26.206  1.00  0.00     0.171 HD
HETATM   20  O3  UNL     1      23.889   0.337  23.883  1.00  0.00    -0.273 OA
ENDBRANCH  12  13
ENDBRANCH  11  12
BRANCH   1  21
HETATM   21  C3  UNL     1      28.779  -4.717  23.622  1.00  0.00     0.299 C
BRANCH  21  22
HETATM   22  C2  UNL     1      28.676  -4.828  22.150  1.00  0.00    -0.007 C
HETATM   23  C1  UNL     1      28.599  -5.989  21.532  1.00  0.00     0.008 C
ENDBRANCH  21  22
ENDBRANCH   1  21
TORSDOF 4
ENDMDL