MODEL 5
REMARK VINA RESULT: -6.265126044      1.301      1.730
REMARK  3 active torsions:
REMARK  status: ('A' for Active; 'I' for Inactive)
REMARK    1  A    between atoms: N2_7  and  C6_8
REMARK    2  A    between atoms: C6_8  and  C7_9
REMARK    3  A    between atoms: C7_9  and  N3_10
ROOT
HETATM    1  C1  UNL     1      22.997  -1.797  26.344  1.00  0.00     0.155 C
HETATM    2  N1  UNL     1      24.180  -2.322  25.706  1.00  0.00    -0.329 N
HETATM    3  C2  UNL     1      24.444  -2.503  24.305  1.00  0.00     0.166 C
HETATM    4  C3  UNL     1      25.680  -3.396  24.241  1.00  0.00     0.095 C
HETATM    5  C4  UNL     1      25.299  -4.796  23.962  1.00  0.00     0.061 C
HETATM    6  C5  UNL     1      25.199  -5.177  22.512  1.00  0.00     0.127 C
HETATM    7  N2  UNL     1      26.540  -5.613  22.081  1.00  0.00    -0.364 N
HETATM    8  C11 UNL     1      27.704  -4.836  22.386  1.00  0.00     0.127 A
HETATM    9  N4  UNL     1      28.945  -5.273  22.151  1.00  0.00    -0.337 N
ATOM     10  H4  UNL     1      29.200  -6.173  21.744  1.00  0.00     0.168 HD
HETATM   11  C12 UNL     1      29.801  -4.305  22.553  1.00  0.00     0.182 A
HETATM   12  N5  UNL     1      29.114  -3.250  23.046  1.00  0.00    -0.353 N
ATOM     13  H5  UNL     1      29.505  -2.386  23.418  1.00  0.00     0.166 HD
HETATM   14  C13 UNL     1      27.808  -3.572  22.945  1.00  0.00     0.057 A
HETATM   15  C14 UNL     1      26.651  -2.733  23.347  1.00  0.00     0.101 C
HETATM   16  O1  UNL     1      26.215  -3.354  25.571  1.00  0.00    -0.290 OA
HETATM   17  C15 UNL     1      25.324  -2.761  26.443  1.00  0.00     0.363 C
HETATM   18  O2  UNL     1      25.503  -2.636  27.678  1.00  0.00    -0.238 OA
ENDROOT
BRANCH   7  19
HETATM   19  C6  UNL     1      26.667  -6.836  21.348  1.00  0.00     0.152 C
BRANCH  19  20
HETATM   20  C7  UNL     1      25.406  -7.177  20.633  1.00  0.00     0.255 C
BRANCH  20  21
HETATM   21  N3  UNL     1      25.122  -8.558  20.472  1.00  0.00    -0.077 N
HETATM   22  C8  UNL     1      23.923  -8.839  21.276  1.00  0.00     0.271 C
HETATM   23  C9  UNL     1      26.150  -9.437  20.973  1.00  0.00     0.271 C
HETATM   24  C10 UNL     1      24.810  -8.977  19.129  1.00  0.00     0.271 C
ENDBRANCH  20  21
ENDBRANCH  19  20
ENDBRANCH   7  19
TORSDOF 3
ENDMDL