MODEL 1
REMARK VINA RESULT: -7.454876863      0.000      0.000
REMARK  3 active torsions:
REMARK  status: ('A' for Active; 'I' for Inactive)
REMARK    1  A    between atoms: C2_3  and  C3_4
REMARK    2  A    between atoms: C5_10  and  C6_11
REMARK    3  A    between atoms: C6_11  and  N4_12
REMARK       I    between atoms: N5_15  and  C9_16
REMARK       I    between atoms: C9_16  and  N6_18
ROOT
HETATM    1  N1  UNL     1      28.746  -7.546  19.703  1.00  0.00    -0.197 NA
HETATM    2  C1  UNL     1      28.428  -7.124  20.722  1.00  0.00     0.065 C
HETATM    3  C2  UNL     1      28.003  -6.598  21.998  1.00  0.00     0.183 C
ENDROOT
BRANCH   3   4
HETATM    4  C3  UNL     1      28.767  -5.338  22.288  1.00  0.00     0.048 A
HETATM    5  N2  UNL     1      29.881  -4.912  21.671  1.00  0.00    -0.304 N
HETATM    6  N3  UNL     1      30.257  -3.768  22.199  1.00  0.00    -0.311 N
ATOM      7  H2  UNL     1      30.359  -5.399  20.912  1.00  0.00     0.186 HD
HETATM    8  C4  UNL     1      29.409  -3.398  23.179  1.00  0.00     0.118 A
ATOM      9  H3  UNL     1      31.077  -3.235  21.908  1.00  0.00     0.186 HD
HETATM   10  C5  UNL     1      28.445  -4.383  23.261  1.00  0.00     0.012 A
BRANCH  10  11
HETATM   11  C6  UNL     1      27.273  -4.529  24.126  1.00  0.00     0.314 C
BRANCH  11  12
HETATM   12  N4  UNL     1      26.092  -3.908  23.631  1.00  0.00     0.096 N
HETATM   13  C7  UNL     1      26.148  -2.478  23.607  1.00  0.00     0.292 C
HETATM   14  C8  UNL     1      25.140  -1.851  24.544  1.00  0.00     0.158 C
HETATM   15  N5  UNL     1      23.812  -2.324  24.125  1.00  0.00    -0.331 N
HETATM   16  C9  UNL     1      22.779  -1.377  24.091  1.00  0.00     0.320 C
HETATM   17  C14 UNL     1      23.709  -3.725  23.794  1.00  0.00     0.158 C
HETATM   18  O1  UNL     1      23.116  -0.184  24.445  1.00  0.00    -0.247 OA
HETATM   19  N6  UNL     1      21.428  -1.545  23.727  1.00  0.00    -0.334 N
HETATM   20  C10 UNL     1      20.474  -0.445  23.764  1.00  0.00     0.127 C
HETATM   21  C13 UNL     1      20.787  -2.754  23.279  1.00  0.00     0.127 C
HETATM   22  C11 UNL     1      19.289  -0.895  22.975  1.00  0.00     0.022 C
HETATM   23  C12 UNL     1      19.481  -2.328  22.631  1.00  0.00     0.022 C
HETATM   24  C15 UNL     1      24.959  -4.409  24.377  1.00  0.00     0.292 C
ENDBRANCH  11  12
ENDBRANCH  10  11
ENDBRANCH   3   4
TORSDOF 3
ENDMDL