MODEL 1
REMARK VINA RESULT: -7.076318580      0.000      0.000
REMARK  4 active torsions:
REMARK  status: ('A' for Active; 'I' for Inactive)
REMARK    1  A    between atoms: N2_5  and  C4_6
REMARK    2  A    between atoms: C4_6  and  C5_7
REMARK    3  A    between atoms: C5_7  and  N3_8
REMARK    4  A    between atoms: N3_8  and  C6_10
ROOT
HETATM    1  C6  UNL     1      25.845  -3.678  23.097  1.00  0.00     0.062 A
HETATM    2  C7  UNL     1      24.843  -4.564  22.774  1.00  0.00     0.087 A
HETATM    3  C8  UNL     1      23.447  -4.278  22.983  1.00  0.00     0.103 C
HETATM    4  N4  UNL     1      22.320  -4.079  23.138  1.00  0.00    -0.191 NA
HETATM    5  C9  UNL     1      25.198  -5.794  22.219  1.00  0.00     0.113 A
HETATM    6  N5  UNL     1      26.489  -6.106  22.005  1.00  0.00    -0.361 N
ATOM      7  H5  UNL     1      26.722  -7.012  21.597  1.00  0.00     0.165 HD
HETATM    8  C10 UNL     1      27.481  -5.250  22.315  1.00  0.00     0.087 A
HETATM    9  C11 UNL     1      27.196  -4.036  22.859  1.00  0.00     0.001 A
HETATM   10  C12 UNL     1      28.452  -3.269  23.114  1.00  0.00     0.051 C
HETATM   11  C13 UNL     1      29.484  -4.005  22.327  1.00  0.00     0.090 C
HETATM   12  C14 UNL     1      28.942  -5.384  22.167  1.00  0.00     0.176 C
HETATM   13  O1  UNL     1      29.564  -6.437  21.954  1.00  0.00    -0.291 OA
ENDROOT
BRANCH   1  14
HETATM   14  N3  UNL     1      25.650  -2.557  23.595  1.00  0.00    -0.366 N
ATOM     15  H3  UNL     1      25.391  -1.885  22.873  1.00  0.00     0.165 HD
BRANCH  14  16
HETATM   16  C5  UNL     1      25.680  -1.939  24.855  1.00  0.00     0.081 C
BRANCH  16  17
HETATM   17  C4  UNL     1      24.772  -2.616  25.866  1.00  0.00     0.171 C
BRANCH  17  18
HETATM   18  N2  UNL     1      25.414  -3.354  26.889  1.00  0.00    -0.328 N
HETATM   19  C3  UNL     1      26.200  -2.760  27.955  1.00  0.00     0.148 C
HETATM   20  C2  UNL     1      26.079  -3.759  29.112  1.00  0.00     0.147 C
HETATM   21  N1  UNL     1      26.136  -5.014  28.379  1.00  0.00    -0.337 N
HETATM   22  C1  UNL     1      26.742  -6.264  28.811  1.00  0.00     0.154 C
HETATM   23  C15 UNL     1      25.470  -4.754  27.150  1.00  0.00     0.320 C
HETATM   24  O2  UNL     1      24.988  -5.614  26.379  1.00  0.00    -0.247 OA
ENDBRANCH  17  18
ENDBRANCH  16  17
ENDBRANCH  14  16
ENDBRANCH   1  14
TORSDOF 4
ENDMDL