MODEL 2
REMARK VINA RESULT: -7.198163565      2.463      6.429
REMARK  3 active torsions:
REMARK  status: ('A' for Active; 'I' for Inactive)
REMARK    1  A    between atoms: C4_8  and  C5_9
REMARK    2  A    between atoms: C5_9  and  C6_10
REMARK    3  A    between atoms: C6_10  and  N3_11
ROOT
HETATM    1  C6  UNL     1      23.603  -2.504  25.762  1.00  0.00     0.158 C
ENDROOT
BRANCH   1   2
HETATM    2  C5  UNL     1      24.990  -2.842  25.420  1.00  0.00    -0.012 A
HETATM    3  C15 UNL     1      25.472  -3.079  24.043  1.00  0.00     0.013 A
HETATM    4  C16 UNL     1      25.766  -1.764  24.646  1.00  0.00     0.013 A
BRANCH   2   5
HETATM    5  C4  UNL     1      25.853  -3.458  26.512  1.00  0.00     0.069 C
HETATM    6  C1  UNL     1      25.528  -4.849  26.820  1.00  0.00     0.101 C
HETATM    7  N1  UNL     1      25.114  -5.920  25.976  1.00  0.00    -0.087 NA
HETATM    8  N2  UNL     1      25.674  -5.049  28.109  1.00  0.00    -0.319 N
HETATM    9  C2  UNL     1      26.082  -3.879  28.749  1.00  0.00     0.223 C
ATOM     10  H2  UNL     1      25.512  -5.939  28.579  1.00  0.00     0.169 HD
HETATM   11  O1  UNL     1      26.679  -3.729  29.828  1.00  0.00    -0.273 OA
HETATM   12  C3  UNL     1      25.637  -2.772  27.837  1.00  0.00     0.115 C
ENDBRANCH   2   5
ENDBRANCH   1   2
BRANCH   1  13
HETATM   13  N3  UNL     1      22.647  -2.315  24.736  1.00  0.00    -0.264 N
HETATM   14  N4  UNL     1      22.005  -3.305  24.000  1.00  0.00    -0.136 NA
HETATM   15  C7  UNL     1      20.706  -2.911  23.523  1.00  0.00     0.145 C
HETATM   16  C8  UNL     1      20.660  -1.655  22.745  1.00  0.00    -0.017 C
HETATM   17  C9  UNL     1      19.311  -0.982  23.022  1.00  0.00     0.011 C
HETATM   18  C12 UNL     1      20.677  -1.924  21.252  1.00  0.00     0.011 C
HETATM   19  C13 UNL     1      21.724  -0.660  23.054  1.00  0.00     0.115 C
HETATM   20  C10 UNL     1      18.398  -1.437  21.920  1.00  0.00     0.001 C
HETATM   21  C11 UNL     1      19.268  -1.862  20.770  1.00  0.00     0.001 C
HETATM   22  C14 UNL     1      22.284  -0.979  24.399  1.00  0.00     0.236 C
HETATM   23  O2  UNL     1      22.424  -0.027  25.224  1.00  0.00    -0.272 OA
ENDBRANCH   1  13
TORSDOF 3
ENDMDL