MODEL 1
REMARK VINA RESULT: -6.706562592      0.000      0.000
REMARK  3 active torsions:
REMARK  status: ('A' for Active; 'I' for Inactive)
REMARK    1  A    between atoms: C2_2  and  N1_3
REMARK    2  A    between atoms: C9_14  and  C10_15
REMARK    3  A    between atoms: C10_15  and  N3_16
ROOT
HETATM    1  N1  UNL     1      22.014  -1.939  25.117  1.00  0.00     0.091 N
HETATM    2  C3  UNL     1      20.891  -2.325  25.921  1.00  0.00     0.280 C
HETATM    3  C4  UNL     1      20.584  -3.799  25.731  1.00  0.00     0.112 C
HETATM    4  C5  UNL     1      21.826  -4.499  25.355  1.00  0.00     0.166 C
HETATM    5  O1  UNL     1      22.258  -5.405  26.016  1.00  0.00    -0.295 OA
HETATM    6  C6  UNL     1      22.536  -4.059  24.132  1.00  0.00     0.181 C
HETATM    7  C7  UNL     1      22.034  -2.644  23.856  1.00  0.00     0.319 C
HETATM    8  N2  UNL     1      22.290  -4.930  23.014  1.00  0.00    -0.336 N
ATOM      9  H2  UNL     1      21.386  -5.344  22.783  1.00  0.00     0.164 HD
HETATM   10  C8  UNL     1      23.485  -5.128  22.282  1.00  0.00     0.232 C
HETATM   11  O2  UNL     1      23.660  -5.793  21.221  1.00  0.00    -0.273 OA
HETATM   12  C9  UNL     1      24.581  -4.404  22.969  1.00  0.00     0.178 C
HETATM   13  C16 UNL     1      23.999  -4.090  24.283  1.00  0.00     0.179 C
HETATM   14  O3  UNL     1      24.613  -3.894  25.302  1.00  0.00    -0.294 OA
ENDROOT
BRANCH   1  15
HETATM   15  C2  UNL     1      21.956  -0.516  24.817  1.00  0.00     0.268 C
HETATM   16  C1  UNL     1      22.942  -0.154  23.704  1.00  0.00     0.037 C
ENDBRANCH   1  15
BRANCH  12  17
HETATM   17  C10 UNL     1      25.819  -5.271  23.101  1.00  0.00     0.294 C
BRANCH  17  18
HETATM   18  N3  UNL     1      26.930  -4.810  22.338  1.00  0.00     0.089 N
HETATM   19  C11 UNL     1      27.522  -3.625  22.906  1.00  0.00     0.272 C
HETATM   20  C12 UNL     1      28.801  -4.026  23.611  1.00  0.00     0.030 C
HETATM   21  C13 UNL     1      29.806  -4.409  22.562  1.00  0.00     0.003 C
HETATM   22  C14 UNL     1      29.203  -5.423  21.652  1.00  0.00     0.030 C
HETATM   23  C15 UNL     1      27.838  -5.885  22.102  1.00  0.00     0.272 C
ENDBRANCH  17  18
ENDBRANCH  12  17
TORSDOF 3
ENDMDL