MODEL 1
REMARK VINA RESULT: -7.815546518      0.000      0.000
REMARK  5 active torsions:
REMARK  status: ('A' for Active; 'I' for Inactive)
REMARK    1  A    between atoms: C2_2  and  C3_3
REMARK    2  A    between atoms: C3_3  and  C5_5
REMARK    3  A    between atoms: C5_5  and  N1_6
REMARK    4  A    between atoms: C5_5  and  C14_16
REMARK    5  A    between atoms: N1_6  and  C6_8
REMARK       I    between atoms: C14_16  and  N2_18
ROOT
HETATM    1  C14 UNL     1       9.553  24.827  -6.199  1.00  0.00     0.271 C
HETATM    2  O1  UNL     1      10.651  25.077  -5.570  1.00  0.00    -0.266 OA
HETATM    3  N2  UNL     1       9.669  24.811  -7.594  1.00  0.00    -0.330 N
HETATM    4  C15 UNL     1       8.789  24.307  -8.633  1.00  0.00     0.128 C
HETATM    5  C16 UNL     1       9.780  23.326  -9.294  1.00  0.00     0.023 C
HETATM    6  C17 UNL     1      11.100  24.108  -9.202  1.00  0.00     0.042 C
HETATM    7  C18 UNL     1      10.714  25.382  -8.429  1.00  0.00     0.195 C
HETATM    8  C19 UNL     1      11.807  26.015  -7.750  1.00  0.00     0.084 C
HETATM    9  N3  UNL     1      12.663  26.541  -7.221  1.00  0.00    -0.195 NA
ENDROOT
BRANCH   1  10
HETATM   10  C5  UNL     1       8.316  24.589  -5.443  1.00  0.00     0.099 C
BRANCH  10  11
HETATM   11  C3  UNL     1       8.189  25.353  -4.153  1.00  0.00    -0.052 C
HETATM   12  C4  UNL     1       7.784  26.774  -4.406  1.00  0.00     0.046 C
BRANCH  11  13
HETATM   13  C2  UNL     1       7.547  24.671  -3.018  1.00  0.00     0.031 C
HETATM   14  C1  UNL     1       7.602  25.503  -1.728  1.00  0.00     0.010 C
ENDBRANCH  11  13
ENDBRANCH  10  11
BRANCH  10  15
HETATM   15  N1  UNL     1       7.116  24.369  -6.064  1.00  0.00    -0.381 N
ATOM     16  H1  UNL     1       6.638  25.214  -6.376  1.00  0.00     0.160 HD
BRANCH  15  17
HETATM   17  C6  UNL     1       6.446  23.198  -6.337  1.00  0.00     0.082 C
HETATM   18  C7  UNL     1       7.234  21.918  -6.265  1.00  0.00     0.025 C
HETATM   19  C8  UNL     1       6.237  20.772  -6.174  1.00  0.00     0.006 C
HETATM   20  C9  UNL     1       5.488  20.799  -4.867  1.00  0.00    -0.015 C
HETATM   21  C10 UNL     1       6.036  19.739  -3.952  1.00  0.00     0.010 C
HETATM   22  C11 UNL     1       5.556  22.192  -4.262  1.00  0.00    -0.013 C
HETATM   23  C12 UNL     1       4.557  22.302  -3.125  1.00  0.00     0.010 C
HETATM   24  C13 UNL     1       5.238  23.140  -5.394  1.00  0.00     0.029 C
ENDBRANCH  15  17
ENDBRANCH  10  15
ENDBRANCH   1  10
TORSDOF 5
ENDMDL