MODEL 4
REMARK VINA RESULT: -7.899233529      1.303      1.882
REMARK  6 active torsions:
REMARK  status: ('A' for Active; 'I' for Inactive)
REMARK    1  A    between atoms: C10_10  and  C11_11
REMARK    2  A    between atoms: C11_11  and  C12_12
REMARK    3  A    between atoms: C12_12  and  O2_14
REMARK    4  A    between atoms: O2_14  and  C13_15
REMARK    5  A    between atoms: C13_15  and  C14_16
REMARK       I    between atoms: C14_16  and  N1_18
REMARK    6  A    between atoms: N1_18  and  C15_20
ROOT
HETATM    1  C12 UNL     1       7.657  25.103  -5.022  1.00  0.00     0.259 C
HETATM    2  O1  UNL     1       7.227  26.241  -4.639  1.00  0.00    -0.265 OA
ENDROOT
BRANCH   1   3
HETATM    3  C11 UNL     1       6.821  24.211  -5.862  1.00  0.00     0.116 C
BRANCH   3   4
HETATM    4  C10 UNL     1       5.858  23.445  -5.047  1.00  0.00     0.004 C
HETATM    5  C5  UNL     1       4.692  22.841  -5.742  1.00  0.00    -0.009 C
HETATM    6  C4  UNL     1       4.187  21.786  -4.742  1.00  0.00     0.014 C
HETATM    7  C6  UNL     1       5.174  22.067  -6.937  1.00  0.00     0.005 C
HETATM    8  C2  UNL     1       5.249  21.638  -3.700  1.00  0.00    -0.043 C
HETATM    9  C1  UNL     1       5.472  20.211  -3.267  1.00  0.00     0.015 C
HETATM   10  C3  UNL     1       5.002  22.498  -2.487  1.00  0.00     0.015 C
HETATM   11  C9  UNL     1       6.475  22.199  -4.414  1.00  0.00    -0.002 C
HETATM   12  C8  UNL     1       7.029  21.254  -5.431  1.00  0.00     0.006 C
HETATM   13  C7  UNL     1       6.232  21.079  -6.657  1.00  0.00     0.001 C
ENDBRANCH   3   4
ENDBRANCH   1   3
BRANCH   1  14
HETATM   14  O2  UNL     1       8.938  24.799  -4.589  1.00  0.00    -0.312 OA
BRANCH  14  15
HETATM   15  C13 UNL     1      10.070  24.998  -5.409  1.00  0.00     0.281 C
BRANCH  15  16
HETATM   16  C14 UNL     1      10.224  23.957  -6.430  1.00  0.00     0.242 C
HETATM   17  O3  UNL     1      10.578  22.804  -6.083  1.00  0.00    -0.271 OA
HETATM   18  N1  UNL     1       9.965  24.298  -7.785  1.00  0.00    -0.355 N
ATOM     19  H1  UNL     1       9.678  25.243  -8.041  1.00  0.00     0.162 HD
BRANCH  18  20
HETATM   20  C15 UNL     1      10.118  23.271  -8.790  1.00  0.00     0.084 C
HETATM   21  C16 UNL     1      10.081  23.898 -10.183  1.00  0.00     0.025 C
HETATM   22  C17 UNL     1       8.611  24.036 -10.515  1.00  0.00     0.002 C
HETATM   23  C18 UNL     1       7.846  23.255  -9.482  1.00  0.00     0.002 C
HETATM   24  C19 UNL     1       8.862  22.407  -8.749  1.00  0.00     0.025 C
ENDBRANCH  18  20
ENDBRANCH  15  16
ENDBRANCH  14  15
ENDBRANCH   1  14
TORSDOF 6
ENDMDL