MODEL 1
REMARK VINA RESULT: -7.222991038      0.000      0.000
REMARK  6 active torsions:
REMARK  status: ('A' for Active; 'I' for Inactive)
REMARK    1  A    between atoms: N1_2  and  C3_4
REMARK    2  A    between atoms: C3_4  and  C4_5
REMARK    3  A    between atoms: C4_5  and  C5_6
REMARK    4  A    between atoms: C5_6  and  O1_7
REMARK    5  A    between atoms: C5_6  and  C6_9
REMARK    6  A    between atoms: C17_20  and  C18_21
ROOT
HETATM    1  C6  UNL     1       7.962  23.741  -6.788  1.00  0.00     0.028 C
HETATM    2  C7  UNL     1       7.116  23.524  -8.077  1.00  0.00     0.009 C
HETATM    3  C8  UNL     1       7.220  22.198  -8.676  1.00  0.00     0.006 C
HETATM    4  C9  UNL     1       5.969  21.415  -8.339  1.00  0.00    -0.006 A
HETATM    5  C10 UNL     1       4.659  22.105  -8.462  1.00  0.00     0.006 A
HETATM    6  C11 UNL     1       4.538  22.054  -6.932  1.00  0.00     0.010 A
HETATM    7  C12 UNL     1       5.789  21.288  -6.856  1.00  0.00    -0.035 A
HETATM    8  C13 UNL     1       5.394  19.801  -6.603  1.00  0.00     0.016 C
HETATM    9  C14 UNL     1       6.905  21.574  -5.999  1.00  0.00     0.011 C
HETATM   10  C15 UNL     1       6.456  21.148  -4.602  1.00  0.00     0.034 C
HETATM   11  C16 UNL     1       6.289  22.420  -3.916  1.00  0.00    -0.015 C
HETATM   12  C17 UNL     1       6.948  23.396  -4.554  1.00  0.00    -0.015 C
HETATM   13  C19 UNL     1       7.622  22.807  -5.715  1.00  0.00    -0.004 C
HETATM   14  C20 UNL     1       8.927  22.324  -4.993  1.00  0.00     0.021 C
ENDROOT
BRANCH   1  15
HETATM   15  C5  UNL     1       9.309  24.033  -7.279  1.00  0.00     0.125 C
BRANCH  15  16
HETATM   16  C4  UNL     1       9.998  23.144  -8.259  1.00  0.00     0.062 C
BRANCH  16  17
HETATM   17  C3  UNL     1      11.448  22.861  -7.766  1.00  0.00     0.274 C
BRANCH  17  18
HETATM   18  N1  UNL     1      12.384  23.698  -8.438  1.00  0.00     0.080 N
HETATM   19  C1  UNL     1      11.951  23.822  -9.817  1.00  0.00     0.309 C
HETATM   20  C2  UNL     1      13.720  23.132  -8.451  1.00  0.00     0.309 C
ENDBRANCH  17  18
ENDBRANCH  16  17
ENDBRANCH  15  16
BRANCH  15  21
HETATM   21  O1  UNL     1       9.585  25.388  -7.516  1.00  0.00    -0.395 OA
ATOM     22  H1  UNL     1      10.382  25.669  -7.082  1.00  0.00     0.210 HD
ENDBRANCH  15  21
ENDBRANCH   1  15
BRANCH  12  23
HETATM   23  C18 UNL     1       6.939  24.753  -4.069  1.00  0.00     0.266 C
HETATM   24  O2  UNL     1       6.037  25.567  -4.239  1.00  0.00    -0.302 OA
ENDBRANCH  12  23
TORSDOF 6
ENDMDL