MODEL 3
REMARK VINA RESULT: -7.658529464      2.062      2.495
REMARK  6 active torsions:
REMARK  status: ('A' for Active; 'I' for Inactive)
REMARK    1  A    between atoms: C8_8  and  O1_10
REMARK    2  A    between atoms: O1_10  and  C10_11
REMARK    3  A    between atoms: C10_11  and  C11_13
REMARK    4  A    between atoms: C12_14  and  C13_15
REMARK    5  A    between atoms: C14_16  and  C15_17
REMARK    6  A    between atoms: C18_20  and  C19_21
ROOT
HETATM    1  C1  UNL     1       5.308  22.979  -3.057  1.00  0.00     0.011 C
HETATM    2  C2  UNL     1       6.452  22.643  -3.957  1.00  0.00     0.007 C
HETATM    3  C3  UNL     1       6.441  21.267  -4.527  1.00  0.00     0.020 C
HETATM    4  C4  UNL     1       5.260  20.484  -4.044  1.00  0.00    -0.025 C
HETATM    5  C5  UNL     1       4.215  20.668  -4.837  1.00  0.00    -0.030 C
HETATM    6  C6  UNL     1       4.604  21.610  -5.952  1.00  0.00     0.035 C
HETATM    7  C7  UNL     1       6.096  21.464  -5.966  1.00  0.00     0.033 C
HETATM    8  C8  UNL     1       6.820  22.778  -6.338  1.00  0.00     0.085 C
HETATM    9  C9  UNL     1       6.123  23.292  -7.581  1.00  0.00     0.048 C
HETATM   10  C18 UNL     1       6.536  23.600  -5.150  1.00  0.00     0.126 C
ENDROOT
BRANCH   8  11
HETATM   11  O1  UNL     1       8.121  22.381  -6.558  1.00  0.00    -0.306 OA
BRANCH  11  12
HETATM   12  C10 UNL     1       9.026  22.751  -7.502  1.00  0.00     0.283 C
HETATM   13  O2  UNL     1       8.926  22.192  -8.626  1.00  0.00    -0.260 OA
BRANCH  12  14
HETATM   14  C11 UNL     1      10.079  23.731  -7.298  1.00  0.00     0.082 C
HETATM   15  C12 UNL     1      10.031  24.873  -7.952  1.00  0.00     0.006 C
BRANCH  15  16
HETATM   16  C13 UNL     1      11.050  25.907  -7.802  1.00  0.00    -0.003 C
HETATM   17  C14 UNL     1      12.196  25.838  -8.446  1.00  0.00    -0.022 C
BRANCH  17  18
HETATM   18  C15 UNL     1      13.282  26.824  -8.363  1.00  0.00     0.008 A
HETATM   19  C16 UNL     1      13.660  27.376  -7.026  1.00  0.00     0.009 A
HETATM   20  C17 UNL     1      13.010  28.270  -8.055  1.00  0.00     0.009 A
ENDBRANCH  17  18
ENDBRANCH  15  16
ENDBRANCH  12  14
ENDBRANCH  11  12
ENDBRANCH   8  11
BRANCH  10  21
HETATM   21  C19 UNL     1       7.455  24.670  -4.770  1.00  0.00     0.180 C
HETATM   22  O3  UNL     1       7.157  25.868  -4.998  1.00  0.00    -0.648 OA
HETATM   23  O4  UNL     1       8.702  24.467  -4.145  1.00  0.00    -0.648 OA
ENDBRANCH  10  21
TORSDOF 6
ENDMDL