MODEL 3
REMARK VINA RESULT: -6.487067062      0.918      1.210
REMARK  7 active torsions:
REMARK  status: ('A' for Active; 'I' for Inactive)
REMARK    1  A    between atoms: C2_2  and  C3_3
REMARK    2  A    between atoms: C8_8  and  N1_9
REMARK    3  A    between atoms: N1_9  and  C9_11
REMARK    4  A    between atoms: C9_11  and  S2_13
REMARK    5  A    between atoms: S2_13  and  C10_14
REMARK    6  A    between atoms: C10_14  and  C11_15
REMARK    7  A    between atoms: C11_15  and  C12_16
REMARK       I    between atoms: C12_16  and  N2_18
ROOT
HETATM    1  C9  UNL     1       8.848  24.766  -5.482  1.00  0.00     0.134 C
HETATM    2  S1  UNL     1       9.450  23.307  -4.987  1.00  0.00    -0.053 SA
ENDROOT
BRANCH   1   3
HETATM    3  N1  UNL     1       9.005  25.179  -6.807  1.00  0.00    -0.371 N
ATOM      4  H1  UNL     1       8.537  26.033  -7.111  1.00  0.00     0.161 HD
BRANCH   3   5
HETATM    5  C8  UNL     1       9.798  24.451  -7.759  1.00  0.00     0.087 C
HETATM    6  C3  UNL     1       8.923  23.925  -8.900  1.00  0.00     0.008 C
HETATM    7  C4  UNL     1       9.570  24.075 -10.236  1.00  0.00     0.007 C
HETATM    8  C5  UNL     1      11.052  23.887 -10.253  1.00  0.00     0.001 C
HETATM    9  C6  UNL     1      11.771  24.729  -9.219  1.00  0.00     0.002 C
HETATM   10  C7  UNL     1      10.792  25.465  -8.360  1.00  0.00     0.025 C
BRANCH   6  11
HETATM   11  C2  UNL     1       8.450  22.519  -8.611  1.00  0.00     0.002 C
HETATM   12  C1  UNL     1       7.224  22.136  -9.368  1.00  0.00     0.005 C
ENDBRANCH   6  11
ENDBRANCH   3   5
ENDBRANCH   1   3
BRANCH   1  13
HETATM   13  S2  UNL     1       8.016  25.790  -4.301  1.00  0.00    -0.100 SA
BRANCH  13  14
HETATM   14  C10 UNL     1       6.465  25.054  -3.812  1.00  0.00     0.091 C
BRANCH  14  15
HETATM   15  C11 UNL     1       5.952  23.994  -4.752  1.00  0.00     0.113 C
BRANCH  15  16
HETATM   16  C12 UNL     1       5.671  22.765  -3.939  1.00  0.00     0.220 C
HETATM   17  O1  UNL     1       5.223  22.927  -2.764  1.00  0.00    -0.273 OA
HETATM   18  N2  UNL     1       5.891  21.471  -4.443  1.00  0.00    -0.352 N
HETATM   19  C13 UNL     1       5.656  20.240  -3.753  1.00  0.00     0.126 C
HETATM   20  C16 UNL     1       6.393  21.146  -5.744  1.00  0.00     0.126 C
HETATM   21  C14 UNL     1       4.973  19.424  -4.859  1.00  0.00     0.021 C
HETATM   22  C15 UNL     1       5.420  20.038  -6.167  1.00  0.00     0.021 C
ENDBRANCH  15  16
ENDBRANCH  14  15
ENDBRANCH  13  14
ENDBRANCH   1  13
TORSDOF 7
ENDMDL