MODEL 5
REMARK VINA RESULT: -8.025706399      1.359      2.297
REMARK  6 active torsions:
REMARK  status: ('A' for Active; 'I' for Inactive)
REMARK    1  A    between atoms: N1_5  and  C5_6
REMARK    2  A    between atoms: C5_6  and  C6_7
REMARK    3  A    between atoms: C6_7  and  C7_8
REMARK    4  A    between atoms: C7_8  and  O1_9
REMARK    5  A    between atoms: O1_9  and  C8_10
REMARK    6  A    between atoms: C8_10  and  C9_12
ROOT
HETATM    1  C8  UNL     1       6.581  24.519  -3.862  1.00  0.00     0.267 C
HETATM    2  O2  UNL     1       6.766  24.778  -2.657  1.00  0.00    -0.264 OA
ENDROOT
BRANCH   1   3
HETATM    3  O1  UNL     1       6.897  25.425  -4.831  1.00  0.00    -0.321 OA
BRANCH   3   4
HETATM    4  C7  UNL     1       8.094  26.138  -4.885  1.00  0.00     0.180 C
BRANCH   4   5
HETATM    5  C6  UNL     1       9.225  25.275  -5.331  1.00  0.00     0.057 C
BRANCH   5   6
HETATM    6  C5  UNL     1       8.930  24.575  -6.646  1.00  0.00     0.274 C
BRANCH   6   7
HETATM    7  N1  UNL     1      10.101  24.317  -7.417  1.00  0.00     0.088 N
HETATM    8  C4  UNL     1      10.766  23.112  -7.000  1.00  0.00     0.272 C
HETATM    9  C3  UNL     1      11.961  22.785  -7.865  1.00  0.00     0.034 C
HETATM   10  C2  UNL     1      12.406  23.975  -8.684  1.00  0.00    -0.015 C
HETATM   11  C1  UNL     1      11.629  24.009  -9.984  1.00  0.00     0.010 C
HETATM   12  C20 UNL     1      12.289  25.278  -7.968  1.00  0.00     0.034 C
HETATM   13  C19 UNL     1      11.029  25.433  -7.181  1.00  0.00     0.272 C
ENDBRANCH   6   7
ENDBRANCH   5   6
ENDBRANCH   4   5
ENDBRANCH   3   4
ENDBRANCH   1   3
BRANCH   1  14
HETATM   14  C9  UNL     1       6.004  23.203  -4.306  1.00  0.00     0.049 C
HETATM   15  C10 UNL     1       7.189  22.300  -4.602  1.00  0.00     0.024 C
HETATM   16  C11 UNL     1       6.635  20.943  -4.977  1.00  0.00    -0.013 C
HETATM   17  C12 UNL     1       5.838  20.402  -3.831  1.00  0.00     0.009 C
HETATM   18  C16 UNL     1       5.837  21.113  -6.239  1.00  0.00     0.009 C
HETATM   19  C13 UNL     1       4.631  21.284  -3.602  1.00  0.00    -0.013 C
HETATM   20  C14 UNL     1       3.839  21.376  -4.880  1.00  0.00     0.009 C
HETATM   21  C18 UNL     1       5.142  22.651  -3.211  1.00  0.00     0.024 C
HETATM   22  C15 UNL     1       4.660  22.031  -5.957  1.00  0.00    -0.013 C
HETATM   23  C17 UNL     1       5.162  23.386  -5.551  1.00  0.00     0.024 C
ENDBRANCH   1  14
TORSDOF 6
ENDMDL