MODEL 5
REMARK VINA RESULT: -7.707777690      1.579      8.386
REMARK  5 active torsions:
REMARK  status: ('A' for Active; 'I' for Inactive)
REMARK    1  A    between atoms: C2_2  and  C3_3
REMARK    2  A    between atoms: C3_3  and  C6_6
REMARK    3  A    between atoms: C6_6  and  N1_7
REMARK       I    between atoms: N1_7  and  C7_9
REMARK    4  A    between atoms: C7_9  and  C8_11
REMARK    5  A    between atoms: N2_14  and  C11_15
ROOT
HETATM    1  C8  UNL     1       9.719  24.519  -6.532  1.00  0.00     0.081 C
HETATM    2  C9  UNL     1       9.264  25.389  -5.400  1.00  0.00     0.033 C
HETATM    3  C10 UNL     1       8.211  24.590  -4.626  1.00  0.00     0.118 C
HETATM    4  N2  UNL     1       8.310  23.213  -4.952  1.00  0.00    -0.408 N
HETATM    5  C19 UNL     1       9.611  22.661  -4.974  1.00  0.00     0.118 C
HETATM    6  C20 UNL     1      10.550  23.405  -5.920  1.00  0.00     0.033 C
ENDROOT
BRANCH   1   7
HETATM    7  C7  UNL     1      10.486  25.255  -7.577  1.00  0.00     0.221 C
HETATM    8  N1  UNL     1      11.850  24.992  -7.760  1.00  0.00    -0.360 N
ATOM      9  H1  UNL     1      12.230  24.293  -7.122  1.00  0.00     0.162 HD
HETATM   10  O1  UNL     1       9.850  26.086  -8.246  1.00  0.00    -0.273 OA
BRANCH   8  11
HETATM   11  C6  UNL     1      12.800  25.522  -8.672  1.00  0.00     0.131 C
BRANCH  11  12
HETATM   12  C3  UNL     1      13.483  24.628  -9.627  1.00  0.00    -0.032 C
HETATM   13  C4  UNL     1      12.464  23.855 -10.423  1.00  0.00     0.016 C
HETATM   14  C5  UNL     1      14.548  25.233 -10.506  1.00  0.00     0.016 C
BRANCH  12  15
HETATM   15  C2  UNL     1      14.277  23.602  -8.766  1.00  0.00     0.006 C
HETATM   16  C1  UNL     1      15.627  24.131  -8.405  1.00  0.00     0.006 C
ENDBRANCH  12  15
ENDBRANCH  11  12
ENDBRANCH   8  11
ENDBRANCH   1   7
BRANCH   4  17
HETATM   17  C11 UNL     1       7.223  22.391  -4.557  1.00  0.00     0.079 C
HETATM   18  C12 UNL     1       7.178  21.069  -5.214  1.00  0.00     0.025 C
HETATM   19  C13 UNL     1       6.005  20.838  -6.133  1.00  0.00     0.002 C
HETATM   20  C14 UNL     1       4.971  19.922  -5.552  1.00  0.00     0.000 C
HETATM   21  C15 UNL     1       4.024  20.486  -4.582  1.00  0.00     0.000 C
HETATM   22  C16 UNL     1       3.877  21.960  -4.504  1.00  0.00     0.000 C
HETATM   23  C17 UNL     1       4.959  22.533  -3.611  1.00  0.00     0.002 C
HETATM   24  C18 UNL     1       5.970  23.193  -4.534  1.00  0.00     0.025 C
ENDBRANCH   4  17
TORSDOF 5
ENDMDL