MODEL 2
REMARK VINA RESULT: -8.022631046      1.529      1.992
REMARK  4 active torsions:
REMARK  status: ('A' for Active; 'I' for Inactive)
REMARK    1  A    between atoms: C2_2  and  C3_3
REMARK    2  A    between atoms: C2_2  and  N3_20
REMARK       I    between atoms: C3_3  and  N1_5
REMARK    3  A    between atoms: N1_5  and  C4_7
REMARK    4  A    between atoms: N2_10  and  C7_11
ROOT
HETATM    1  C4  UNL     1       9.673  24.116  -5.518  1.00  0.00     0.087 C
HETATM    2  C5  UNL     1      10.297  22.832  -6.002  1.00  0.00     0.045 C
HETATM    3  C6  UNL     1      11.296  23.044  -7.113  1.00  0.00     0.124 C
HETATM    4  N2  UNL     1      10.748  23.847  -8.185  1.00  0.00    -0.390 N
HETATM    5  C14 UNL     1       9.714  24.830  -7.909  1.00  0.00     0.124 C
HETATM    6  C15 UNL     1       9.885  25.267  -6.472  1.00  0.00     0.045 C
ENDROOT
BRANCH   1   7
HETATM    7  N1  UNL     1       8.265  23.858  -5.314  1.00  0.00    -0.354 N
HETATM    8  C3  UNL     1       7.602  24.327  -4.152  1.00  0.00     0.251 C
HETATM    9  O1  UNL     1       8.255  24.967  -3.306  1.00  0.00    -0.271 OA
ATOM     10  H1  UNL     1       7.743  23.332  -6.016  1.00  0.00     0.162 HD
BRANCH   8  11
HETATM   11  C2  UNL     1       6.158  24.019  -4.022  1.00  0.00     0.310 C
HETATM   12  C1  UNL     1       5.789  24.133  -2.560  1.00  0.00     0.053 C
BRANCH  11  13
HETATM   13  N3  UNL     1       5.839  22.682  -4.480  1.00  0.00     0.101 N
HETATM   14  C16 UNL     1       4.683  22.633  -5.316  1.00  0.00     0.273 C
HETATM   15  C17 UNL     1       3.683  21.568  -4.847  1.00  0.00     0.030 C
HETATM   16  C18 UNL     1       4.492  20.266  -4.776  1.00  0.00     0.003 C
HETATM   17  C19 UNL     1       5.434  20.417  -3.609  1.00  0.00     0.030 C
HETATM   18  C20 UNL     1       5.733  21.850  -3.302  1.00  0.00     0.273 C
ENDBRANCH  11  13
ENDBRANCH   8  11
ENDBRANCH   1   7
BRANCH   4  19
HETATM   19  C7  UNL     1      11.222  23.669  -9.491  1.00  0.00     0.088 C
HETATM   20  C8  UNL     1      12.473  23.882  -9.860  1.00  0.00    -0.065 C
HETATM   21  C9  UNL     1      13.428  24.341  -8.821  1.00  0.00     0.035 C
HETATM   22  C13 UNL     1      12.956  23.692 -11.227  1.00  0.00     0.035 C
HETATM   23  C10 UNL     1      14.566  23.311  -8.824  1.00  0.00     0.004 C
HETATM   24  C11 UNL     1      15.222  23.415 -10.175  1.00  0.00     0.001 C
HETATM   25  C12 UNL     1      14.326  23.093 -11.317  1.00  0.00     0.004 C
ENDBRANCH   4  19
TORSDOF 4
ENDMDL