MODEL 3
REMARK VINA RESULT: -7.534497720      1.157      1.551
REMARK  5 active torsions:
REMARK  status: ('A' for Active; 'I' for Inactive)
REMARK    1  A    between atoms: C4_4  and  C5_5
REMARK    2  A    between atoms: C5_5  and  C6_6
REMARK    3  A    between atoms: N1_16  and  C15_17
REMARK    4  A    between atoms: C15_17  and  C16_18
REMARK    5  A    between atoms: C16_18  and  C18_20
ROOT
HETATM    1  C6  UNL     1       6.804  21.946  -7.047  1.00  0.00     0.020 C
HETATM    2  C7  UNL     1       7.977  22.221  -7.903  1.00  0.00     0.040 C
HETATM    3  C8  UNL     1       8.995  22.911  -6.987  1.00  0.00     0.156 C
HETATM    4  O1  UNL     1      10.217  23.033  -7.573  1.00  0.00    -0.373 OA
HETATM    5  C9  UNL     1      10.601  24.212  -8.097  1.00  0.00     0.054 C
HETATM    6  C10 UNL     1      10.189  24.374  -9.554  1.00  0.00     0.045 C
HETATM    7  C11 UNL     1      12.142  24.210  -8.130  1.00  0.00     0.045 C
HETATM    8  C12 UNL     1      10.225  25.438  -7.301  1.00  0.00     0.039 C
HETATM    9  C13 UNL     1       9.418  25.083  -6.068  1.00  0.00     0.041 C
HETATM   10  C14 UNL     1       8.341  24.148  -6.536  1.00  0.00     0.252 C
HETATM   11  N1  UNL     1       7.280  23.915  -5.558  1.00  0.00     0.096 N
HETATM   12  C19 UNL     1       6.732  22.591  -5.712  1.00  0.00     0.278 C
ENDROOT
BRANCH  11  13
HETATM   13  C15 UNL     1       7.762  24.072  -4.225  1.00  0.00     0.286 C
BRANCH  13  14
HETATM   14  C16 UNL     1       6.948  24.967  -3.364  1.00  0.00     0.099 C
HETATM   15  C17 UNL     1       5.969  24.377  -2.414  1.00  0.00     0.021 C
BRANCH  14  16
HETATM   16  C18 UNL     1       7.847  25.850  -2.534  1.00  0.00     0.236 C
HETATM   17  N2  UNL     1       8.581  26.888  -3.100  1.00  0.00    -0.062 NA
HETATM   18  O2  UNL     1       7.928  25.627  -1.295  1.00  0.00    -0.276 OA
ENDBRANCH  14  16
ENDBRANCH  13  14
ENDBRANCH  11  13
BRANCH   1  19
HETATM   19  C5  UNL     1       5.494  22.029  -7.836  1.00  0.00     0.033 C
BRANCH  19  20
HETATM   20  C4  UNL     1       5.110  20.672  -8.316  1.00  0.00    -0.024 C
HETATM   21  C2  UNL     1       5.126  20.286  -9.555  1.00  0.00    -0.091 C
HETATM   22  C1  UNL     1       5.548  21.205 -10.637  1.00  0.00     0.042 C
HETATM   23  C3  UNL     1       4.713  18.907  -9.916  1.00  0.00     0.042 C
ENDBRANCH  19  20
ENDBRANCH   1  19
TORSDOF 5
ENDMDL