MODEL 2
REMARK VINA RESULT: -8.011274923      6.306      9.157
REMARK  5 active torsions:
REMARK  status: ('A' for Active; 'I' for Inactive)
REMARK    1  A    between atoms: N1_2  and  C2_3
REMARK    2  A    between atoms: N1_2  and  C15_20
REMARK    3  A    between atoms: C5_6  and  C6_7
REMARK       I    between atoms: C6_7  and  N2_9
REMARK    4  A    between atoms: N2_9  and  C7_11
REMARK    5  A    between atoms: C7_11  and  C8_12
ROOT
HETATM    1  C2  UNL     1      12.323  24.135  -8.725  1.00  0.00     0.082 C
HETATM    2  C3  UNL     1      11.012  24.612  -9.374  1.00  0.00     0.053 C
HETATM    3  C4  UNL     1      10.229  25.170  -8.242  1.00  0.00    -0.012 C
HETATM    4  C5  UNL     1      10.183  24.465  -7.142  1.00  0.00     0.006 C
HETATM    5  C13 UNL     1      10.872  23.146  -7.006  1.00  0.00     0.046 C
HETATM    6  C14 UNL     1      11.983  22.899  -7.972  1.00  0.00     0.030 C
ENDROOT
BRANCH   4   7
HETATM    7  C6  UNL     1       9.446  24.939  -5.997  1.00  0.00     0.247 C
HETATM    8  O1  UNL     1      10.125  25.322  -4.979  1.00  0.00    -0.268 OA
HETATM    9  N2  UNL     1       8.042  24.986  -5.985  1.00  0.00    -0.357 N
ATOM     10  H2  UNL     1       7.499  24.680  -6.792  1.00  0.00     0.162 HD
BRANCH   9  11
HETATM   11  C7  UNL     1       7.384  25.484  -4.782  1.00  0.00     0.127 C
BRANCH  11  12
HETATM   12  C8  UNL     1       6.458  24.427  -4.225  1.00  0.00     0.007 C
HETATM   13  C9  UNL     1       6.295  24.571  -2.723  1.00  0.00     0.032 C
HETATM   14  C10 UNL     1       5.332  23.506  -2.267  1.00  0.00     0.168 C
HETATM   15  O2  UNL     1       4.855  22.735  -3.333  1.00  0.00    -0.391 OA
HETATM   16  C11 UNL     1       5.917  22.062  -3.951  1.00  0.00     0.168 C
HETATM   17  C12 UNL     1       6.941  23.031  -4.498  1.00  0.00     0.032 C
ENDBRANCH  11  12
ENDBRANCH   9  11
ENDBRANCH   4   7
BRANCH   1  18
HETATM   18  N1  UNL     1      13.316  24.029  -9.697  1.00  0.00    -0.408 N
HETATM   19  C1  UNL     1      12.853  23.608 -10.956  1.00  0.00     0.144 C
BRANCH  18  20
HETATM   20  C15 UNL     1      14.579  24.563  -9.573  1.00  0.00     0.079 C
HETATM   21  C16 UNL     1      14.652  25.906  -8.857  1.00  0.00     0.025 C
HETATM   22  C17 UNL     1      16.042  25.968  -8.256  1.00  0.00     0.002 C
HETATM   23  C18 UNL     1      16.656  24.600  -8.376  1.00  0.00     0.002 C
HETATM   24  C19 UNL     1      15.418  23.729  -8.592  1.00  0.00     0.025 C
ENDBRANCH  18  20
ENDBRANCH   1  18
TORSDOF 5
ENDMDL