MODEL 3
REMARK VINA RESULT: -7.560456534      2.445      6.138
REMARK  3 active torsions:
REMARK  status: ('A' for Active; 'I' for Inactive)
REMARK    1  A    between atoms: C2_2  and  C3_3
REMARK    2  A    between atoms: C7_10  and  C8_11
REMARK    3  A    between atoms: C13_17  and  N3_18
ROOT
HETATM    1  C3  UNL     1       6.061  10.189   4.378  1.00  0.00     0.009 A
HETATM    2  C4  UNL     1       7.250  10.097   5.107  1.00  0.00     0.047 A
HETATM    3  C5  UNL     1       8.419   9.909   4.426  1.00  0.00     0.063 A
HETATM    4  N1  UNL     1       9.576   9.824   5.144  1.00  0.00    -0.321 N
ATOM      5  H1  UNL     1       9.542   9.899   6.161  1.00  0.00     0.169 HD
HETATM    6  C6  UNL     1      10.759   9.641   4.535  1.00  0.00     0.252 A
HETATM    7  O1  UNL     1      11.829   9.563   5.213  1.00  0.00    -0.268 OA
HETATM    8  C7  UNL     1      10.844   9.534   3.166  1.00  0.00     0.012 A
HETATM    9  C10 UNL     1       9.657   9.624   2.453  1.00  0.00     0.044 A
HETATM   10  C11 UNL     1       8.411   9.813   3.052  1.00  0.00     0.063 A
HETATM   11  N2  UNL     1       7.265   9.902   2.359  1.00  0.00    -0.335 N
HETATM   12  C12 UNL     1       7.268   9.788   0.917  1.00  0.00     0.158 C
HETATM   13  C13 UNL     1       6.063  10.095   3.022  1.00  0.00     0.113 A
ENDROOT
BRANCH  13  14
HETATM   14  N3  UNL     1       4.961  10.260   2.159  1.00  0.00    -0.380 N
HETATM   15  C14 UNL     1       3.961   9.280   1.873  1.00  0.00     0.147 C
ATOM     16  H3  UNL     1       4.868  11.164   1.696  1.00  0.00     0.160 HD
ENDBRANCH  13  14
BRANCH   1  17
HETATM   17  C2  UNL     1       4.852  10.369   5.153  1.00  0.00     0.005 C
HETATM   18  C1  UNL     1       4.090   9.303   5.355  1.00  0.00     0.012 C
ENDBRANCH   1  17
BRANCH   8  19
HETATM   19  C8  UNL     1      12.148   9.332   2.456  1.00  0.00     0.040 C
HETATM   20  C9  UNL     1      12.469  10.508   1.563  1.00  0.00     0.010 C
ENDBRANCH   8  19
TORSDOF 3
ENDMDL