MODEL 3
REMARK VINA RESULT: -6.855116105      2.212      4.140
REMARK  3 active torsions:
REMARK  status: ('A' for Active; 'I' for Inactive)
REMARK    1  A    between atoms: N3_12  and  C8_14
REMARK    2  A    between atoms: C8_14  and  C9_15
REMARK    3  A    between atoms: C9_15  and  N4_16
ROOT
HETATM    1  C1  UNL     1       5.420   9.816   4.901  1.00  0.00     0.069 C
HETATM    2  C2  UNL     1       6.517   9.744   3.911  1.00  0.00     0.015 A
HETATM    3  N1  UNL     1       6.241   9.669   2.611  1.00  0.00    -0.345 N
ATOM      4  H1  UNL     1       5.271   9.665   2.296  1.00  0.00     0.167 HD
HETATM    5  C3  UNL     1       7.238   9.601   1.712  1.00  0.00     0.118 A
HETATM    6  N2  UNL     1       7.221   9.520   0.362  1.00  0.00    -0.352 N
ATOM      7  H2  UNL     1       6.376   9.497  -0.210  1.00  0.00     0.166 HD
HETATM    8  C4  UNL     1       8.477   9.474  -0.119  1.00  0.00     0.090 A
HETATM    9  C5  UNL     1       9.303   9.529   0.983  1.00  0.00     0.034 A
HETATM   10  C6  UNL     1       8.549   9.608   2.124  1.00  0.00     0.036 A
HETATM   11  C7  UNL     1       8.896   9.685   3.486  1.00  0.00     0.050 A
HETATM   12  N3  UNL     1      10.087   9.684   3.768  1.00  0.00    -0.387 N
ATOM     13  H3  UNL     1      10.625   9.621   2.905  1.00  0.00     0.159 HD
HETATM   14  C12 UNL     1       7.852   9.753   4.365  1.00  0.00    -0.012 A
HETATM   15  C13 UNL     1       8.155   9.836   5.797  1.00  0.00     0.052 C
ENDROOT
BRANCH  12  16
HETATM   16  C8  UNL     1      10.966   9.735   4.830  1.00  0.00     0.150 C
BRANCH  16  17
HETATM   17  C9  UNL     1      12.362   9.352   4.302  1.00  0.00     0.290 C
BRANCH  17  18
HETATM   18  N4  UNL     1      12.439   7.936   4.001  1.00  0.00     0.081 N
HETATM   19  C10 UNL     1      13.168   7.164   4.960  1.00  0.00     0.309 C
HETATM   20  C11 UNL     1      12.912   7.690   2.662  1.00  0.00     0.309 C
ENDBRANCH  17  18
ENDBRANCH  16  17
ENDBRANCH  12  16
TORSDOF 3
ENDMDL