MODEL 2
REMARK VINA RESULT: -6.930514088      7.160      9.843
REMARK  6 active torsions:
REMARK  status: ('A' for Active; 'I' for Inactive)
REMARK       I    between atoms: C2_2  and  N1_4
REMARK    1  A    between atoms: N1_4  and  C3_5
REMARK    2  A    between atoms: C5_11  and  C6_12
REMARK    3  A    between atoms: C6_12  and  C7_13
REMARK    4  A    between atoms: C7_13  and  C8_14
REMARK    5  A    between atoms: C8_14  and  O3_16
REMARK    6  A    between atoms: O3_16  and  C9_17
ROOT
HETATM    1  C3  UNL     1       6.810   9.662   5.130  1.00  0.00     0.205 A
HETATM    2  N2  UNL     1       7.506   9.992   6.277  1.00  0.00    -0.274 N
ATOM      3  H2  UNL     1       7.076  10.305   7.149  1.00  0.00     0.189 HD
HETATM    4  N3  UNL     1       8.788   9.848   6.091  1.00  0.00    -0.309 N
ATOM      5  H3  UNL     1       9.497  10.034   6.800  1.00  0.00     0.186 HD
HETATM    6  C4  UNL     1       9.055   9.424   4.844  1.00  0.00     0.119 A
HETATM    7  C5  UNL     1       7.832   9.304   4.240  1.00  0.00     0.019 A
ENDROOT
BRANCH   7   8
HETATM    8  C6  UNL     1       7.597   8.832   2.831  1.00  0.00     0.055 C
BRANCH   8   9
HETATM    9  C7  UNL     1       8.371   9.740   1.920  1.00  0.00     0.116 C
BRANCH   9  10
HETATM   10  C8  UNL     1       9.405   9.097   1.108  1.00  0.00     0.259 C
HETATM   11  O2  UNL     1       9.102   8.650  -0.056  1.00  0.00    -0.265 OA
BRANCH  10  12
HETATM   12  O3  UNL     1      10.731   8.908   1.462  1.00  0.00    -0.311 OA
BRANCH  12  13
HETATM   13  C9  UNL     1      11.658   9.997   1.460  1.00  0.00     0.060 C
HETATM   14  C10 UNL     1      11.603  10.817   2.708  1.00  0.00     0.045 C
HETATM   15  C11 UNL     1      13.055   9.355   1.424  1.00  0.00     0.045 C
HETATM   16  C12 UNL     1      11.540  10.814   0.202  1.00  0.00     0.045 C
ENDBRANCH  12  13
ENDBRANCH  10  12
ENDBRANCH   9  10
ENDBRANCH   8   9
ENDBRANCH   7   8
BRANCH   1  17
HETATM   17  N1  UNL     1       5.637   9.673   4.941  1.00  0.00    -0.350 NA
HETATM   18  C2  UNL     1       4.352   9.569   4.736  1.00  0.00     0.289 C
HETATM   19  C1  UNL     1       3.829   9.024   3.414  1.00  0.00     0.135 C
HETATM   20  O1  UNL     1       3.408   9.880   5.542  1.00  0.00    -0.258 OA
ENDBRANCH   1  17
TORSDOF 6
ENDMDL