MODEL 3
REMARK VINA RESULT: -7.488450086      2.459      4.744
REMARK  3 active torsions:
REMARK  status: ('A' for Active; 'I' for Inactive)
REMARK    1  A    between atoms: C2_2  and  C3_3
REMARK    2  A    between atoms: C3_3  and  C4_4
REMARK    3  A    between atoms: C4_4  and  C5_5
ROOT
HETATM    1  C5  UNL     1       8.005   9.895   4.607  1.00  0.00     0.000 C
HETATM    2  C6  UNL     1       8.155   8.471   5.166  1.00  0.00     0.022 C
HETATM    3  C7  UNL     1       7.094  10.616   5.573  1.00  0.00     0.023 C
HETATM    4  C8  UNL     1       5.653  10.305   5.475  1.00  0.00     0.085 C
HETATM    5  C9  UNL     1       5.235   9.556   4.264  1.00  0.00     0.167 C
HETATM    6  O1  UNL     1       4.162   8.891   4.224  1.00  0.00    -0.292 OA
HETATM    7  C10 UNL     1       6.101   9.606   3.104  1.00  0.00     0.101 A
HETATM    8  C11 UNL     1       7.447   9.771   3.279  1.00  0.00     0.041 A
HETATM    9  N1  UNL     1       8.201   9.811   2.178  1.00  0.00    -0.310 N
ATOM     10  H1  UNL     1       9.209   9.934   2.270  1.00  0.00     0.170 HD
HETATM   11  C12 UNL     1       7.658   9.691   0.937  1.00  0.00     0.327 A
HETATM   12  O2  UNL     1       8.396   9.730  -0.097  1.00  0.00    -0.247 OA
HETATM   13  N2  UNL     1       6.340   9.527   0.746  1.00  0.00    -0.275 N
ATOM     14  H2  UNL     1       5.954   9.438  -0.194  1.00  0.00     0.173 HD
HETATM   15  C13 UNL     1       5.545   9.483   1.824  1.00  0.00     0.265 A
HETATM   16  O3  UNL     1       4.306   9.331   1.695  1.00  0.00    -0.267 OA
ENDROOT
BRANCH   1  17
HETATM   17  C4  UNL     1       9.351  10.548   4.676  1.00  0.00     0.015 C
BRANCH  17  18
HETATM   18  C3  UNL     1      10.456   9.553   4.926  1.00  0.00     0.001 C
BRANCH  18  19
HETATM   19  C2  UNL     1      11.548   9.650   3.882  1.00  0.00    -0.005 C
HETATM   20  C1  UNL     1      11.612  10.985   3.216  1.00  0.00     0.005 C
ENDBRANCH  18  19
ENDBRANCH  17  18
ENDBRANCH   1  17
TORSDOF 3
ENDMDL