MODEL 2
REMARK VINA RESULT: -7.025471218      2.908      4.298
REMARK  5 active torsions:
REMARK  status: ('A' for Active; 'I' for Inactive)
REMARK    1  A    between atoms: C2_2  and  C3_3
REMARK    2  A    between atoms: C3_3  and  C4_4
REMARK    3  A    between atoms: C4_4  and  N1_5
REMARK       I    between atoms: N1_5  and  C5_6
REMARK       I    between atoms: C5_6  and  N3_8
REMARK    4  A    between atoms: N3_8  and  C6_10
REMARK    5  A    between atoms: C8_12  and  C9_13
ROOT
HETATM    1  C6  UNL     1      12.009  10.315   1.034  1.00  0.00     0.125 A
HETATM    2  C7  UNL     1      10.697  10.060   1.383  1.00  0.00     0.077 A
HETATM    3  C8  UNL     1      10.690   9.755   2.726  1.00  0.00     0.039 A
HETATM    4  N4  UNL     1      11.947   9.820   3.194  1.00  0.00    -0.298 N
HETATM    5  C13 UNL     1      12.390   9.581   4.560  1.00  0.00     0.177 C
HETATM    6  N5  UNL     1      12.723  10.159   2.159  1.00  0.00    -0.283 N
ATOM      7  H5  UNL     1      13.733  10.283   2.217  1.00  0.00     0.188 HD
ENDROOT
BRANCH   1   8
HETATM    8  N3  UNL     1      12.427  10.641  -0.165  1.00  0.00    -0.304 N
HETATM    9  C5  UNL     1      13.582  11.432  -0.324  1.00  0.00     0.263 C
HETATM   10  N1  UNL     1      14.560  11.136  -0.927  1.00  0.00    -0.418 NA
HETATM   11  N2  UNL     1      13.513  12.735   0.326  1.00  0.00    -0.049 NA
ATOM     12  H3  UNL     1      11.913  10.321  -0.986  1.00  0.00     0.171 HD
BRANCH  10  13
HETATM   13  C4  UNL     1      15.534  10.577  -1.653  1.00  0.00     0.221 C
BRANCH  13  14
HETATM   14  C3  UNL     1      15.046  10.263  -3.078  1.00  0.00     0.033 C
BRANCH  14  15
HETATM   15  C2  UNL     1      15.712   8.984  -3.520  1.00  0.00    -0.002 C
HETATM   16  C1  UNL     1      16.074   9.136  -4.995  1.00  0.00     0.005 C
ENDBRANCH  14  15
ENDBRANCH  13  14
ENDBRANCH  10  13
ENDBRANCH   1   8
BRANCH   3  17
HETATM   17  C9  UNL     1       9.445   9.432   3.457  1.00  0.00    -0.007 C
HETATM   18  C10 UNL     1       8.273   9.574   2.473  1.00  0.00     0.021 C
HETATM   19  C11 UNL     1       9.357   8.014   3.947  1.00  0.00     0.021 C
HETATM   20  C12 UNL     1       9.167  10.430   4.567  1.00  0.00     0.021 C
ENDBRANCH   3  17
TORSDOF 5
ENDMDL