MODEL 4
REMARK VINA RESULT: -7.132193379      4.473      6.962
REMARK  4 active torsions:
REMARK  status: ('A' for Active; 'I' for Inactive)
REMARK    1  A    between atoms: C2_2  and  C3_3
REMARK    2  A    between atoms: C4_6  and  N2_7
REMARK       I    between atoms: N2_7  and  C5_9
REMARK    3  A    between atoms: C5_9  and  C6_11
REMARK    4  A    between atoms: C11_18  and  C12_19
ROOT
HETATM    1  C3  UNL     1      13.470  12.006   0.287  1.00  0.00     0.079 A
HETATM    2  N1  UNL     1      12.933  11.510   1.435  1.00  0.00    -0.189 N
ATOM      3  H1  UNL     1      12.439  12.065   2.133  1.00  0.00     0.184 HD
HETATM    4  C4  UNL     1      13.145  10.185   1.516  1.00  0.00     0.686 A
HETATM    5  N3  UNL     1      13.811   9.855   0.422  1.00  0.00    -0.186 N
ATOM      6  H3  UNL     1      14.116   8.907   0.202  1.00  0.00     0.184 HD
HETATM    7  C11 UNL     1      14.040  10.943  -0.377  1.00  0.00     0.121 A
ENDROOT
BRANCH   4   8
HETATM    8  N2  UNL     1      12.745   9.451   2.502  1.00  0.00    -0.159 N
HETATM    9  C5  UNL     1      12.010   9.964   3.576  1.00  0.00     0.240 C
HETATM   10  O1  UNL     1      12.547  10.036   4.704  1.00  0.00    -0.272 OA
ATOM     11  H2  UNL     1      12.974   8.458   2.497  1.00  0.00     0.187 HD
BRANCH   9  12
HETATM   12  C6  UNL     1      10.629  10.418   3.400  1.00  0.00     0.087 A
HETATM   13  C7  UNL     1       9.649  10.398   4.512  1.00  0.00     0.024 A
HETATM   14  C8  UNL     1       9.578   9.347   3.442  1.00  0.00    -0.035 A
HETATM   15  C9  UNL     1       8.517   9.477   2.366  1.00  0.00     0.015 C
HETATM   16  C10 UNL     1       9.942   7.925   3.792  1.00  0.00     0.015 C
ENDBRANCH   9  12
ENDBRANCH   4   8
BRANCH   1  17
HETATM   17  C2  UNL     1      13.439  13.392  -0.145  1.00  0.00     0.022 C
HETATM   18  C1  UNL     1      12.348  14.100   0.063  1.00  0.00     0.013 C
ENDBRANCH   1  17
BRANCH   7  19
HETATM   19  C12 UNL     1      14.749  10.908  -1.647  1.00  0.00     0.174 C
HETATM   20  C13 UNL     1      16.219  11.023  -1.753  1.00  0.00     0.098 C
HETATM   21  O2  UNL     1      14.116  10.775  -2.712  1.00  0.00    -0.291 OA
ENDBRANCH   7  19
TORSDOF 4
ENDMDL