MODEL 5
REMARK VINA RESULT: -6.424235493      2.758      3.392
REMARK  6 active torsions:
REMARK  status: ('A' for Active; 'I' for Inactive)
REMARK    1  A    between atoms: C2_2  and  N1_3
REMARK       I    between atoms: N1_3  and  C3_5
REMARK       I    between atoms: C3_5  and  N2_6
REMARK    2  A    between atoms: N2_6  and  O1_8
REMARK    3  A    between atoms: N3_10  and  C4_12
REMARK    4  A    between atoms: C4_12  and  N4_14
REMARK       I    between atoms: N4_14  and  C5_16
REMARK    5  A    between atoms: C5_16  and  C6_18
REMARK    6  A    between atoms: C6_18  and  C9_21
ROOT
HETATM    1  N1  UNL     1      13.584   7.776   1.477  1.00  0.00    -0.225 N
ATOM      2  H1  UNL     1      12.772   7.255   1.146  1.00  0.00     0.177 HD
HETATM    3  C3  UNL     1      13.437   9.141   1.756  1.00  0.00     0.700 C
HETATM    4  N2  UNL     1      13.843  10.105   0.764  1.00  0.00    -0.099 N
ATOM      5  H2  UNL     1      14.803  10.450   0.755  1.00  0.00     0.213 HD
HETATM    6  N3  UNL     1      12.963   9.640   2.843  1.00  0.00    -0.165 N
ATOM      7  H3  UNL     1      12.915  10.657   2.908  1.00  0.00     0.186 HD
ENDROOT
BRANCH   6   8
HETATM    8  C4  UNL     1      12.504   8.903   3.950  1.00  0.00     0.193 C
HETATM    9  S1  UNL     1      13.575   8.326   5.023  1.00  0.00    -0.040 SA
BRANCH   8  10
HETATM   10  N4  UNL     1      11.130   8.656   4.146  1.00  0.00    -0.303 N
HETATM   11  C5  UNL     1      10.147   9.677   4.128  1.00  0.00     0.231 C
HETATM   12  O2  UNL     1      10.479  10.873   3.931  1.00  0.00    -0.272 OA
ATOM     13  H4  UNL     1      10.829   7.696   4.308  1.00  0.00     0.171 HD
BRANCH  11  14
HETATM   14  C6  UNL     1       8.716   9.385   4.335  1.00  0.00     0.034 C
HETATM   15  C7  UNL     1       8.012   9.712   3.010  1.00  0.00     0.025 C
HETATM   16  C8  UNL     1       8.521   7.936   4.613  1.00  0.00     0.025 C
BRANCH  14  17
HETATM   17  C9  UNL     1       8.081  10.283   5.365  1.00  0.00     0.014 C
HETATM   18  C10 UNL     1       6.591  10.280   5.355  1.00  0.00     0.006 C
ENDBRANCH  14  17
ENDBRANCH  11  14
ENDBRANCH   8  10
ENDBRANCH   6   8
BRANCH   1  19
HETATM   19  C2  UNL     1      14.840   7.076   1.638  1.00  0.00     0.134 C
HETATM   20  C1  UNL     1      15.536   6.970   0.303  1.00  0.00     0.027 C
ENDBRANCH   1  19
BRANCH   4  21
HETATM   21  O1  UNL     1      13.036  10.516  -0.075  1.00  0.00    -0.276 OA
ATOM     22  H1  UNL     1      13.073  11.416  -0.377  1.00  0.00     0.245 HD
ENDBRANCH   4  21
TORSDOF 6
ENDMDL