MODEL 3
REMARK VINA RESULT: -7.534138932      1.092      1.339
REMARK  8 active torsions:
REMARK  status: ('A' for Active; 'I' for Inactive)
REMARK    1  A    between atoms: C2_2  and  C3_3
REMARK    2  A    between atoms: C3_3  and  C4_4
REMARK    3  A    between atoms: C5_5  and  C6_6
REMARK    4  A    between atoms: C6_6  and  C7_7
REMARK    5  A    between atoms: C8_8  and  C9_9
REMARK    6  A    between atoms: C13_15  and  N2_16
REMARK    7  A    between atoms: N2_16  and  C14_18
REMARK    8  A    between atoms: C14_18  and  C15_19
ROOT
HETATM    1  C9  UNL     1      11.130   8.875   2.349  1.00  0.00     0.163 A
HETATM    2  N1  UNL     1      11.470   9.145   3.608  1.00  0.00    -0.339 N
ATOM      3  H1  UNL     1      10.778   9.589   4.212  1.00  0.00     0.168 HD
HETATM    4  C10 UNL     1      12.699   8.858   4.129  1.00  0.00     0.011 A
HETATM    5  C11 UNL     1      13.050   9.168   5.529  1.00  0.00     0.068 C
HETATM    6  C12 UNL     1      13.603   8.264   3.293  1.00  0.00     0.072 A
HETATM    7  C13 UNL     1      13.279   7.972   1.987  1.00  0.00     0.104 A
HETATM    8  N4  UNL     1      12.047   8.284   1.539  1.00  0.00    -0.322 N
ATOM      9  H4  UNL     1      11.797   8.072   0.573  1.00  0.00     0.169 HD
ENDROOT
BRANCH   1  10
HETATM   10  C8  UNL     1       9.836   9.183   1.813  1.00  0.00    -0.029 C
HETATM   11  C7  UNL     1       8.733   9.464   1.365  1.00  0.00    -0.086 C
BRANCH  11  12
HETATM   12  C6  UNL     1       7.416   9.825   0.835  1.00  0.00     0.188 C
BRANCH  12  13
HETATM   13  C5  UNL     1       6.363   9.560   1.842  1.00  0.00    -0.095 C
HETATM   14  C4  UNL     1       5.494   9.353   2.652  1.00  0.00    -0.106 C
BRANCH  14  15
HETATM   15  C3  UNL     1       4.431   9.110   3.627  1.00  0.00     0.093 C
BRANCH  15  16
HETATM   16  C2  UNL     1       4.494  10.149   4.739  1.00  0.00     0.007 C
HETATM   17  C1  UNL     1       5.860  10.128   5.360  1.00  0.00     0.006 C
ENDBRANCH  15  16
ENDBRANCH  14  15
ENDBRANCH  12  13
ENDBRANCH  11  12
ENDBRANCH   1  10
BRANCH   7  18
HETATM   18  N2  UNL     1      14.107   7.416   1.184  1.00  0.00    -0.374 N
ATOM     19  H2  UNL     1      13.801   6.550   0.740  1.00  0.00     0.161 HD
BRANCH  18  20
HETATM   20  C14 UNL     1      15.412   7.881   0.844  1.00  0.00     0.155 C
BRANCH  20  21
HETATM   21  C15 UNL     1      16.070   7.066  -0.251  1.00  0.00     0.229 A
HETATM   22  C16 UNL     1      16.362   7.796  -1.508  1.00  0.00     0.267 A
HETATM   23  N3  UNL     1      15.389   6.744  -1.410  1.00  0.00    -0.066 N
ATOM     24  H32 UNL     1      15.255   5.871  -1.920  1.00  0.00     0.277 HD
ATOM     25  H31 UNL     1      14.397   6.689  -1.644  1.00  0.00     0.277 HD
ENDBRANCH  20  21
ENDBRANCH  18  20
ENDBRANCH   7  18
TORSDOF 8
ENDMDL