MODEL 5
REMARK VINA RESULT: -7.409459978      2.299      7.382
REMARK  4 active torsions:
REMARK  status: ('A' for Active; 'I' for Inactive)
REMARK       I    between atoms: C2_2  and  N1_4
REMARK    1  A    between atoms: N1_4  and  C3_6
REMARK    2  A    between atoms: C5_10  and  C6_11
REMARK    3  A    between atoms: C7_12  and  C8_13
REMARK    4  A    between atoms: C8_13  and  C9_14
ROOT
HETATM    1  C3  UNL     1      10.514   9.799   1.251  1.00  0.00     0.114 A
HETATM    2  N2  UNL     1      10.647   9.618   2.606  1.00  0.00    -0.351 N
ATOM      3  H2  UNL     1      11.582   9.619   3.014  1.00  0.00     0.166 HD
HETATM    4  C4  UNL     1       9.588   9.438   3.413  1.00  0.00     0.101 A
HETATM    5  C5  UNL     1       8.295   9.422   2.952  1.00  0.00    -0.015 A
HETATM    6  C10 UNL     1       8.121   9.603   1.595  1.00  0.00    -0.041 A
HETATM    7  C11 UNL     1       6.749   9.636   1.021  1.00  0.00     0.050 C
HETATM    8  C12 UNL     1       9.244   9.787   0.775  1.00  0.00    -0.011 A
HETATM    9  C13 UNL     1       8.993   9.937  -0.662  1.00  0.00     0.052 C
ENDROOT
BRANCH   5  10
HETATM   10  C6  UNL     1       7.213   9.208   3.897  1.00  0.00     0.010 C
HETATM   11  C7  UNL     1       6.361  10.131   4.288  1.00  0.00    -0.015 C
BRANCH  11  12
HETATM   12  C8  UNL     1       5.298   9.747   5.274  1.00  0.00     0.140 C
BRANCH  12  13
HETATM   13  C9  UNL     1       4.021   9.571   4.555  1.00  0.00     0.176 C
HETATM   14  O2  UNL     1       3.008  10.192   4.939  1.00  0.00    -0.648 OA
HETATM   15  O3  UNL     1       3.957   8.725   3.470  1.00  0.00    -0.648 OA
ENDBRANCH  12  13
ENDBRANCH  11  12
ENDBRANCH   5  10
BRANCH   1  16
HETATM   16  N1  UNL     1      11.547   9.965   0.612  1.00  0.00    -0.313 N
HETATM   17  C2  UNL     1      12.798  10.473   0.694  1.00  0.00     0.219 C
HETATM   18  C1  UNL     1      13.200  11.686  -0.078  1.00  0.00     0.117 C
HETATM   19  O1  UNL     1      13.682   9.952   1.421  1.00  0.00    -0.274 OA
ATOM     20  H1  UNL     1      11.415   9.578  -0.323  1.00  0.00     0.170 HD
ENDBRANCH   1  16
TORSDOF 4
ENDMDL