MODEL 4
REMARK VINA RESULT: -7.373337969      1.549      7.509
REMARK  5 active torsions:
REMARK  status: ('A' for Active; 'I' for Inactive)
REMARK    1  A    between atoms: C2_2  and  C4_4
REMARK    2  A    between atoms: C5_5  and  C6_6
REMARK    3  A    between atoms: N2_13  and  C10_15
REMARK    4  A    between atoms: C10_15  and  C11_16
REMARK    5  A    between atoms: C11_16  and  C12_17
ROOT
HETATM    1  C6  UNL     1       8.419   9.346   1.993  1.00  0.00     0.108 A
HETATM    2  C7  UNL     1       8.715   9.839   0.740  1.00  0.00     0.114 A
HETATM    3  C8  UNL     1       9.965   9.688   0.199  1.00  0.00     0.262 A
HETATM    4  O1  UNL     1      10.242  10.139  -0.953  1.00  0.00    -0.268 OA
HETATM    5  N1  UNL     1      10.931   9.053   0.883  1.00  0.00    -0.156 N
ATOM      6  H1  UNL     1      11.858   8.944   0.473  1.00  0.00     0.187 HD
HETATM    7  C9  UNL     1      10.678   8.567   2.094  1.00  0.00     0.685 A
HETATM    8  N2  UNL     1      11.500   7.974   2.788  1.00  0.00    -0.205 N
ATOM      9  H2  UNL     1      11.005   7.730   3.645  1.00  0.00     0.183 HD
HETATM   10  N3  UNL     1       9.419   8.726   2.622  1.00  0.00    -0.183 N
ATOM     11  H3  UNL     1       9.239   8.348   3.552  1.00  0.00     0.185 HD
ENDROOT
BRANCH   8  12
HETATM   12  C10 UNL     1      12.767   7.487   2.949  1.00  0.00     0.079 C
BRANCH  12  13
HETATM   13  C11 UNL     1      13.233   7.278   4.370  1.00  0.00     0.049 C
BRANCH  13  14
HETATM   14  C12 UNL     1      14.732   6.921   4.390  1.00  0.00    -0.018 C
HETATM   15  C13 UNL     1      15.504   8.128   4.884  1.00  0.00     0.010 C
HETATM   16  C14 UNL     1      15.195   6.562   3.018  1.00  0.00     0.010 C
ENDBRANCH  13  14
ENDBRANCH  12  13
ENDBRANCH   8  12
BRANCH   1  17
HETATM   17  C5  UNL     1       7.105   9.495   2.582  1.00  0.00    -0.048 C
HETATM   18  C4  UNL     1       6.002   9.632   3.057  1.00  0.00    -0.096 C
BRANCH  18  19
HETATM   19  C2  UNL     1       4.661   9.822   3.644  1.00  0.00     0.057 C
HETATM   20  C1  UNL     1       3.720   8.714   3.201  1.00  0.00     0.023 C
HETATM   21  C3  UNL     1       4.771   9.737   5.145  1.00  0.00     0.023 C
ENDBRANCH  18  19
ENDBRANCH   1  17
TORSDOF 5
ENDMDL