MODEL 1
REMARK VINA RESULT: -6.406764794      0.000      0.000
REMARK  5 active torsions:
REMARK  status: ('A' for Active; 'I' for Inactive)
REMARK    1  A    between atoms: C2_2  and  C3_3
REMARK    2  A    between atoms: C3_3  and  N1_4
REMARK    3  A    between atoms: N2_7  and  C6_8
REMARK    4  A    between atoms: N3_10  and  C7_12
REMARK    5  A    between atoms: C7_12  and  N4_14
ROOT
HETATM    1  C6  UNL     1       9.801   9.930   0.190  1.00  0.00     0.176 C
HETATM    2  S1  UNL     1       8.755   9.977  -1.213  1.00  0.00    -0.041 SA
HETATM    3  N3  UNL     1      11.028  10.432  -0.064  1.00  0.00    -0.310 N
ATOM      4  H3  UNL     1      11.062  10.734  -1.038  1.00  0.00     0.170 HD
ENDROOT
BRANCH   1   5
HETATM    5  N2  UNL     1       9.141   9.384   1.275  1.00  0.00    -0.355 N
HETATM    6  C5  UNL     1       9.599   8.387   2.210  1.00  0.00     0.145 C
HETATM    7  C4  UNL     1       8.477   8.128   3.245  1.00  0.00     0.141 C
HETATM    8  N1  UNL     1       8.075   9.316   3.889  1.00  0.00    -0.390 N
HETATM    9  C13 UNL     1       7.682  10.371   2.997  1.00  0.00     0.141 C
HETATM   10  C12 UNL     1       7.750   9.823   1.593  1.00  0.00     0.145 C
BRANCH   8  11
HETATM   11  C3  UNL     1       7.416   9.191   5.108  1.00  0.00     0.058 C
BRANCH  11  12
HETATM   12  C2  UNL     1       6.654  10.337   5.657  1.00  0.00     0.040 C
HETATM   13  C1  UNL     1       5.165  10.207   5.670  1.00  0.00     0.010 C
ENDBRANCH  11  12
ENDBRANCH   8  11
ENDBRANCH   1   5
BRANCH   3  14
HETATM   14  C7  UNL     1      12.256  10.685   0.522  1.00  0.00     0.177 C
HETATM   15  S2  UNL     1      13.535  11.329  -0.231  1.00  0.00    -0.041 SA
BRANCH  14  16
HETATM   16  N4  UNL     1      12.467  10.373   1.937  1.00  0.00    -0.331 N
HETATM   17  C8  UNL     1      12.010  11.140   3.038  1.00  0.00     0.157 C
HETATM   18  C9  UNL     1      12.232  10.261   4.239  1.00  0.00     0.294 C
HETATM   19  N5  UNL     1      13.350   9.431   3.838  1.00  0.00     0.103 N
HETATM   20  C10 UNL     1      13.343   8.143   4.482  1.00  0.00     0.312 C
HETATM   21  C11 UNL     1      13.189   9.225   2.402  1.00  0.00     0.399 C
ENDBRANCH  14  16
ENDBRANCH   3  14
TORSDOF 5
ENDMDL