MODEL 3
REMARK VINA RESULT: -7.627040105      2.688      9.371
REMARK  4 active torsions:
REMARK  status: ('A' for Active; 'I' for Inactive)
REMARK    1  A    between atoms: C4_4  and  C5_5
REMARK    2  A    between atoms: C6_6  and  C7_7
REMARK    3  A    between atoms: C7_7  and  N1_9
REMARK       I    between atoms: N1_9  and  C9_11
REMARK       I    between atoms: C9_11  and  N2_13
REMARK    4  A    between atoms: N3_16  and  C12_17
ROOT
HETATM    1  C1  UNL     1      18.619   9.381  -3.778  1.00  0.00     0.027 C
HETATM    2  C2  UNL     1      17.762   9.823  -3.053  1.00  0.00    -0.025 C
HETATM    3  C3  UNL     1      16.755  10.326  -2.193  1.00  0.00    -0.002 C
HETATM    4  C4  UNL     1      15.908  10.770  -1.454  1.00  0.00    -0.001 C
ENDROOT
BRANCH   4   5
HETATM    5  C5  UNL     1      14.929  11.307  -0.580  1.00  0.00    -0.012 C
HETATM    6  C6  UNL     1      14.107  11.767   0.176  1.00  0.00    -0.067 C
BRANCH   6   7
HETATM    7  C7  UNL     1      13.132  12.338   1.101  1.00  0.00     0.163 C
HETATM    8  C8  UNL     1      12.692  13.678   0.548  1.00  0.00     0.046 C
BRANCH   7   9
HETATM    9  N1  UNL     1      12.034  11.424   1.255  1.00  0.00    -0.328 N
HETATM   10  C9  UNL     1      12.057  10.301   2.108  1.00  0.00     0.319 C
HETATM   11  O1  UNL     1      13.118  10.104   2.769  1.00  0.00    -0.247 OA
HETATM   12  N2  UNL     1      10.972   9.407   2.255  1.00  0.00    -0.331 N
HETATM   13  C10 UNL     1       9.739   9.582   1.523  1.00  0.00     0.147 C
HETATM   14  C18 UNL     1      11.050   8.273   3.152  1.00  0.00     0.147 C
HETATM   15  C11 UNL     1       8.648   8.700   2.042  1.00  0.00     0.137 C
HETATM   16  N3  UNL     1       8.642   8.454   3.436  1.00  0.00    -0.405 N
HETATM   17  C17 UNL     1       9.888   8.427   4.113  1.00  0.00     0.137 C
ATOM     18  H1  UNL     1      11.187  11.597   0.714  1.00  0.00     0.165 HD
BRANCH  16  19
HETATM   19  C12 UNL     1       7.532   8.956   4.175  1.00  0.00     0.083 C
HETATM   20  C13 UNL     1       7.991   9.415   5.567  1.00  0.00     0.051 C
HETATM   21  C14 UNL     1       7.041  10.519   6.004  1.00  0.00     0.169 C
HETATM   22  O2  UNL     1       5.718  10.222   5.628  1.00  0.00    -0.391 OA
HETATM   23  C15 UNL     1       5.568  10.420   4.246  1.00  0.00     0.169 C
HETATM   24  C16 UNL     1       6.863  10.133   3.523  1.00  0.00     0.051 C
ENDBRANCH  16  19
ENDBRANCH   7   9
ENDBRANCH   6   7
ENDBRANCH   4   5
TORSDOF 4
ENDMDL