MODEL 2
REMARK VINA RESULT: -7.861566807      3.902      5.896
REMARK  3 active torsions:
REMARK  status: ('A' for Active; 'I' for Inactive)
REMARK    1  A    between atoms: C1_2  and  C2_3
REMARK       I    between atoms: C1_2  and  N1_6
REMARK    2  A    between atoms: C11_13  and  O2_14
REMARK       I    between atoms: N2_16  and  C12_17
REMARK    3  A    between atoms: C12_17  and  C13_19
ROOT
HETATM    1  O1  UNL     1      16.383   7.577  -2.575  1.00  0.00    -0.273 OA
HETATM    2  C1  UNL     1      16.844   8.488  -1.805  1.00  0.00     0.226 C
HETATM    3  N1  UNL     1      16.738   8.280  -0.419  1.00  0.00    -0.321 N
HETATM    4  C5  UNL     1      16.133   7.063   0.078  1.00  0.00     0.153 C
HETATM    5  C6  UNL     1      15.449   7.231   1.418  1.00  0.00     0.106 C
HETATM    6  C7  UNL     1      16.311   6.843   2.565  1.00  0.00     0.027 C
HETATM    7  C8  UNL     1      16.884   7.895   3.412  1.00  0.00     0.004 C
HETATM    8  C9  UNL     1      16.808   9.290   2.969  1.00  0.00     0.030 C
HETATM    9  C10 UNL     1      16.185   9.524   1.626  1.00  0.00     0.136 C
HETATM   10  C11 UNL     1      17.211   9.230   0.561  1.00  0.00     0.245 C
HETATM   11  N2  UNL     1      15.043   8.599   1.562  1.00  0.00    -0.337 N
HETATM   12  C12 UNL     1      13.713   9.079   1.641  1.00  0.00     0.225 C
HETATM   13  O3  UNL     1      13.571  10.323   1.781  1.00  0.00    -0.273 OA
ENDROOT
BRANCH  12  14
HETATM   14  C13 UNL     1      12.499   8.230   1.569  1.00  0.00     0.078 C
HETATM   15  C14 UNL     1      11.387   9.064   1.026  1.00  0.00     0.014 C
HETATM   16  C15 UNL     1      10.171   9.021   1.960  1.00  0.00     0.001 C
HETATM   17  C16 UNL     1      10.665   9.533   3.277  1.00  0.00     0.000 C
HETATM   18  C17 UNL     1      11.524   8.460   3.886  1.00  0.00     0.001 C
HETATM   19  C18 UNL     1      12.228   7.603   2.895  1.00  0.00     0.014 C
ENDBRANCH  12  14
BRANCH  10  20
HETATM   20  O2  UNL     1      18.361   8.659   1.134  1.00  0.00    -0.374 OA
ATOM     21  H2  UNL     1      18.077   8.253   1.945  1.00  0.00     0.212 HD
ENDBRANCH  10  20
BRANCH   2  22
HETATM   22  C2  UNL     1      17.431   9.649  -2.492  1.00  0.00     0.078 A
HETATM   23  C3  UNL     1      18.941   9.660  -2.721  1.00  0.00     0.015 A
HETATM   24  C4  UNL     1      18.030   9.404  -3.838  1.00  0.00     0.015 A
ENDBRANCH   2  22
TORSDOF 3
ENDMDL