MODEL 3
REMARK VINA RESULT: -7.472256382      3.229      8.465
REMARK  3 active torsions:
REMARK  status: ('A' for Active; 'I' for Inactive)
REMARK       I    between atoms: C2_4  and  N2_5
REMARK       I    between atoms: C2_4  and  N3_12
REMARK    1  A    between atoms: N2_5  and  C3_7
REMARK    2  A    between atoms: C10_15  and  C11_16
REMARK    3  A    between atoms: C11_16  and  N4_18
ROOT
HETATM    1  C1  UNL     1      13.739  13.323   0.003  1.00  0.00     0.165 C
HETATM    2  N1  UNL     1      14.535  12.294  -0.613  1.00  0.00    -0.231 N
ATOM      3  H1  UNL     1      15.309  12.559  -1.222  1.00  0.00     0.177 HD
HETATM    4  C2  UNL     1      14.290  11.037  -0.411  1.00  0.00     0.671 C
HETATM    5  N2  UNL     1      15.124  10.098  -1.058  1.00  0.00    -0.222 N
ATOM      6  H2  UNL     1      15.077   9.112  -0.802  1.00  0.00     0.178 HD
HETATM    7  N3  UNL     1      13.226  10.617   0.429  1.00  0.00    -0.217 N
HETATM    8  C8  UNL     1      11.836  10.596   0.032  1.00  0.00     0.142 C
HETATM    9  C9  UNL     1      11.080  10.218   1.330  1.00  0.00     0.034 C
HETATM   10  C10 UNL     1      12.134   9.312   1.940  1.00  0.00     0.067 C
HETATM   11  C16 UNL     1      13.378  10.151   1.800  1.00  0.00     0.152 C
ENDROOT
BRANCH   5  12
HETATM   12  C3  UNL     1      16.040  10.533  -2.078  1.00  0.00     0.099 C
HETATM   13  C4  UNL     1      15.675   9.880  -3.372  1.00  0.00     0.026 C
HETATM   14  C5  UNL     1      16.848   9.028  -3.752  1.00  0.00     0.002 C
HETATM   15  C6  UNL     1      18.024   9.668  -3.069  1.00  0.00     0.002 C
HETATM   16  C7  UNL     1      17.458  10.119  -1.756  1.00  0.00     0.026 C
ENDBRANCH   5  12
BRANCH  10  17
HETATM   17  C11 UNL     1      11.844   8.777   3.247  1.00  0.00     0.081 C
HETATM   18  S1  UNL     1      13.092   7.919   3.960  1.00  0.00    -0.065 SA
BRANCH  17  19
HETATM   19  N4  UNL     1      10.682   8.867   4.012  1.00  0.00    -0.371 N
HETATM   20  C12 UNL     1      10.429   9.881   4.997  1.00  0.00     0.149 C
HETATM   21  C13 UNL     1       9.283   9.394   5.881  1.00  0.00     0.187 C
HETATM   22  O1  UNL     1       8.096   9.250   5.180  1.00  0.00    -0.388 OA
HETATM   23  C14 UNL     1       8.263   8.624   3.961  1.00  0.00     0.187 C
HETATM   24  C15 UNL     1       9.582   7.891   3.862  1.00  0.00     0.149 C
ENDBRANCH  17  19
ENDBRANCH  10  17
TORSDOF 3
ENDMDL