MODEL 4
REMARK VINA RESULT: -8.034877006      3.359      8.745
REMARK  2 active torsions:
REMARK  status: ('A' for Active; 'I' for Inactive)
REMARK    1  A    between atoms: C5_5  and  C6_6
REMARK       I    between atoms: C6_6  and  N1_8
REMARK    2  A    between atoms: N1_8  and  C7_10
REMARK       I    between atoms: N2_13  and  C10_14
REMARK       I    between atoms: C10_14  and  N3_16
ROOT
HETATM    1  C1  UNL     1      14.982   6.217  -4.827  1.00  0.00     0.012 C
HETATM    2  C2  UNL     1      15.601   7.251  -4.719  1.00  0.00    -0.113 C
HETATM    3  C3  UNL     1      16.364   8.475  -4.585  1.00  0.00     0.066 C
HETATM    4  C4  UNL     1      17.304   8.408  -3.381  1.00  0.00     0.031 C
HETATM    5  C5  UNL     1      16.950   9.852  -3.104  1.00  0.00     0.080 C
HETATM    6  C17 UNL     1      15.638   9.598  -3.855  1.00  0.00     0.031 C
ENDROOT
BRANCH   5   7
HETATM    7  C6  UNL     1      16.772  10.185  -1.675  1.00  0.00     0.222 C
HETATM    8  O1  UNL     1      17.484  11.129  -1.218  1.00  0.00    -0.273 OA
HETATM    9  N1  UNL     1      15.852   9.473  -0.879  1.00  0.00    -0.356 N
ATOM     10  H1  UNL     1      15.312   8.724  -1.312  1.00  0.00     0.162 HD
BRANCH   9  11
HETATM   11  C7  UNL     1      15.637   9.755   0.523  1.00  0.00     0.087 C
HETATM   12  C8  UNL     1      14.917   8.587   1.172  1.00  0.00     0.045 C
HETATM   13  C9  UNL     1      13.856   9.050   2.120  1.00  0.00     0.129 C
HETATM   14  N2  UNL     1      12.827   9.754   1.348  1.00  0.00    -0.334 N
HETATM   15  C10 UNL     1      11.489   9.442   1.610  1.00  0.00     0.320 C
HETATM   16  C15 UNL     1      13.330  10.710   0.383  1.00  0.00     0.129 C
HETATM   17  O2  UNL     1      11.305   8.549   2.530  1.00  0.00    -0.247 OA
HETATM   18  N3  UNL     1      10.333   9.941   1.038  1.00  0.00    -0.330 N
HETATM   19  C11 UNL     1       9.021   9.461   1.476  1.00  0.00     0.153 C
HETATM   20  C14 UNL     1      10.314  10.934   0.004  1.00  0.00     0.153 C
HETATM   21  C12 UNL     1       8.233   8.912   0.305  1.00  0.00     0.187 C
HETATM   22  O3  UNL     1       8.398   9.703  -0.832  1.00  0.00    -0.388 OA
HETATM   23  C13 UNL     1       8.858  10.977  -0.501  1.00  0.00     0.187 C
HETATM   24  C16 UNL     1      14.798  10.977   0.745  1.00  0.00     0.045 C
ENDBRANCH   9  11
ENDBRANCH   5   7
TORSDOF 2
ENDMDL