MODEL 1
REMARK VINA RESULT: -7.816754198      0.000      0.000
REMARK  3 active torsions:
REMARK  status: ('A' for Active; 'I' for Inactive)
REMARK       I    between atoms: C1_2  and  N1_3
REMARK       I    between atoms: C1_2  and  N2_8
REMARK       I    between atoms: N3_11  and  C8_12
REMARK    1  A    between atoms: C8_12  and  C9_14
REMARK    2  A    between atoms: C9_14  and  C10_15
REMARK    3  A    between atoms: C10_15  and  O3_16
ROOT
HETATM    1  O1  UNL     1      14.619   9.935   0.120  1.00  0.00    -0.247 OA
HETATM    2  C1  UNL     1      13.921  10.849   0.710  1.00  0.00     0.320 C
HETATM    3  N1  UNL     1      13.746  12.064   0.063  1.00  0.00    -0.334 N
HETATM    4  C2  UNL     1      14.339  12.336  -1.280  1.00  0.00     0.127 C
HETATM    5  C3  UNL     1      14.776  13.774  -1.105  1.00  0.00     0.022 C
HETATM    6  C4  UNL     1      13.483  14.357  -0.552  1.00  0.00     0.022 C
HETATM    7  C5  UNL     1      13.046  13.259   0.412  1.00  0.00     0.127 C
HETATM    8  N2  UNL     1      13.410  10.489   1.960  1.00  0.00    -0.331 N
HETATM    9  C6  UNL     1      13.667   9.140   2.519  1.00  0.00     0.147 C
HETATM   10  C7  UNL     1      12.321   8.523   2.724  1.00  0.00     0.145 C
HETATM   11  N3  UNL     1      11.536   9.339   3.691  1.00  0.00    -0.348 N
HETATM   12  C8  UNL     1      10.332   8.806   4.201  1.00  0.00     0.230 C
HETATM   13  O2  UNL     1      10.015   7.628   3.792  1.00  0.00    -0.272 OA
HETATM   14  C16 UNL     1      12.130  10.608   4.008  1.00  0.00     0.145 C
HETATM   15  C17 UNL     1      12.627  11.369   2.774  1.00  0.00     0.147 C
ENDROOT
BRANCH  12  16
HETATM   16  C9  UNL     1       9.414   9.441   5.136  1.00  0.00     0.062 C
HETATM   17  C11 UNL     1       8.873  10.747   4.548  1.00  0.00     0.021 C
HETATM   18  C12 UNL     1       7.957  10.547   3.390  1.00  0.00     0.001 C
HETATM   19  C13 UNL     1       6.829   9.599   3.731  1.00  0.00     0.000 C
HETATM   20  C14 UNL     1       6.914   9.120   5.161  1.00  0.00     0.001 C
HETATM   21  C15 UNL     1       8.275   8.514   5.461  1.00  0.00     0.021 C
BRANCH  16  22
HETATM   22  C10 UNL     1      10.134   9.878   6.414  1.00  0.00     0.183 C
BRANCH  22  23
HETATM   23  O3  UNL     1       9.638   9.138   7.516  1.00  0.00    -0.400 OA
ATOM     24  H3  UNL     1      10.176   8.367   7.649  1.00  0.00     0.209 HD
ENDBRANCH  22  23
ENDBRANCH  16  22
ENDBRANCH  12  16
TORSDOF 3
ENDMDL