MODEL 2
REMARK VINA RESULT: -8.001558258      1.545      1.799
REMARK  3 active torsions:
REMARK  status: ('A' for Active; 'I' for Inactive)
REMARK       I    between atoms: C1_2  and  N2_4
REMARK    1  A    between atoms: N3_12  and  C9_13
REMARK    2  A    between atoms: C9_13  and  O2_14
REMARK    3  A    between atoms: C10_16  and  N4_17
ROOT
HETATM    1  N1  UNL     1      19.072  10.785   0.708  1.00  0.00    -0.040 NA
HETATM    2  C1  UNL     1      17.997  10.159   0.035  1.00  0.00     0.330 C
HETATM    3  O1  UNL     1      17.875  10.357  -1.208  1.00  0.00    -0.251 OA
HETATM    4  N2  UNL     1      17.052   9.327   0.673  1.00  0.00    -0.336 N
HETATM    5  C2  UNL     1      17.145   9.075   2.095  1.00  0.00     0.128 C
HETATM    6  C3  UNL     1      15.736   9.229   2.644  1.00  0.00     0.029 C
HETATM    7  C4  UNL     1      14.902   8.099   2.133  1.00  0.00    -0.035 C
HETATM    8  C5  UNL     1      15.560   7.518   0.899  1.00  0.00     0.029 C
HETATM    9  C6  UNL     1      15.960   8.682  -0.020  1.00  0.00     0.128 C
HETATM   10  C7  UNL     1      13.531   8.583   1.654  1.00  0.00     0.029 C
HETATM   11  C8  UNL     1      12.434   8.048   2.588  1.00  0.00     0.125 C
HETATM   12  N3  UNL     1      12.915   8.480   3.925  1.00  0.00    -0.361 N
HETATM   13  C16 UNL     1      14.000   7.680   4.411  1.00  0.00     0.125 C
HETATM   14  C17 UNL     1      14.743   7.085   3.220  1.00  0.00     0.029 C
ENDROOT
BRANCH  12  15
HETATM   15  C9  UNL     1      12.328   9.601   4.523  1.00  0.00     0.148 C
HETATM   16  C10 UNL     1      10.999   9.885   4.972  1.00  0.00     0.115 C
BRANCH  15  17
HETATM   17  O2  UNL     1      13.149  10.623   4.731  1.00  0.00    -0.345 OA
ATOM     18  H2  UNL     1      13.326  11.159   3.967  1.00  0.00     0.219 HD
ENDBRANCH  15  17
BRANCH  16  19
HETATM   19  N4  UNL     1       9.927   8.964   4.744  1.00  0.00    -0.289 NA
HETATM   20  C11 UNL     1       9.029   9.008   5.893  1.00  0.00     0.095 C
HETATM   21  C12 UNL     1       7.593   8.794   5.497  1.00  0.00     0.015 C
HETATM   22  C13 UNL     1       7.199  10.128   4.841  1.00  0.00     0.002 C
HETATM   23  C14 UNL     1       8.100  10.277   3.669  1.00  0.00     0.015 C
HETATM   24  C15 UNL     1       9.193   9.273   3.528  1.00  0.00     0.095 C
ENDBRANCH  16  19
ENDBRANCH  12  15
TORSDOF 3
ENDMDL