MODEL 1
REMARK VINA RESULT: -8.235786114      0.000      0.000
REMARK  3 active torsions:
REMARK  status: ('A' for Active; 'I' for Inactive)
REMARK    1  A    between atoms: N2_8  and  C7_9
REMARK    2  A    between atoms: C7_9  and  C8_10
REMARK       I    between atoms: C8_10  and  N3_12
REMARK    3  A    between atoms: N3_12  and  C9_14
ROOT
HETATM    1  C8  UNL     1      12.316   7.610   3.412  1.00  0.00     0.246 C
HETATM    2  O1  UNL     1      11.730   7.283   2.365  1.00  0.00    -0.272 OA
HETATM    3  N3  UNL     1      11.669   8.421   4.367  1.00  0.00    -0.355 N
ATOM      4  H3  UNL     1      12.211   8.647   5.201  1.00  0.00     0.162 HD
ENDROOT
BRANCH   1   5
HETATM    5  C7  UNL     1      13.685   7.167   3.676  1.00  0.00     0.374 C
BRANCH   5   6
HETATM    6  N2  UNL     1      14.629   7.287   2.593  1.00  0.00     0.099 N
HETATM    7  C6  UNL     1      14.704   8.639   2.108  1.00  0.00     0.308 C
HETATM    8  C5  UNL     1      16.009   9.319   2.178  1.00  0.00     0.251 C
HETATM    9  N1  UNL     1      16.831   8.884   1.067  1.00  0.00     0.091 N
HETATM   10  C4  UNL     1      16.822   8.859   3.382  1.00  0.00     0.045 C
HETATM   11  C1  UNL     1      17.576   9.951   0.488  1.00  0.00     0.310 C
HETATM   12  C2  UNL     1      17.606   7.768   1.495  1.00  0.00     0.279 C
HETATM   13  C3  UNL     1      17.099   7.425   2.901  1.00  0.00     0.044 C
HETATM   14  C19 UNL     1      15.858   6.623   2.780  1.00  0.00     0.279 C
ENDBRANCH   5   6
ENDBRANCH   1   5
BRANCH   3  15
HETATM   15  C9  UNL     1      10.348   8.964   4.310  1.00  0.00     0.088 C
HETATM   16  C10 UNL     1      10.213  10.126   5.234  1.00  0.00     0.030 C
HETATM   17  C11 UNL     1       8.954  10.924   5.022  1.00  0.00    -0.012 C
HETATM   18  C12 UNL     1       8.238  10.660   3.740  1.00  0.00     0.010 C
HETATM   19  C18 UNL     1       7.924  10.465   6.041  1.00  0.00     0.010 C
HETATM   20  C13 UNL     1       7.495   9.379   3.919  1.00  0.00    -0.010 C
HETATM   21  C14 UNL     1       8.193   8.162   3.379  1.00  0.00     0.011 C
HETATM   22  C17 UNL     1       7.410   9.192   5.418  1.00  0.00    -0.010 C
HETATM   23  C15 UNL     1       9.263   7.942   4.462  1.00  0.00     0.009 C
HETATM   24  C16 UNL     1       8.433   8.111   5.708  1.00  0.00     0.011 C
ENDBRANCH   3  15
TORSDOF 3
ENDMDL