MODEL 2
REMARK VINA RESULT: -8.551127706      1.935      2.274
REMARK  2 active torsions:
REMARK  status: ('A' for Active; 'I' for Inactive)
REMARK    1  A    between atoms: C1_2  and  C2_3
REMARK       I    between atoms: C1_2  and  N1_8
REMARK       I    between atoms: N2_12  and  C10_13
REMARK    2  A    between atoms: C10_13  and  C11_15
ROOT
HETATM    1  O1  UNL     1       7.622   8.316   5.657  1.00  0.00    -0.273 OA
HETATM    2  C1  UNL     1       7.938   9.343   4.981  1.00  0.00     0.224 C
HETATM    3  N1  UNL     1       9.211   9.383   4.379  1.00  0.00    -0.351 N
HETATM    4  C7  UNL     1       9.736  10.475   3.575  1.00  0.00     0.132 C
HETATM    5  C8  UNL     1      11.164  10.149   3.527  1.00  0.00     0.029 C
HETATM    6  C9  UNL     1      11.985  10.472   2.359  1.00  0.00     0.132 C
HETATM    7  N2  UNL     1      12.964   9.369   2.392  1.00  0.00    -0.351 N
HETATM    8  C10 UNL     1      14.175   9.375   1.645  1.00  0.00     0.224 C
HETATM    9  O2  UNL     1      14.446  10.367   0.902  1.00  0.00    -0.273 OA
HETATM   10  C16 UNL     1      12.489   8.318   3.280  1.00  0.00     0.132 C
HETATM   11  C17 UNL     1      11.035   8.621   3.285  1.00  0.00     0.029 C
HETATM   12  C18 UNL     1      10.222   8.305   4.465  1.00  0.00     0.132 C
ENDROOT
BRANCH   8  13
HETATM   13  C11 UNL     1      15.173   8.264   1.678  1.00  0.00     0.081 C
HETATM   14  C12 UNL     1      15.860   8.205   0.362  1.00  0.00     0.041 C
HETATM   15  C13 UNL     1      17.302   7.883   0.349  1.00  0.00     0.233 C
HETATM   16  N3  UNL     1      18.018   8.353   1.521  1.00  0.00    -0.075 N
HETATM   17  C14 UNL     1      17.373   7.714   2.654  1.00  0.00     0.233 C
ATOM     18  H32 UNL     1      19.025   8.192   1.478  1.00  0.00     0.277 HD
ATOM     19  H31 UNL     1      18.061   9.369   1.595  1.00  0.00     0.277 HD
HETATM   20  C15 UNL     1      16.059   8.477   2.866  1.00  0.00     0.041 C
ENDBRANCH   8  13
BRANCH   2  21
HETATM   21  C2  UNL     1       6.921  10.409   4.896  1.00  0.00     0.078 C
HETATM   22  C3  UNL     1       5.948  10.454   6.014  1.00  0.00     0.014 C
HETATM   23  C4  UNL     1       4.606  10.639   5.374  1.00  0.00     0.001 C
HETATM   24  C5  UNL     1       4.725   9.936   4.054  1.00  0.00     0.001 C
HETATM   25  C6  UNL     1       6.135  10.314   3.592  1.00  0.00     0.014 C
ENDBRANCH   2  21
TORSDOF 2
ENDMDL