MODEL 1
REMARK VINA RESULT: -7.015563134      0.000      0.000
REMARK  2 active torsions:
REMARK  status: ('A' for Active; 'I' for Inactive)
REMARK    1  A    between atoms: O1_2  and  N1_3
REMARK       I    between atoms: N1_3  and  C3_5
REMARK       I    between atoms: C3_5  and  N2_7
REMARK    2  A    between atoms: N2_7  and  C4_9
ROOT
HETATM    1  C4  UNL     1      27.354  22.260   8.343  1.00  0.00     0.123 C
HETATM    2  C5  UNL     1      26.636  21.451   7.315  1.00  0.00     0.025 C
HETATM    3  C6  UNL     1      26.063  20.158   7.889  1.00  0.00     0.014 C
HETATM    4  C7  UNL     1      25.503  22.270   6.800  1.00  0.00     0.133 C
HETATM    5  N3  UNL     1      25.490  23.505   7.527  1.00  0.00    -0.334 N
HETATM    6  C8  UNL     1      24.731  24.679   7.340  1.00  0.00     0.243 C
HETATM    7  O3  UNL     1      23.571  24.631   6.843  1.00  0.00    -0.271 OA
HETATM    8  C9  UNL     1      25.272  26.003   7.722  1.00  0.00     0.175 C
HETATM    9  C10 UNL     1      24.442  26.674   8.786  1.00  0.00     0.042 C
HETATM   10  N4  UNL     1      26.672  25.907   8.121  1.00  0.00    -0.342 N
HETATM   11  C11 UNL     1      27.520  27.064   7.935  1.00  0.00     0.153 C
HETATM   12  C12 UNL     1      27.187  24.703   8.680  1.00  0.00     0.245 C
HETATM   13  O4  UNL     1      28.327  24.801   9.238  1.00  0.00    -0.271 OA
HETATM   14  C13 UNL     1      26.432  23.431   8.608  1.00  0.00     0.202 C
ENDROOT
BRANCH   1  15
HETATM   15  N2  UNL     1      28.623  22.653   7.790  1.00  0.00    -0.334 N
HETATM   16  C3  UNL     1      29.745  21.781   7.755  1.00  0.00     0.342 C
HETATM   17  N1  UNL     1      30.979  22.175   7.213  1.00  0.00    -0.213 N
HETATM   18  O2  UNL     1      29.592  20.613   8.238  1.00  0.00    -0.245 OA
HETATM   19  C2  UNL     1      31.217  23.472   6.652  1.00  0.00     0.190 C
ATOM     20  H2  UNL     1      28.722  23.593   7.409  1.00  0.00     0.164 HD
BRANCH  17  21
HETATM   21  O1  UNL     1      32.004  21.298   7.212  1.00  0.00    -0.279 OA
HETATM   22  C1  UNL     1      32.687  21.224   6.023  1.00  0.00     0.238 C
ENDBRANCH  17  21
ENDBRANCH   1  15
TORSDOF 2
ENDMDL