MODEL 5
REMARK VINA RESULT: -6.271548276      2.535      3.216
REMARK  4 active torsions:
REMARK  status: ('A' for Active; 'I' for Inactive)
REMARK       I    between atoms: C2_2  and  N1_4
REMARK    1  A    between atoms: N1_4  and  C3_6
REMARK    2  A    between atoms: C4_10  and  N3_11
REMARK       I    between atoms: N3_11  and  C5_13
REMARK    3  A    between atoms: C5_13  and  C6_15
REMARK    4  A    between atoms: C6_15  and  N4_16
ROOT
HETATM    1  C3  UNL     1      27.419  25.716   9.726  1.00  0.00     0.099 A
HETATM    2  S1  UNL     1      27.698  25.098  11.336  1.00  0.00     0.006 SA
HETATM    3  N2  UNL     1      29.254  24.560  11.574  1.00  0.00    -0.311 N
ATOM      4  H2  UNL     1      29.549  24.175  12.471  1.00  0.00     0.176 HD
HETATM    5  C4  UNL     1      30.107  24.650  10.543  1.00  0.00     0.114 A
HETATM    6  C10 UNL     1      29.768  25.159   9.317  1.00  0.00     0.058 A
HETATM    7  C11 UNL     1      28.543  25.649   8.932  1.00  0.00    -0.023 A
HETATM    8  C12 UNL     1      28.428  26.155   7.511  1.00  0.00     0.051 C
ENDROOT
BRANCH   5   9
HETATM    9  N3  UNL     1      31.335  24.220  10.746  1.00  0.00    -0.311 N
HETATM   10  C5  UNL     1      32.149  24.754  11.779  1.00  0.00     0.249 C
HETATM   11  O2  UNL     1      31.999  24.351  12.961  1.00  0.00    -0.271 OA
ATOM     12  H3  UNL     1      31.709  23.485  10.146  1.00  0.00     0.170 HD
BRANCH  10  13
HETATM   13  C6  UNL     1      33.174  25.787  11.455  1.00  0.00     0.338 C
BRANCH  13  14
HETATM   14  N4  UNL     1      34.500  25.253  11.444  1.00  0.00    -0.070 N
HETATM   15  C7  UNL     1      35.327  26.185  10.672  1.00  0.00     0.272 C
HETATM   16  C8  UNL     1      35.094  25.191  12.766  1.00  0.00     0.272 C
HETATM   17  C9  UNL     1      34.539  23.983  10.790  1.00  0.00     0.272 C
ENDBRANCH  13  14
ENDBRANCH  10  13
ENDBRANCH   5   9
BRANCH   1  18
HETATM   18  N1  UNL     1      26.287  26.156   9.397  1.00  0.00    -0.320 N
HETATM   19  C2  UNL     1      25.165  25.849   8.722  1.00  0.00     0.218 C
HETATM   20  C1  UNL     1      24.877  26.519   7.398  1.00  0.00     0.117 C
HETATM   21  O1  UNL     1      24.284  25.032   9.082  1.00  0.00    -0.274 OA
ATOM     22  H1  UNL     1      26.180  27.093   9.787  1.00  0.00     0.169 HD
ENDBRANCH   1  18
TORSDOF 4
ENDMDL