MODEL 4
REMARK VINA RESULT: -6.388145074      5.217      7.596
REMARK  4 active torsions:
REMARK  status: ('A' for Active; 'I' for Inactive)
REMARK       I    between atoms: N1_2  and  C2_4
REMARK    1  A    between atoms: C2_4  and  C3_6
REMARK       I    between atoms: C3_6  and  N2_8
REMARK    2  A    between atoms: C9_14  and  C10_15
REMARK    3  A    between atoms: C10_15  and  O3_16
REMARK    4  A    between atoms: C10_15  and  N3_18
ROOT
HETATM    1  C3  UNL     1      33.526  21.620   9.578  1.00  0.00     0.312 C
HETATM    2  O2  UNL     1      34.273  22.663   9.720  1.00  0.00    -0.262 OA
HETATM    3  N2  UNL     1      33.929  20.403  10.169  1.00  0.00    -0.331 N
HETATM    4  C4  UNL     1      33.142  19.208   9.974  1.00  0.00     0.137 C
HETATM    5  C5  UNL     1      33.909  17.972  10.408  1.00  0.00    -0.020 C
HETATM    6  C6  UNL     1      33.195  16.693  10.213  1.00  0.00     0.018 C
HETATM    7  C7  UNL     1      34.464  18.085  11.812  1.00  0.00     0.019 C
HETATM    8  C8  UNL     1      35.588  18.904  11.160  1.00  0.00     0.026 C
HETATM    9  C9  UNL     1      35.099  20.342  10.957  1.00  0.00     0.167 C
HETATM   10  C13 UNL     1      35.350  18.040   9.943  1.00  0.00    -0.033 C
HETATM   11  C14 UNL     1      35.608  18.656   8.625  1.00  0.00     0.016 C
HETATM   12  C15 UNL     1      36.015  16.693  10.110  1.00  0.00     0.016 C
ENDROOT
BRANCH   1  13
HETATM   13  C2  UNL     1      32.332  21.859   8.799  1.00  0.00     0.309 C
HETATM   14  N1  UNL     1      31.052  22.045   9.383  1.00  0.00    -0.357 N
HETATM   15  C1  UNL     1      29.881  22.282   8.575  1.00  0.00     0.149 C
ATOM     16  H1  UNL     1      30.957  22.009  10.398  1.00  0.00     0.162 HD
HETATM   17  O1  UNL     1      32.408  21.910   7.554  1.00  0.00    -0.262 OA
ENDBRANCH   1  13
BRANCH   9  18
HETATM   18  C10 UNL     1      35.135  20.975  12.261  1.00  0.00     0.136 C
BRANCH  18  19
HETATM   19  O3  UNL     1      36.324  20.855  12.776  1.00  0.00    -0.348 OA
ATOM     20  H3  UNL     1      36.970  21.232  12.189  1.00  0.00     0.219 HD
ENDBRANCH  18  19
BRANCH  18  21
HETATM   21  N3  UNL     1      34.220  21.646  13.041  1.00  0.00    -0.372 N
HETATM   22  C11 UNL     1      34.263  23.011  13.524  1.00  0.00     0.150 C
HETATM   23  C12 UNL     1      33.000  20.934  13.495  1.00  0.00     0.150 C
ENDBRANCH  18  21
ENDBRANCH   9  18
TORSDOF 4
ENDMDL