MODEL 3
REMARK VINA RESULT: -6.988625585      2.356      5.912
REMARK  2 active torsions:
REMARK  status: ('A' for Active; 'I' for Inactive)
REMARK    1  A    between atoms: C2_2  and  N1_3
REMARK       I    between atoms: N1_3  and  C3_5
REMARK    2  A    between atoms: C3_5  and  C4_7
REMARK       I    between atoms: N2_12  and  C9_13
REMARK       I    between atoms: N3_19  and  C14_20
ROOT
HETATM    1  C4  UNL     1      30.570  24.633   8.421  1.00  0.00     0.183 C
HETATM    2  C5  UNL     1      29.121  24.530   8.096  1.00  0.00     0.027 C
HETATM    3  C6  UNL     1      28.462  25.784   7.638  1.00  0.00     0.032 C
HETATM    4  C7  UNL     1      26.975  25.575   7.646  1.00  0.00     0.083 C
HETATM    5  C8  UNL     1      26.253  26.561   8.530  1.00  0.00     0.032 C
HETATM    6  N2  UNL     1      26.530  24.263   7.972  1.00  0.00    -0.348 N
HETATM    7  C9  UNL     1      25.412  23.681   7.319  1.00  0.00     0.216 C
HETATM    8  C10 UNL     1      24.897  22.335   7.602  1.00  0.00     0.117 C
HETATM    9  O2  UNL     1      24.827  24.361   6.441  1.00  0.00    -0.274 OA
HETATM   10  C11 UNL     1      27.181  23.421   8.995  1.00  0.00     0.133 C
HETATM   11  C12 UNL     1      28.404  24.166   9.406  1.00  0.00     0.028 C
HETATM   12  C13 UNL     1      29.456  23.358  10.086  1.00  0.00     0.133 C
HETATM   13  N3  UNL     1      30.650  24.181   9.798  1.00  0.00    -0.338 N
HETATM   14  C14 UNL     1      31.692  24.481  10.708  1.00  0.00     0.216 C
HETATM   15  C15 UNL     1      31.697  23.979  12.095  1.00  0.00     0.117 C
HETATM   16  O3  UNL     1      32.641  25.197  10.318  1.00  0.00    -0.274 OA
ENDROOT
BRANCH   1  17
HETATM   17  C3  UNL     1      31.325  23.655   7.601  1.00  0.00     0.241 C
HETATM   18  N1  UNL     1      31.397  23.714   6.182  1.00  0.00    -0.360 N
ATOM     19  H1  UNL     1      30.906  24.465   5.697  1.00  0.00     0.162 HD
HETATM   20  O1  UNL     1      31.949  22.707   8.169  1.00  0.00    -0.271 OA
BRANCH  18  21
HETATM   21  C2  UNL     1      32.137  22.755   5.401  1.00  0.00     0.118 C
HETATM   22  C1  UNL     1      31.252  21.618   4.923  1.00  0.00     0.026 C
ENDBRANCH  18  21
ENDBRANCH   1  17
TORSDOF 2
ENDMDL