MODEL 1
REMARK VINA RESULT: -7.132795890      0.000      0.000
REMARK  5 active torsions:
REMARK  status: ('A' for Active; 'I' for Inactive)
REMARK    1  A    between atoms: C2_2  and  N1_3
REMARK       I    between atoms: N1_3  and  C3_5
REMARK    2  A    between atoms: C3_5  and  C4_7
REMARK    3  A    between atoms: C4_7  and  O2_8
REMARK    4  A    between atoms: C4_7  and  N2_10
REMARK       I    between atoms: N3_16  and  C10_17
REMARK    5  A    between atoms: C10_17  and  C11_19
ROOT
HETATM    1  N2  UNL     1      28.666  25.115   8.333  1.00  0.00    -0.330 N
HETATM    2  C5  UNL     1      28.158  26.197   7.396  1.00  0.00     0.135 C
HETATM    3  C6  UNL     1      27.073  26.894   8.160  1.00  0.00     0.035 C
HETATM    4  C7  UNL     1      27.330  26.383   9.564  1.00  0.00     0.062 C
HETATM    5  C8  UNL     1      27.490  24.887   9.089  1.00  0.00     0.110 C
HETATM    6  C9  UNL     1      27.487  24.006  10.250  1.00  0.00     0.064 C
HETATM    7  N3  UNL     1      26.297  24.783   8.245  1.00  0.00    -0.316 N
HETATM    8  C10 UNL     1      25.664  23.612   7.758  1.00  0.00     0.222 C
HETATM    9  O3  UNL     1      24.633  23.777   7.004  1.00  0.00    -0.273 OA
HETATM   10  C13 UNL     1      25.782  26.139   7.933  1.00  0.00     0.036 C
HETATM   11  C14 UNL     1      24.730  26.517   8.940  1.00  0.00     0.039 C
HETATM   12  C15 UNL     1      25.239  26.272   6.567  1.00  0.00     0.039 C
ENDROOT
BRANCH   1  13
HETATM   13  C4  UNL     1      29.985  24.699   8.215  1.00  0.00     0.209 C
BRANCH  13  14
HETATM   14  C3  UNL     1      30.587  23.484   7.733  1.00  0.00     0.292 C
HETATM   15  N1  UNL     1      31.489  23.478   6.621  1.00  0.00    -0.354 N
ATOM     16  H1  UNL     1      31.716  24.357   6.155  1.00  0.00     0.162 HD
HETATM   17  O1  UNL     1      30.378  22.369   8.230  1.00  0.00    -0.264 OA
BRANCH  15  18
HETATM   18  C2  UNL     1      32.077  22.261   6.153  1.00  0.00     0.118 C
HETATM   19  C1  UNL     1      31.393  21.682   4.933  1.00  0.00     0.026 C
ENDBRANCH  15  18
ENDBRANCH  13  14
BRANCH  13  20
HETATM   20  O2  UNL     1      30.897  25.556   8.613  1.00  0.00    -0.342 OA
ATOM     21  H2  UNL     1      30.654  25.957   9.439  1.00  0.00     0.219 HD
ENDBRANCH  13  20
ENDBRANCH   1  13
BRANCH   8  22
HETATM   22  C11 UNL     1      26.094  22.235   8.046  1.00  0.00     0.098 C
HETATM   23  C12 UNL     1      26.308  21.504   6.705  1.00  0.00     0.014 C
ENDBRANCH   8  22
TORSDOF 5
ENDMDL