MODEL 4
REMARK VINA RESULT: -6.217044253      3.079      7.031
REMARK  5 active torsions:
REMARK  status: ('A' for Active; 'I' for Inactive)
REMARK    1  A    between atoms: C4_4  and  C5_5
REMARK    2  A    between atoms: C6_6  and  C7_7
REMARK    3  A    between atoms: N2_15  and  C12_16
REMARK    4  A    between atoms: C12_16  and  C14_18
REMARK    5  A    between atoms: C14_18  and  O2_20
ROOT
HETATM    1  C1  UNL     1      35.202  18.941   8.140  1.00  0.00     0.017 C
HETATM    2  C2  UNL     1      34.691  19.923   8.633  1.00  0.00    -0.089 C
HETATM    3  C3  UNL     1      34.091  21.096   9.198  1.00  0.00     0.072 C
HETATM    4  C4  UNL     1      33.031  20.994   9.962  1.00  0.00     0.073 C
ENDROOT
BRANCH   4   5
HETATM    5  C5  UNL     1      32.377  22.116  10.560  1.00  0.00    -0.075 C
HETATM    6  C6  UNL     1      31.812  23.084  11.056  1.00  0.00    -0.059 C
BRANCH   6   7
HETATM    7  C7  UNL     1      31.155  24.252  11.634  1.00  0.00     0.355 C
HETATM    8  N1  UNL     1      31.853  25.424  11.225  1.00  0.00    -0.052 N
HETATM    9  C8  UNL     1      32.014  25.456   9.786  1.00  0.00     0.236 C
ATOM     10  H12 UNL     1      31.402  26.271  11.572  1.00  0.00     0.279 HD
ATOM     11  H11 UNL     1      32.747  25.517  11.706  1.00  0.00     0.279 HD
HETATM   12  C9  UNL     1      30.870  26.245   9.223  1.00  0.00     0.052 C
HETATM   13  C10 UNL     1      29.638  25.431   8.935  1.00  0.00     0.085 C
HETATM   14  C11 UNL     1      30.031  24.299   8.020  1.00  0.00     0.032 C
HETATM   15  N2  UNL     1      29.038  25.000  10.184  1.00  0.00    -0.332 N
HETATM   16  C16 UNL     1      29.721  24.249  11.194  1.00  0.00     0.264 C
HETATM   17  O3  UNL     1      28.953  23.451  11.807  1.00  0.00    -0.270 OA
BRANCH  15  18
HETATM   18  C12 UNL     1      27.694  25.331  10.491  1.00  0.00     0.183 C
HETATM   19  C13 UNL     1      27.490  26.845  10.272  1.00  0.00     0.043 C
BRANCH  18  20
HETATM   20  C14 UNL     1      26.641  24.676   9.725  1.00  0.00     0.281 C
HETATM   21  O1  UNL     1      26.616  23.436   9.609  1.00  0.00    -0.263 OA
BRANCH  20  22
HETATM   22  O2  UNL     1      25.660  25.422   9.121  1.00  0.00    -0.325 OA
HETATM   23  C15 UNL     1      24.372  24.919   8.794  1.00  0.00     0.213 C
ENDBRANCH  20  22
ENDBRANCH  18  20
ENDBRANCH  15  18
ENDBRANCH   6   7
ENDBRANCH   4   5
TORSDOF 5
ENDMDL