MODEL 1
REMARK VINA RESULT: -7.057812820      0.000      0.000
REMARK  4 active torsions:
REMARK  status: ('A' for Active; 'I' for Inactive)
REMARK       I    between atoms: N1_2  and  C2_4
REMARK    1  A    between atoms: C2_4  and  C3_6
REMARK    2  A    between atoms: N2_13  and  C10_15
REMARK    3  A    between atoms: C10_15  and  C11_16
REMARK    4  A    between atoms: C12_17  and  C13_18
ROOT
HETATM    1  C3  UNL     1      32.161  24.409   9.766  1.00  0.00     0.214 C
HETATM    2  C4  UNL     1      31.468  25.298   8.755  1.00  0.00     0.044 C
HETATM    3  C5  UNL     1      30.132  25.764   9.271  1.00  0.00     0.042 C
HETATM    4  C6  UNL     1      29.664  25.020  10.484  1.00  0.00     0.255 C
HETATM    5  C7  UNL     1      30.100  23.569  10.474  1.00  0.00     0.182 C
HETATM    6  C8  UNL     1      29.114  23.027   9.428  1.00  0.00     0.242 C
HETATM    7  O2  UNL     1      28.186  24.031   9.225  1.00  0.00    -0.199 OA
HETATM    8  N2  UNL     1      28.208  24.818  10.340  1.00  0.00     0.060 N
HETATM    9  C9  UNL     1      27.723  24.062  11.453  1.00  0.00     0.313 C
HETATM   10  O3  UNL     1      31.395  23.348  10.158  1.00  0.00    -0.367 OA
ENDROOT
BRANCH   8  11
HETATM   11  C10 UNL     1      27.601  26.086  10.162  1.00  0.00     0.366 C
BRANCH  11  12
HETATM   12  C11 UNL     1      26.318  26.018   9.420  1.00  0.00    -0.075 C
HETATM   13  C12 UNL     1      25.285  25.963   8.799  1.00  0.00    -0.096 C
BRANCH  13  14
HETATM   14  C13 UNL     1      24.029  25.871   8.045  1.00  0.00     0.013 C
HETATM   15  C14 UNL     1      22.860  25.551   8.961  1.00  0.00     0.028 C
HETATM   16  C15 UNL     1      24.170  24.743   7.058  1.00  0.00     0.028 C
HETATM   17  C16 UNL     1      23.738  27.169   7.324  1.00  0.00     0.028 C
ENDBRANCH  13  14
ENDBRANCH  11  12
ENDBRANCH   8  11
BRANCH   1  18
HETATM   18  C2  UNL     1      32.765  25.157  10.887  1.00  0.00     0.246 C
HETATM   19  N1  UNL     1      33.092  24.467  12.086  1.00  0.00    -0.363 N
HETATM   20  C1  UNL     1      33.689  25.174  13.209  1.00  0.00     0.149 C
ATOM     21  H1  UNL     1      32.908  23.467  12.159  1.00  0.00     0.162 HD
HETATM   22  O1  UNL     1      32.991  26.409  10.781  1.00  0.00    -0.271 OA
ENDBRANCH   1  18
TORSDOF 4
ENDMDL