MODEL 5
REMARK VINA RESULT: -5.513025385      4.745      7.622
REMARK  6 active torsions:
REMARK  status: ('A' for Active; 'I' for Inactive)
REMARK    1  A    between atoms: C3_3  and  C4_4
REMARK    2  A    between atoms: C4_4  and  N1_5
REMARK    3  A    between atoms: C5_6  and  C6_7
REMARK    4  A    between atoms: C5_6  and  C11_12
REMARK    5  A    between atoms: C7_8  and  C8_9
REMARK    6  A    between atoms: C11_12  and  O1_13
ROOT
HETATM    1  C1  UNL     1      28.227  23.893  11.733  1.00  0.00     0.112 C
HETATM    2  C2  UNL     1      29.598  23.457  11.384  1.00  0.00    -0.110 C
HETATM    3  C3  UNL     1      30.723  23.112  11.115  1.00  0.00    -0.091 C
ENDROOT
BRANCH   3   4
HETATM    4  C4  UNL     1      32.099  22.714  10.778  1.00  0.00     0.204 C
BRANCH   4   5
HETATM    5  N1  UNL     1      32.700  21.996  11.800  1.00  0.00    -0.162 NA
HETATM    6  C5  UNL     1      33.337  20.770  11.578  1.00  0.00     0.127 C
HETATM    7  C12 UNL     1      34.831  21.031  11.536  1.00  0.00     0.150 C
HETATM    8  N2  UNL     1      35.158  21.786  12.731  1.00  0.00    -0.199 NA
HETATM    9  C13 UNL     1      36.305  22.613  12.407  1.00  0.00     0.130 C
HETATM   10  S1  UNL     1      33.773  22.854  12.816  1.00  0.00     0.285 S
HETATM   11  O2  UNL     1      34.093  24.165  12.156  1.00  0.00    -0.194 OA
HETATM   12  O3  UNL     1      33.297  23.038  14.197  1.00  0.00    -0.194 OA
BRANCH   6  13
HETATM   13  C6  UNL     1      32.965  20.175  10.298  1.00  0.00    -0.075 C
HETATM   14  C7  UNL     1      32.673  19.680   9.213  1.00  0.00    -0.100 C
BRANCH  14  15
HETATM   15  C8  UNL     1      32.342  19.092   7.920  1.00  0.00     0.057 C
HETATM   16  C9  UNL     1      31.971  17.629   8.077  1.00  0.00     0.023 C
HETATM   17  C10 UNL     1      33.577  19.210   7.048  1.00  0.00     0.023 C
ENDBRANCH  14  15
ENDBRANCH   6  13
BRANCH   6  18
HETATM   18  C11 UNL     1      33.114  19.714  12.629  1.00  0.00     0.205 C
BRANCH  18  19
HETATM   19  O1  UNL     1      31.818  19.698  13.117  1.00  0.00    -0.398 OA
ATOM     20  H1  UNL     1      31.203  20.155  12.555  1.00  0.00     0.209 HD
ENDBRANCH  18  19
ENDBRANCH   6  18
ENDBRANCH   4   5
ENDBRANCH   3   4
TORSDOF 6
ENDMDL