MODEL 5
REMARK VINA RESULT: -7.299731267      6.332      8.787
REMARK  2 active torsions:
REMARK  status: ('A' for Active; 'I' for Inactive)
REMARK    1  A    between atoms: C5_6  and  C6_7
REMARK       I    between atoms: N3_12  and  C9_13
REMARK    2  A    between atoms: C9_13  and  C10_15
ROOT
HETATM    1  C1  UNL     1      33.191  25.704  12.195  1.00  0.00     0.012 C
HETATM    2  C2  UNL     1      32.834  24.561  12.068  1.00  0.00    -0.110 C
HETATM    3  C3  UNL     1      32.406  23.196  11.942  1.00  0.00     0.104 C
HETATM    4  C4  UNL     1      33.162  22.198  12.751  1.00  0.00     0.294 C
HETATM    5  N1  UNL     1      33.071  20.953  12.062  1.00  0.00     0.127 N
HETATM    6  C5  UNL     1      34.322  20.288  12.030  1.00  0.00     0.315 C
HETATM    7  C7  UNL     1      34.292  18.955  11.311  1.00  0.00     0.065 C
HETATM    8  C8  UNL     1      33.033  18.896  10.465  1.00  0.00     0.130 C
HETATM    9  N3  UNL     1      32.813  20.217   9.828  1.00  0.00    -0.321 N
HETATM   10  C9  UNL     1      32.972  20.300   8.451  1.00  0.00     0.225 C
HETATM   11  O2  UNL     1      32.830  21.378   7.839  1.00  0.00    -0.273 OA
HETATM   12  C13 UNL     1      32.458  21.202  10.763  1.00  0.00     0.336 C
HETATM   13  C14 UNL     1      32.600  22.636  10.512  1.00  0.00     0.017 C
HETATM   14  C15 UNL     1      31.441  23.274   9.736  1.00  0.00     0.020 C
HETATM   15  C16 UNL     1      33.931  23.148  10.078  1.00  0.00     0.020 C
ENDROOT
BRANCH   6  16
HETATM   16  C6  UNL     1      34.769  19.990  13.418  1.00  0.00     0.264 C
HETATM   17  N2  UNL     1      34.058  19.044  14.230  1.00  0.00    -0.060 NA
HETATM   18  O1  UNL     1      35.764  20.527  13.955  1.00  0.00    -0.274 OA
ENDBRANCH   6  16
BRANCH  10  19
HETATM   19  C10 UNL     1      33.316  19.138   7.566  1.00  0.00     0.070 C
HETATM   20  C11 UNL     1      34.776  19.234   7.162  1.00  0.00     0.019 C
HETATM   21  C12 UNL     1      32.546  19.198   6.257  1.00  0.00     0.019 C
ENDBRANCH  10  19
TORSDOF 2
ENDMDL