MODEL 3
REMARK VINA RESULT: -9.350754213      1.463      1.559
REMARK  7 active torsions:
REMARK  status: ('A' for Active; 'I' for Inactive)
REMARK       I    between atoms: N1_2  and  C2_4
REMARK    1  A    between atoms: C2_4  and  C3_6
REMARK    2  A    between atoms: C4_9  and  N3_10
REMARK    3  A    between atoms: N3_10  and  C5_12
REMARK    4  A    between atoms: C6_15  and  N5_16
REMARK    5  A    between atoms: N5_16  and  C7_18
REMARK    6  A    between atoms: C10_28  and  N9_29
REMARK    7  A    between atoms: N9_29  and  C11_31
ROOT
HETATM    1  C5  UNL     1      12.478  40.724  25.883  1.00  0.00     0.713 A
HETATM    2  N4  UNL     1      12.106  39.730  26.703  1.00  0.00    -0.021 N
ATOM      3  H4  UNL     1      12.752  39.411  27.425  1.00  0.00     0.203 HD
HETATM    4  C6  UNL     1      10.899  39.145  26.593  1.00  0.00     0.713 A
HETATM    5  N8  UNL     1      10.065  39.571  25.643  1.00  0.00    -0.021 N
ATOM      6  H8  UNL     1       9.148  39.131  25.553  1.00  0.00     0.203 HD
HETATM    7  C10 UNL     1      10.404  40.581  24.788  1.00  0.00     0.707 A
HETATM    8  N10 UNL     1      11.611  41.136  24.930  1.00  0.00    -0.021 N
ATOM      9  H10 UNL     1      11.887  41.891  24.302  1.00  0.00     0.203 HD
ENDROOT
BRANCH   1  10
HETATM   10  N3  UNL     1      13.615  41.293  25.969  1.00  0.00    -0.174 N
ATOM     11  H3  UNL     1      13.802  42.116  25.396  1.00  0.00     0.186 HD
BRANCH  10  12
HETATM   12  C4  UNL     1      14.629  40.812  26.840  1.00  0.00     0.138 A
HETATM   13  N2  UNL     1      15.478  39.831  26.535  1.00  0.00    -0.322 N
HETATM   14  C3  UNL     1      16.337  39.590  27.571  1.00  0.00     0.178 A
ATOM     15  H2  UNL     1      15.487  39.327  25.648  1.00  0.00     0.169 HD
HETATM   16  N11 UNL     1      15.993  40.447  28.520  1.00  0.00    -0.339 N
HETATM   17  C15 UNL     1      14.943  41.218  28.106  1.00  0.00     0.141 A
HETATM   18  C16 UNL     1      16.618  40.584  29.832  1.00  0.00     0.157 C
BRANCH  14  19
HETATM   19  C2  UNL     1      17.360  38.577  27.506  1.00  0.00     0.285 C
HETATM   20  N1  UNL     1      18.409  38.512  26.583  1.00  0.00    -0.359 N
HETATM   21  C1  UNL     1      19.353  37.379  26.699  1.00  0.00     0.149 C
ATOM     22  H1  UNL     1      18.519  39.220  25.858  1.00  0.00     0.162 HD
HETATM   23  O1  UNL     1      17.305  37.633  28.389  1.00  0.00    -0.264 OA
ENDBRANCH  14  19
ENDBRANCH  10  12
ENDBRANCH   1  10
BRANCH   4  24
HETATM   24  N5  UNL     1      10.556  38.102  27.482  1.00  0.00    -0.168 N
ATOM     25  H5  UNL     1      10.104  37.260  27.125  1.00  0.00     0.186 HD
BRANCH  24  26
HETATM   26  C7  UNL     1      10.817  38.210  28.766  1.00  0.00     0.180 A
HETATM   27  N6  UNL     1      11.602  39.107  29.368  1.00  0.00    -0.279 N
HETATM   28  N7  UNL     1      11.735  39.055  30.627  1.00  0.00    -0.296 N
ATOM     29  H6  UNL     1      12.086  39.822  28.824  1.00  0.00     0.189 HD
HETATM   30  C8  UNL     1      11.105  38.126  31.331  1.00  0.00     0.066 A
ATOM     31  H7  UNL     1      12.330  39.733  31.103  1.00  0.00     0.187 HD
HETATM   32  C9  UNL     1      11.120  37.885  32.815  1.00  0.00     0.078 C
HETATM   33  S1  UNL     1      10.272  37.280  30.090  1.00  0.00    -0.038 SA
ENDBRANCH  24  26
ENDBRANCH   4  24
BRANCH   7  34
HETATM   34  N9  UNL     1       9.599  40.966  23.898  1.00  0.00    -0.217 N
ATOM     35  H9  UNL     1       9.047  41.787  24.150  1.00  0.00     0.178 HD
BRANCH  34  36
HETATM   36  C11 UNL     1       9.331  40.447  22.603  1.00  0.00     0.036 C
HETATM   37  C12 UNL     1       8.352  39.298  22.642  1.00  0.00     0.038 C
HETATM   38  C13 UNL     1       8.667  41.589  21.812  1.00  0.00     0.038 C
HETATM   39  C14 UNL     1      10.569  40.037  21.831  1.00  0.00     0.038 C
ENDBRANCH  34  36
ENDBRANCH   7  34
TORSDOF 7
ENDMDL