MODEL 4
REMARK VINA RESULT: -8.990105528      2.888      4.436
REMARK  6 active torsions:
REMARK  status: ('A' for Active; 'I' for Inactive)
REMARK    1  A    between atoms: C3_5  and  N2_6
REMARK    2  A    between atoms: C4_10  and  C5_11
REMARK    3  A    between atoms: C5_11  and  O1_12
REMARK    4  A    between atoms: N4_18  and  C9_19
REMARK    5  A    between atoms: C10_22  and  N6_23
REMARK    6  A    between atoms: C15_31  and  N8_32
ROOT
HETATM    1  C5  UNL     1      14.156  40.808  27.304  1.00  0.00     0.157 C
HETATM    2  N3  UNL     1      12.861  41.061  27.642  1.00  0.00    -0.359 N
HETATM    3  C6  UNL     1      11.997  40.457  28.591  1.00  0.00     0.126 C
HETATM    4  C7  UNL     1      11.070  39.446  28.011  1.00  0.00     0.040 C
HETATM    5  C8  UNL     1      10.968  39.415  26.529  1.00  0.00     0.143 C
HETATM    6  N4  UNL     1      10.621  40.684  25.962  1.00  0.00    -0.215 N
HETATM    7  C16 UNL     1      10.832  41.984  26.546  1.00  0.00     0.161 C
HETATM    8  C17 UNL     1      12.299  42.229  26.822  1.00  0.00     0.145 C
ENDROOT
BRANCH   6   9
HETATM    9  C9  UNL     1       9.994  40.654  24.705  1.00  0.00     0.709 A
HETATM   10  N5  UNL     1      10.077  41.602  23.760  1.00  0.00    -0.021 N
HETATM   11  C10 UNL     1       9.425  41.521  22.577  1.00  0.00     0.709 A
ATOM     12  H5  UNL     1      10.657  42.420  23.942  1.00  0.00     0.203 HD
HETATM   13  N7  UNL     1       8.675  40.438  22.369  1.00  0.00    -0.022 N
HETATM   14  C15 UNL     1       8.545  39.437  23.283  1.00  0.00     0.705 A
ATOM     15  H7  UNL     1       8.175  40.356  21.484  1.00  0.00     0.203 HD
HETATM   16  N9  UNL     1       9.210  39.559  24.444  1.00  0.00    -0.022 N
ATOM     17  H9  UNL     1       9.130  38.823  25.146  1.00  0.00     0.203 HD
BRANCH  11  18
HETATM   18  N6  UNL     1       9.554  42.527  21.602  1.00  0.00    -0.213 N
HETATM   19  C11 UNL     1      10.651  43.458  21.745  1.00  0.00     0.167 C
HETATM   20  C12 UNL     1      10.427  44.800  21.153  1.00  0.00     0.188 C
HETATM   21  O2  UNL     1       9.536  44.813  20.090  1.00  0.00    -0.388 OA
HETATM   22  C13 UNL     1       8.342  44.183  20.393  1.00  0.00     0.188 C
HETATM   23  C14 UNL     1       8.666  42.682  20.487  1.00  0.00     0.167 C
ENDBRANCH  11  18
BRANCH  14  24
HETATM   24  N8  UNL     1       7.794  38.406  23.017  1.00  0.00    -0.234 N
ATOM     25  H82 UNL     1       6.792  38.493  22.845  1.00  0.00     0.174 HD
ATOM     26  H81 UNL     1       8.205  37.474  22.974  1.00  0.00     0.174 HD
ENDBRANCH  14  24
ENDBRANCH   6   9
BRANCH   1  27
HETATM   27  C4  UNL     1      15.282  39.944  27.576  1.00  0.00     0.081 A
HETATM   28  C2  UNL     1      16.178  39.190  26.896  1.00  0.00     0.029 A
HETATM   29  C1  UNL     1      16.227  39.187  25.368  1.00  0.00     0.070 C
HETATM   30  N1  UNL     1      17.052  38.474  27.559  1.00  0.00    -0.339 N
HETATM   31  C3  UNL     1      17.057  38.493  28.877  1.00  0.00     0.143 A
ATOM     32  H1  UNL     1      17.728  37.901  27.054  1.00  0.00     0.168 HD
HETATM   33  S1  UNL     1      15.797  39.549  29.242  1.00  0.00    -0.048 SA
BRANCH  31  34
HETATM   34  N2  UNL     1      17.843  37.852  29.717  1.00  0.00    -0.380 N
ATOM     35  H22 UNL     1      17.825  36.861  29.958  1.00  0.00     0.158 HD
ATOM     36  H21 UNL     1      18.612  38.209  30.283  1.00  0.00     0.158 HD
ENDBRANCH  31  34
ENDBRANCH   1  27
BRANCH   1  37
HETATM   37  O1  UNL     1      14.569  41.704  26.346  1.00  0.00    -0.345 OA
ATOM     38  H1  UNL     1      14.845  42.488  26.806  1.00  0.00     0.219 HD
ENDBRANCH   1  37
TORSDOF 6
ENDMDL