MODEL 1
REMARK VINA RESULT: -8.775698881      0.000      0.000
REMARK  7 active torsions:
REMARK  status: ('A' for Active; 'I' for Inactive)
REMARK    1  A    between atoms: O1_2  and  N1_3
REMARK    2  A    between atoms: N1_3  and  C2_5
REMARK    3  A    between atoms: N3_9  and  C4_11
REMARK    4  A    between atoms: C4_11  and  N4_13
REMARK    5  A    between atoms: N4_13  and  C5_15
REMARK    6  A    between atoms: C10_27  and  C11_28
REMARK    7  A    between atoms: C11_28  and  N9_32
ROOT
HETATM    1  C2  UNL     1      15.954  39.976  24.259  1.00  0.00     0.171 A
HETATM    2  N2  UNL     1      14.818  40.534  24.669  1.00  0.00    -0.172 N
ATOM      3  H2  UNL     1      14.255  41.046  23.989  1.00  0.00     0.186 HD
HETATM    4  C3  UNL     1      14.362  40.454  25.980  1.00  0.00     0.688 A
HETATM    5  N3  UNL     1      13.292  41.013  26.258  1.00  0.00    -0.166 N
ATOM      6  H3  UNL     1      12.893  41.473  25.440  1.00  0.00     0.186 HD
HETATM    7  N6  UNL     1      15.130  39.776  26.836  1.00  0.00    -0.173 N
ATOM      8  H6  UNL     1      14.815  39.705  27.804  1.00  0.00     0.186 HD
HETATM    9  C8  UNL     1      16.308  39.171  26.502  1.00  0.00     0.169 A
HETATM   10  C9  UNL     1      16.701  39.289  25.188  1.00  0.00     0.127 A
HETATM   11  N7  UNL     1      17.862  38.627  25.082  1.00  0.00    -0.332 N
ATOM     12  H7  UNL     1      18.418  38.523  24.234  1.00  0.00     0.168 HD
HETATM   13  C10 UNL     1      18.166  38.120  26.306  1.00  0.00     0.168 A
HETATM   14  N10 UNL     1      17.218  38.445  27.199  1.00  0.00    -0.212 N
HETATM   15  C14 UNL     1      17.161  38.120  28.557  1.00  0.00     0.192 C
HETATM   16  N11 UNL     1      17.135  37.845  29.681  1.00  0.00    -0.171 NA
ENDROOT
BRANCH  13  17
HETATM   17  C11 UNL     1      19.388  37.322  26.566  1.00  0.00     0.142 C
HETATM   18  N8  UNL     1      19.587  36.920  27.795  1.00  0.00    -0.382 N
ATOM     19  H82 UNL     1      18.939  37.140  28.551  1.00  0.00     0.157 HD
ATOM     20  H81 UNL     1      20.428  36.371  27.973  1.00  0.00     0.157 HD
BRANCH  17  21
HETATM   21  N9  UNL     1      20.282  37.018  25.522  1.00  0.00    -0.373 N
HETATM   22  C12 UNL     1      20.209  35.754  24.842  1.00  0.00     0.150 C
HETATM   23  C13 UNL     1      21.276  37.979  25.130  1.00  0.00     0.150 C
ENDBRANCH  17  21
ENDBRANCH  13  17
BRANCH   1  24
HETATM   24  N1  UNL     1      16.318  40.081  23.032  1.00  0.00    -0.248 N
ATOM     25  H1  UNL     1      15.624  40.046  22.285  1.00  0.00     0.196 HD
BRANCH  24  26
HETATM   26  O1  UNL     1      17.643  40.242  22.731  1.00  0.00    -0.284 OA
HETATM   27  C1  UNL     1      18.234  39.724  21.552  1.00  0.00     0.237 C
ENDBRANCH  24  26
ENDBRANCH   1  24
BRANCH   5  28
HETATM   28  C4  UNL     1      12.507  41.182  27.343  1.00  0.00     0.191 C
HETATM   29  S1  UNL     1      12.561  42.673  28.120  1.00  0.00    -0.040 SA
BRANCH  28  30
HETATM   30  N4  UNL     1      11.652  40.220  27.930  1.00  0.00    -0.326 N
ATOM     31  H4  UNL     1      10.749  40.042  27.491  1.00  0.00     0.169 HD
BRANCH  30  32
HETATM   32  C5  UNL     1      11.990  39.492  29.098  1.00  0.00     0.094 A
HETATM   33  C6  UNL     1      11.294  38.677  29.940  1.00  0.00     0.056 A
HETATM   34  C7  UNL     1      11.957  38.128  30.971  1.00  0.00     0.099 A
HETATM   35  N5  UNL     1      13.249  38.411  31.109  1.00  0.00    -0.335 N
HETATM   36  S2  UNL     1      13.578  39.434  29.828  1.00  0.00     0.003 SA
ATOM     37  H5  UNL     1      13.891  38.081  31.829  1.00  0.00     0.173 HD
ENDBRANCH  30  32
ENDBRANCH  28  30
ENDBRANCH   5  28
TORSDOF 7
ENDMDL