MODEL 2
REMARK VINA RESULT: -9.390463552      2.996      6.745
REMARK  7 active torsions:
REMARK  status: ('A' for Active; 'I' for Inactive)
REMARK    1  A    between atoms: C3_3  and  C4_4
REMARK    2  A    between atoms: C4_4  and  C5_5
REMARK       I    between atoms: C5_5  and  N1_7
REMARK    3  A    between atoms: N1_7  and  C6_9
REMARK    4  A    between atoms: C10_18  and  N5_19
REMARK    5  A    between atoms: N5_19  and  C11_21
REMARK    6  A    between atoms: C14_28  and  N8_29
REMARK    7  A    between atoms: C15_34  and  S1_35
ROOT
HETATM    1  C1  UNL     1      11.743  39.008  30.105  1.00  0.00     0.112 C
HETATM    2  C2  UNL     1      10.988  38.591  28.903  1.00  0.00    -0.111 C
HETATM    3  C3  UNL     1      10.377  38.243  27.923  1.00  0.00    -0.098 C
ENDROOT
BRANCH   3   4
HETATM    4  C4  UNL     1       9.651  37.808  26.737  1.00  0.00     0.197 C
BRANCH   4   5
HETATM    5  C5  UNL     1       9.065  38.972  26.029  1.00  0.00     0.234 C
HETATM    6  O1  UNL     1       7.954  38.831  25.462  1.00  0.00    -0.272 OA
HETATM    7  N1  UNL     1       9.693  40.242  25.953  1.00  0.00    -0.309 N
ATOM      8  H1  UNL     1       9.693  40.840  26.780  1.00  0.00     0.170 HD
BRANCH   7   9
HETATM    9  C6  UNL     1      10.265  40.670  24.874  1.00  0.00     0.153 A
HETATM   10  N2  UNL     1       9.541  41.140  23.825  1.00  0.00    -0.346 N
HETATM   11  C7  UNL     1      10.166  41.578  22.717  1.00  0.00     0.131 A
ATOM     12  H2  UNL     1       8.523  41.162  23.877  1.00  0.00     0.167 HD
HETATM   13  C8  UNL     1      11.543  41.551  22.640  1.00  0.00     0.131 A
HETATM   14  C9  UNL     1      12.239  42.018  21.455  1.00  0.00     0.119 C
HETATM   15  N4  UNL     1      12.220  41.078  23.701  1.00  0.00    -0.330 N
HETATM   16  N3  UNL     1      12.809  42.385  20.516  1.00  0.00    -0.190 NA
HETATM   17  C10 UNL     1      11.643  40.630  24.830  1.00  0.00     0.153 A
ATOM     18  H4  UNL     1      13.239  41.058  23.645  1.00  0.00     0.168 HD
BRANCH  17  19
HETATM   19  N5  UNL     1      12.368  40.130  25.948  1.00  0.00    -0.324 N
ATOM     20  H5  UNL     1      12.463  39.128  26.114  1.00  0.00     0.169 HD
BRANCH  19  21
HETATM   21  C11 UNL     1      12.901  40.998  26.744  1.00  0.00     0.137 A
HETATM   22  N6  UNL     1      12.255  42.129  27.126  1.00  0.00    -0.337 N
HETATM   23  C12 UNL     1      12.817  43.025  27.953  1.00  0.00     0.182 A
ATOM     24  H6  UNL     1      11.314  42.303  26.774  1.00  0.00     0.168 HD
HETATM   25  N7  UNL     1      14.059  42.772  28.406  1.00  0.00    -0.347 N
HETATM   26  C13 UNL     1      14.746  41.669  28.062  1.00  0.00     0.108 A
ATOM     27  H7  UNL     1      14.496  43.444  29.035  1.00  0.00     0.167 HD
HETATM   28  C14 UNL     1      16.008  41.486  28.568  1.00  0.00     0.130 A
HETATM   29  C17 UNL     1      14.160  40.753  27.210  1.00  0.00     0.109 A
HETATM   30  N9  UNL     1      16.658  40.363  28.194  1.00  0.00    -0.321 N
HETATM   31  C15 UNL     1      16.092  39.468  27.365  1.00  0.00     0.146 A
ATOM     32  H9  UNL     1      17.598  40.190  28.548  1.00  0.00     0.169 HD
HETATM   33  N10 UNL     1      14.842  39.635  26.855  1.00  0.00    -0.332 N
ATOM     34  H10 UNL     1      14.432  38.944  26.227  1.00  0.00     0.168 HD
BRANCH  28  35
HETATM   35  N8  UNL     1      16.534  42.364  29.367  1.00  0.00    -0.384 N
ATOM     36  H82 UNL     1      16.334  42.385  30.367  1.00  0.00     0.157 HD
ATOM     37  H81 UNL     1      17.176  43.072  29.012  1.00  0.00     0.157 HD
ENDBRANCH  28  35
BRANCH  31  38
HETATM   38  S1  UNL     1      17.031  38.025  26.935  1.00  0.00    -0.098 SA
HETATM   39  C16 UNL     1      18.048  37.564  28.360  1.00  0.00     0.099 C
ENDBRANCH  31  38
ENDBRANCH  19  21
ENDBRANCH  17  19
ENDBRANCH   7   9
ENDBRANCH   4   5
ENDBRANCH   3   4
TORSDOF 7
ENDMDL