MODEL 4
REMARK VINA RESULT: -8.881504812      2.372      4.230
REMARK  6 active torsions:
REMARK  status: ('A' for Active; 'I' for Inactive)
REMARK    1  A    between atoms: O1_2  and  C2_3
REMARK    2  A    between atoms: C4_5  and  O2_6
REMARK    3  A    between atoms: C6_8  and  N1_9
REMARK    4  A    between atoms: C15_21  and  N3_22
REMARK    5  A    between atoms: C16_27  and  N5_28
REMARK    6  A    between atoms: N5_28  and  N6_30
ROOT
HETATM    1  C2  UNL     1      15.357  39.534  27.782  1.00  0.00     0.085 A
HETATM    2  C3  UNL     1      14.429  39.721  28.786  1.00  0.00     0.076 A
HETATM    3  C4  UNL     1      13.118  40.076  28.492  1.00  0.00     0.098 A
HETATM    4  C6  UNL     1      12.723  40.247  27.184  1.00  0.00     0.071 A
HETATM    5  C11 UNL     1      13.636  40.064  26.130  1.00  0.00    -0.010 A
HETATM    6  C12 UNL     1      14.906  39.719  26.492  1.00  0.00     0.050 A
HETATM    7  C13 UNL     1      15.897  39.608  25.430  1.00  0.00     0.123 A
HETATM    8  N2  UNL     1      17.207  39.217  25.475  1.00  0.00    -0.335 N
ATOM      9  H2  UNL     1      17.718  38.972  26.323  1.00  0.00     0.168 HD
HETATM   10  C14 UNL     1      17.714  39.204  24.241  1.00  0.00     0.123 A
HETATM   11  C15 UNL     1      18.954  38.899  23.692  1.00  0.00     0.145 A
HETATM   12  N4  UNL     1      19.077  39.011  22.348  1.00  0.00    -0.173 N
ATOM     13  H4  UNL     1      19.978  38.791  21.924  1.00  0.00     0.186 HD
HETATM   14  C16 UNL     1      18.070  39.399  21.544  1.00  0.00     0.699 A
HETATM   15  N7  UNL     1      16.861  39.697  22.081  1.00  0.00    -0.172 N
ATOM     16  H7  UNL     1      16.087  39.992  21.486  1.00  0.00     0.186 HD
HETATM   17  C17 UNL     1      16.704  39.597  23.404  1.00  0.00     0.155 A
HETATM   18  N8  UNL     1      15.586  39.844  24.156  1.00  0.00    -0.316 N
HETATM   19  C18 UNL     1      14.313  40.325  23.764  1.00  0.00     0.137 C
HETATM   20  C19 UNL     1      13.234  40.160  24.747  1.00  0.00     0.062 C
ENDROOT
BRANCH   4  21
HETATM   21  N1  UNL     1      11.404  40.602  26.839  1.00  0.00    -0.374 N
HETATM   22  C7  UNL     1      11.076  41.978  26.605  1.00  0.00     0.149 C
HETATM   23  C8  UNL     1       9.926  42.235  25.681  1.00  0.00     0.187 C
HETATM   24  O3  UNL     1       9.464  41.074  25.062  1.00  0.00    -0.388 OA
HETATM   25  C9  UNL     1       9.102  40.230  26.110  1.00  0.00     0.187 C
HETATM   26  C10 UNL     1      10.348  39.635  26.717  1.00  0.00     0.149 C
ENDBRANCH   4  21
BRANCH   3  27
HETATM   27  O2  UNL     1      12.178  40.268  29.492  1.00  0.00    -0.354 OA
HETATM   28  C5  UNL     1      11.785  39.214  30.343  1.00  0.00     0.210 C
ENDBRANCH   3  27
BRANCH   1  29
HETATM   29  O1  UNL     1      16.659  39.181  28.080  1.00  0.00    -0.355 OA
HETATM   30  C1  UNL     1      17.038  38.487  29.229  1.00  0.00     0.210 C
ENDBRANCH   1  29
BRANCH  11  31
HETATM   31  N3  UNL     1      19.919  38.531  24.433  1.00  0.00    -0.383 N
ATOM     32  H32 UNL     1      20.558  39.199  24.866  1.00  0.00     0.157 HD
ATOM     33  H31 UNL     1      20.086  37.542  24.619  1.00  0.00     0.157 HD
ENDBRANCH  11  31
BRANCH  14  34
HETATM   34  N5  UNL     1      18.279  39.478  20.275  1.00  0.00    -0.138 N
ATOM     35  H5  UNL     1      17.473  39.461  19.651  1.00  0.00     0.205 HD
BRANCH  34  36
HETATM   36  N6  UNL     1      19.544  39.584  19.712  1.00  0.00    -0.331 N
ATOM     37  H62 UNL     1      19.957  40.516  19.667  1.00  0.00     0.177 HD
ATOM     38  H61 UNL     1      20.067  38.787  19.350  1.00  0.00     0.177 HD
ENDBRANCH  34  36
ENDBRANCH  14  34
TORSDOF 6
ENDMDL