MODEL 2
REMARK VINA RESULT: -9.703538511      0.295      1.294
REMARK  5 active torsions:
REMARK  status: ('A' for Active; 'I' for Inactive)
REMARK    1  A    between atoms: N2_6  and  C3_7
REMARK    2  A    between atoms: C6_10  and  N3_11
REMARK    3  A    between atoms: C9_19  and  N5_20
REMARK    4  A    between atoms: C14_28  and  N7_29
REMARK    5  A    between atoms: C17_32  and  N8_33
ROOT
HETATM    1  N1  UNL     1      16.615  38.510  27.566  1.00  0.00    -0.388 N
ATOM      2  H11 UNL     1      17.163  37.798  27.082  1.00  0.00     0.157 HD
ATOM      3  H12 UNL     1      16.616  38.470  28.586  1.00  0.00     0.157 HD
HETATM    4  C1  UNL     1      15.960  39.401  26.943  1.00  0.00     0.093 C
HETATM    5  C2  UNL     1      15.168  40.432  27.644  1.00  0.00     0.201 C
HETATM    6  N2  UNL     1      13.830  40.362  27.066  1.00  0.00    -0.353 N
HETATM    7  C8  UNL     1      13.732  40.469  25.646  1.00  0.00     0.150 A
HETATM    8  N4  UNL     1      12.648  41.006  25.058  1.00  0.00    -0.174 N
ATOM      9  H4  UNL     1      11.872  41.337  25.631  1.00  0.00     0.186 HD
HETATM   10  C9  UNL     1      12.584  41.109  23.731  1.00  0.00     0.683 A
HETATM   11  N6  UNL     1      13.612  40.668  23.002  1.00  0.00    -0.174 N
ATOM     12  H6  UNL     1      13.543  40.755  21.988  1.00  0.00     0.186 HD
HETATM   13  C14 UNL     1      14.736  40.117  23.505  1.00  0.00     0.150 A
HETATM   14  C20 UNL     1      14.807  40.010  24.876  1.00  0.00     0.123 A
HETATM   15  N9  UNL     1      15.958  39.458  25.524  1.00  0.00    -0.339 N
ATOM     16  H9  UNL     1      16.753  39.116  24.984  1.00  0.00     0.167 HD
ENDROOT
BRANCH  13  17
HETATM   17  N7  UNL     1      15.779  39.650  22.663  1.00  0.00    -0.365 N
HETATM   18  C15 UNL     1      15.427  38.971  21.440  1.00  0.00     0.126 C
HETATM   19  C16 UNL     1      16.567  38.091  20.974  1.00  0.00     0.052 C
HETATM   20  C17 UNL     1      17.701  39.062  20.616  1.00  0.00     0.186 C
HETATM   21  C18 UNL     1      18.063  39.946  21.765  1.00  0.00     0.052 C
HETATM   22  C19 UNL     1      17.181  39.815  22.966  1.00  0.00     0.126 C
BRANCH  20  23
HETATM   23  N8  UNL     1      18.797  38.252  20.131  1.00  0.00    -0.075 N
ATOM     24  H83 UNL     1      19.060  37.503  20.770  1.00  0.00     0.274 HD
ATOM     25  H82 UNL     1      18.543  37.660  19.339  1.00  0.00     0.274 HD
ATOM     26  H81 UNL     1      19.563  38.894  19.925  1.00  0.00     0.274 HD
ENDBRANCH  20  23
ENDBRANCH  13  17
BRANCH  10  27
HETATM   27  N5  UNL     1      11.457  41.671  23.075  1.00  0.00    -0.213 N
HETATM   28  C10 UNL     1      11.588  42.711  22.081  1.00  0.00     0.167 C
HETATM   29  C11 UNL     1      10.303  43.522  22.128  1.00  0.00     0.188 C
HETATM   30  O1  UNL     1       9.184  42.792  21.817  1.00  0.00    -0.388 OA
HETATM   31  C12 UNL     1       9.234  41.468  22.176  1.00  0.00     0.188 C
HETATM   32  C13 UNL     1      10.124  41.210  23.387  1.00  0.00     0.167 C
ENDBRANCH  10  27
BRANCH   6  33
HETATM   33  C3  UNL     1      12.663  40.204  27.865  1.00  0.00     0.088 C
HETATM   34  C4  UNL     1      13.089  39.937  29.307  1.00  0.00     0.027 C
HETATM   35  C5  UNL     1      11.902  39.232  29.942  1.00  0.00     0.035 C
HETATM   36  C6  UNL     1      10.948  38.939  28.835  1.00  0.00     0.185 C
HETATM   37  C7  UNL     1      11.754  39.073  27.515  1.00  0.00     0.058 C
BRANCH  36  38
HETATM   38  N3  UNL     1      10.442  37.585  28.837  1.00  0.00    -0.075 N
ATOM     39  H33 UNL     1      10.739  37.089  27.997  1.00  0.00     0.274 HD
ATOM     40  H32 UNL     1      10.918  37.025  29.544  1.00  0.00     0.274 HD
ATOM     41  H31 UNL     1       9.430  37.520  28.952  1.00  0.00     0.274 HD
ENDBRANCH  36  38
ENDBRANCH   6  33
TORSDOF 5
ENDMDL