MODEL 4
REMARK VINA RESULT: -9.720137893      3.224      8.144
REMARK  5 active torsions:
REMARK  status: ('A' for Active; 'I' for Inactive)
REMARK    1  A    between atoms: O1_2  and  C2_3
REMARK    2  A    between atoms: C3_6  and  N2_7
REMARK       I    between atoms: N2_7  and  C4_9
REMARK       I    between atoms: C4_9  and  N3_11
REMARK    3  A    between atoms: N3_11  and  N4_13
REMARK       I    between atoms: N4_13  and  C5_15
REMARK    4  A    between atoms: C5_15  and  C6_17
REMARK    5  A    between atoms: C12_25  and  C13_26
ROOT
HETATM    1  C2  UNL     1      13.796  41.115  25.935  1.00  0.00     0.171 A
HETATM    2  N1  UNL     1      13.357  41.137  24.642  1.00  0.00    -0.169 N
ATOM      3  H1  UNL     1      12.547  41.705  24.395  1.00  0.00     0.186 HD
HETATM    4  C3  UNL     1      13.981  40.420  23.692  1.00  0.00     0.688 A
HETATM    5  N5  UNL     1      15.043  39.685  24.053  1.00  0.00    -0.190 N
ATOM      6  H5  UNL     1      15.519  39.140  23.334  1.00  0.00     0.184 HD
HETATM    7  C10 UNL     1      15.515  39.628  25.312  1.00  0.00     0.066 A
HETATM    8  C11 UNL     1      16.599  38.876  25.670  1.00  0.00     0.046 A
HETATM    9  C12 UNL     1      17.118  38.793  26.967  1.00  0.00     0.013 A
HETATM   10  C16 UNL     1      16.485  39.522  27.937  1.00  0.00     0.043 A
HETATM   11  C17 UNL     1      15.361  40.307  27.584  1.00  0.00     0.064 A
HETATM   12  N9  UNL     1      14.733  41.048  28.622  1.00  0.00    -0.101 NA
HETATM   13  C18 UNL     1      14.888  40.357  26.298  1.00  0.00     0.067 A
ENDROOT
BRANCH   4  14
HETATM   14  N2  UNL     1      13.562  40.439  22.450  1.00  0.00    -0.140 N
HETATM   15  C4  UNL     1      12.944  41.644  21.962  1.00  0.00     0.353 C
HETATM   16  O2  UNL     1      13.362  42.776  22.370  1.00  0.00    -0.245 OA
HETATM   17  N3  UNL     1      11.885  41.595  21.041  1.00  0.00    -0.248 N
ATOM     18  H3  UNL     1      11.546  40.692  20.711  1.00  0.00     0.192 HD
ATOM     19  H2  UNL     1      13.671  39.624  21.847  1.00  0.00     0.189 HD
BRANCH  17  20
HETATM   20  N4  UNL     1      11.293  42.762  20.573  1.00  0.00    -0.265 N
HETATM   21  C5  UNL     1      10.077  43.207  21.146  1.00  0.00     0.243 C
HETATM   22  O3  UNL     1       9.554  42.534  22.072  1.00  0.00    -0.271 OA
ATOM     23  H4  UNL     1      11.731  43.295  19.822  1.00  0.00     0.190 HD
BRANCH  21  24
HETATM   24  C6  UNL     1       9.388  44.439  20.702  1.00  0.00     0.032 C
HETATM   25  C7  UNL     1       9.970  45.000  19.426  1.00  0.00     0.025 C
HETATM   26  C8  UNL     1       9.506  45.524  21.761  1.00  0.00     0.025 C
HETATM   27  C9  UNL     1       7.940  44.113  20.432  1.00  0.00     0.025 C
ENDBRANCH  21  24
ENDBRANCH  17  20
ENDBRANCH   4  14
BRANCH   1  28
HETATM   28  O1  UNL     1      13.172  41.846  26.938  1.00  0.00    -0.340 OA
HETATM   29  C1  UNL     1      11.761  41.976  27.012  1.00  0.00     0.211 C
ENDBRANCH   1  28
BRANCH   9  30
HETATM   30  C13 UNL     1      18.256  37.920  27.158  1.00  0.00     0.133 A
HETATM   31  N6  UNL     1      18.485  37.200  28.322  1.00  0.00    -0.284 N
HETATM   32  N7  UNL     1      19.577  36.489  28.174  1.00  0.00    -0.294 N
ATOM     33  H6  UNL     1      17.899  37.219  29.157  1.00  0.00     0.188 HD
HETATM   34  C14 UNL     1      20.099  36.691  26.972  1.00  0.00     0.201 A
ATOM     35  H7  UNL     1      19.969  35.870  28.883  1.00  0.00     0.187 HD
HETATM   36  N8  UNL     1      19.251  37.593  26.353  1.00  0.00    -0.331 N
HETATM   37  C15 UNL     1      19.480  38.043  25.000  1.00  0.00     0.158 C
ENDBRANCH   9  30
TORSDOF 5
ENDMDL