MODEL 1
REMARK VINA RESULT: -9.736632111      0.000      0.000
REMARK  5 active torsions:
REMARK  status: ('A' for Active; 'I' for Inactive)
REMARK    1  A    between atoms: N3_10  and  C5_11
REMARK    2  A    between atoms: C6_14  and  N5_15
REMARK    3  A    between atoms: N5_15  and  C7_17
REMARK    4  A    between atoms: C10_20  and  N6_21
REMARK    5  A    between atoms: C14_32  and  N9_33
ROOT
HETATM    1  C5  UNL     1      13.905  40.443  24.394  1.00  0.00     0.750 A
HETATM    2  N4  UNL     1      13.814  39.889  25.620  1.00  0.00    -0.019 N
ATOM      3  H4  UNL     1      14.608  39.365  25.988  1.00  0.00     0.203 HD
HETATM    4  C6  UNL     1      12.687  40.011  26.382  1.00  0.00     0.707 A
HETATM    5  N7  UNL     1      11.690  40.716  25.827  1.00  0.00    -0.019 N
ATOM      6  H7  UNL     1      10.828  40.836  26.359  1.00  0.00     0.203 HD
HETATM    7  C13 UNL     1      11.767  41.276  24.603  1.00  0.00     0.748 A
HETATM    8  N8  UNL     1      10.929  42.008  23.843  1.00  0.00    -0.018 N
ATOM      9  H8  UNL     1       9.988  42.279  24.129  1.00  0.00     0.203 HD
HETATM   10  C14 UNL     1      11.482  42.337  22.664  1.00  0.00     0.710 A
HETATM   11  N10 UNL     1      12.705  41.780  22.712  1.00  0.00    -0.095 N
ATOM     12  H10 UNL     1      13.395  41.841  21.963  1.00  0.00     0.207 HD
HETATM   13  N11 UNL     1      12.898  41.145  23.855  1.00  0.00     0.107 N
ENDROOT
BRANCH   4  14
HETATM   14  N5  UNL     1      12.642  39.465  27.550  1.00  0.00    -0.220 N
ATOM     15  H5  UNL     1      13.483  39.047  27.950  1.00  0.00     0.178 HD
BRANCH  14  16
HETATM   16  C7  UNL     1      11.415  39.445  28.284  1.00  0.00     0.099 C
HETATM   17  C8  UNL     1      11.806  39.755  29.740  1.00  0.00     0.027 C
HETATM   18  C9  UNL     1      12.316  38.528  30.435  1.00  0.00     0.035 C
HETATM   19  C10 UNL     1      11.295  37.411  30.438  1.00  0.00     0.183 C
HETATM   20  C11 UNL     1      10.121  37.833  29.587  1.00  0.00     0.035 C
HETATM   21  C12 UNL     1      10.671  38.148  28.194  1.00  0.00     0.027 C
BRANCH  19  22
HETATM   22  N6  UNL     1      10.896  37.112  31.796  1.00  0.00    -0.075 N
ATOM     23  H63 UNL     1      10.584  37.945  32.296  1.00  0.00     0.274 HD
ATOM     24  H62 UNL     1      10.025  36.583  31.831  1.00  0.00     0.274 HD
ATOM     25  H61 UNL     1      11.653  36.633  32.283  1.00  0.00     0.274 HD
ENDBRANCH  19  22
ENDBRANCH  14  16
ENDBRANCH   4  14
BRANCH   1  26
HETATM   26  N3  UNL     1      15.118  40.278  23.636  1.00  0.00    -0.012 N
HETATM   27  C1  UNL     1      16.193  41.190  23.887  1.00  0.00     0.688 C
HETATM   28  N1  UNL     1      15.960  42.400  24.295  1.00  0.00    -0.234 N
HETATM   29  N2  UNL     1      17.519  40.730  23.677  1.00  0.00    -0.226 N
ATOM     30  H12 UNL     1      16.725  43.049  24.474  1.00  0.00     0.174 HD
ATOM     31  H11 UNL     1      15.006  42.730  24.446  1.00  0.00     0.174 HD
HETATM   32  C2  UNL     1      17.768  39.675  22.747  1.00  0.00     0.139 C
ATOM     33  H2  UNL     1      18.293  41.153  24.191  1.00  0.00     0.177 HD
HETATM   34  C3  UNL     1      16.583  39.401  21.851  1.00  0.00     0.042 C
HETATM   35  C4  UNL     1      15.299  39.267  22.644  1.00  0.00     0.168 C
ENDBRANCH   1  26
BRANCH  10  36
HETATM   36  N9  UNL     1      10.928  43.095  21.594  1.00  0.00    -0.216 N
HETATM   37  C15 UNL     1      11.318  42.860  20.236  1.00  0.00     0.141 C
HETATM   38  C16 UNL     1      10.210  43.414  19.356  1.00  0.00     0.020 C
HETATM   39  C17 UNL     1      10.200  44.902  19.527  1.00  0.00     0.003 C
HETATM   40  C18 UNL     1      10.077  45.314  20.956  1.00  0.00     0.020 C
HETATM   41  C19 UNL     1       9.951  44.127  21.875  1.00  0.00     0.141 C
ENDBRANCH  10  36
TORSDOF 5
ENDMDL