MODEL 4
REMARK VINA RESULT: -9.787964891      6.454      7.864
REMARK  3 active torsions:
REMARK  status: ('A' for Active; 'I' for Inactive)
REMARK    1  A    between atoms: C1_2  and  C2_3
REMARK       I    between atoms: C1_2  and  N5_18
REMARK    2  A    between atoms: C2_3  and  S1_4
REMARK    3  A    between atoms: S1_4  and  C3_5
ROOT
HETATM    1  O1  UNL     1       9.846  42.408  25.569  1.00  0.00    -0.273 OA
HETATM    2  C1  UNL     1       9.791  41.284  25.017  1.00  0.00     0.229 C
HETATM    3  N5  UNL     1       9.823  41.251  23.596  1.00  0.00    -0.351 N
HETATM    4  C8  UNL     1       9.762  39.991  22.850  1.00  0.00     0.127 C
HETATM    5  C9  UNL     1       8.305  39.674  22.589  1.00  0.00     0.047 C
HETATM    6  C10 UNL     1       8.069  39.070  21.231  1.00  0.00     0.234 C
HETATM    7  N6  UNL     1       8.335  40.003  20.158  1.00  0.00    -0.073 N
ATOM      8  H61 UNL     1       9.139  40.591  20.376  1.00  0.00     0.277 HD
ATOM      9  H62 UNL     1       7.613  40.720  20.111  1.00  0.00     0.277 HD
HETATM   10  C11 UNL     1       8.501  39.353  18.884  1.00  0.00     0.259 C
HETATM   11  C12 UNL     1       9.802  39.833  18.266  1.00  0.00     0.259 C
HETATM   12  N7  UNL     1       9.566  41.109  17.578  1.00  0.00    -0.072 N
ATOM     13  H71 UNL     1       8.629  41.470  17.760  1.00  0.00     0.277 HD
ATOM     14  H72 UNL     1       9.488  40.987  16.568  1.00  0.00     0.277 HD
HETATM   15  C13 UNL     1      10.595  42.078  17.927  1.00  0.00     0.249 C
HETATM   16  C14 UNL     1       9.971  43.329  18.483  1.00  0.00     0.150 C
HETATM   17  N8  UNL     1       9.995  43.359  19.915  1.00  0.00    -0.177 NA
HETATM   18  S2  UNL     1      11.537  42.836  20.586  1.00  0.00    -0.064 SA
HETATM   19  C15 UNL     1      11.351  42.737  22.384  1.00  0.00     0.112 C
HETATM   20  C16 UNL     1       9.918  42.459  22.796  1.00  0.00     0.137 C
ENDROOT
BRANCH   2  21
HETATM   21  C2  UNL     1       9.698  40.037  25.787  1.00  0.00     0.183 C
BRANCH  21  22
HETATM   22  S1  UNL     1      11.181  39.651  26.714  1.00  0.00    -0.102 SA
BRANCH  22  23
HETATM   23  C3  UNL     1      10.867  38.771  28.222  1.00  0.00     0.086 A
HETATM   24  C4  UNL     1      11.678  39.070  29.300  1.00  0.00     0.055 A
HETATM   25  C5  UNL     1      11.537  38.459  30.517  1.00  0.00     0.030 A
HETATM   26  C6  UNL     1      12.177  38.544  31.748  1.00  0.00     0.122 A
HETATM   27  C7  UNL     1      10.535  37.516  30.629  1.00  0.00     0.146 A
HETATM   28  N1  UNL     1      11.559  37.669  32.555  1.00  0.00    -0.309 N
HETATM   29  N2  UNL     1      10.601  37.069  31.901  1.00  0.00    -0.284 N
ATOM     30  H1  UNL     1      11.801  37.498  33.531  1.00  0.00     0.186 HD
ATOM     31  H2  UNL     1       9.986  36.358  32.298  1.00  0.00     0.188 HD
HETATM   32  N3  UNL     1       9.777  37.265  29.550  1.00  0.00    -0.283 N
HETATM   33  N4  UNL     1       9.911  37.852  28.378  1.00  0.00    -0.293 N
ATOM     34  H3  UNL     1       9.041  36.566  29.645  1.00  0.00     0.188 HD
ATOM     35  H4  UNL     1       9.295  37.607  27.602  1.00  0.00     0.187 HD
ENDBRANCH  22  23
ENDBRANCH  21  22
ENDBRANCH   2  21
TORSDOF 3
ENDMDL