MODEL 4
REMARK VINA RESULT: -9.592574485      2.858      8.440
REMARK  5 active torsions:
REMARK  status: ('A' for Active; 'I' for Inactive)
REMARK    1  A    between atoms: N2_5  and  C4_6
REMARK    2  A    between atoms: C5_9  and  C6_10
REMARK    3  A    between atoms: C8_14  and  N5_15
REMARK    4  A    between atoms: C11_25  and  N8_26
REMARK    5  A    between atoms: N8_26  and  C12_28
ROOT
HETATM    1  C4  UNL     1      13.247  40.264  25.439  1.00  0.00     0.135 A
HETATM    2  N3  UNL     1      12.921  39.675  26.599  1.00  0.00    -0.326 N
ATOM      3  H3  UNL     1      13.647  39.133  27.066  1.00  0.00     0.169 HD
HETATM    4  C5  UNL     1      11.729  39.738  27.192  1.00  0.00     0.120 A
HETATM    5  N7  UNL     1      10.785  40.456  26.564  1.00  0.00    -0.334 N
ATOM      6  H7  UNL     1       9.857  40.533  26.979  1.00  0.00     0.168 HD
HETATM    7  C10 UNL     1      11.043  41.087  25.376  1.00  0.00     0.110 A
HETATM    8  S1  UNL     1      10.146  42.067  24.302  1.00  0.00    -0.034 SA
HETATM    9  C11 UNL     1      11.374  42.347  23.129  1.00  0.00     0.147 A
HETATM   10  N10 UNL     1      12.405  41.670  23.632  1.00  0.00    -0.331 N
ATOM     11  H10 UNL     1      13.299  41.654  23.140  1.00  0.00     0.168 HD
HETATM   12  C17 UNL     1      12.262  41.025  24.767  1.00  0.00     0.113 A
ENDROOT
BRANCH   4  13
HETATM   13  C6  UNL     1      11.491  39.056  28.454  1.00  0.00     0.040 A
HETATM   14  C7  UNL     1      10.700  37.934  28.532  1.00  0.00     0.122 A
HETATM   15  N4  UNL     1      10.472  37.297  29.708  1.00  0.00    -0.201 N
HETATM   16  C8  UNL     1      11.025  37.760  30.844  1.00  0.00     0.675 A
ATOM     17  H4  UNL     1       9.881  36.467  29.731  1.00  0.00     0.183 HD
HETATM   18  N6  UNL     1      11.794  38.847  30.773  1.00  0.00    -0.201 N
HETATM   19  C9  UNL     1      12.044  39.504  29.635  1.00  0.00     0.122 A
ATOM     20  H6  UNL     1      12.215  39.197  31.634  1.00  0.00     0.183 HD
BRANCH  16  21
HETATM   21  N5  UNL     1      10.803  37.152  31.968  1.00  0.00    -0.234 N
ATOM     22  H52 UNL     1      10.194  36.337  32.027  1.00  0.00     0.174 HD
ATOM     23  H51 UNL     1      11.244  37.486  32.826  1.00  0.00     0.174 HD
ENDBRANCH  16  21
ENDBRANCH   4  13
BRANCH   1  24
HETATM   24  N2  UNL     1      14.564  40.101  24.909  1.00  0.00    -0.362 N
HETATM   25  C3  UNL     1      15.680  40.036  25.796  1.00  0.00     0.154 C
HETATM   26  C2  UNL     1      16.764  39.105  25.306  1.00  0.00     0.291 C
HETATM   27  N1  UNL     1      17.104  39.272  23.936  1.00  0.00     0.087 N
HETATM   28  C1  UNL     1      18.508  39.540  23.780  1.00  0.00     0.310 C
HETATM   29  C19 UNL     1      16.297  40.221  23.210  1.00  0.00     0.291 C
HETATM   30  C18 UNL     1      14.826  39.998  23.489  1.00  0.00     0.154 C
ENDBRANCH   1  24
BRANCH   9  31
HETATM   31  N8  UNL     1      11.301  43.061  22.044  1.00  0.00    -0.364 N
ATOM     32  H8  UNL     1      12.175  43.307  21.579  1.00  0.00     0.162 HD
BRANCH  31  33
HETATM   33  C12 UNL     1      10.073  43.531  21.451  1.00  0.00     0.109 C
HETATM   34  C13 UNL     1      10.307  44.803  20.703  1.00  0.00     0.028 C
HETATM   35  C14 UNL     1       9.384  44.825  19.500  1.00  0.00     0.029 C
HETATM   36  C15 UNL     1       8.043  44.294  19.974  1.00  0.00     0.232 C
HETATM   37  N9  UNL     1       8.126  42.860  20.218  1.00  0.00    -0.073 N
HETATM   38  C16 UNL     1       9.479  42.474  20.528  1.00  0.00     0.257 C
ATOM     39  H92 UNL     1       7.473  42.560  20.943  1.00  0.00     0.277 HD
ATOM     40  H91 UNL     1       7.748  42.320  19.439  1.00  0.00     0.277 HD
ENDBRANCH  31  33
ENDBRANCH   9  31
TORSDOF 5
ENDMDL