MODEL 2
REMARK VINA RESULT: -7.859725478      4.159      6.947
REMARK  9 active torsions:
REMARK  status: ('A' for Active; 'I' for Inactive)
REMARK    1  A    between atoms: O1_2  and  C2_3
REMARK    2  A    between atoms: C2_3  and  C5_6
REMARK       I    between atoms: C5_6  and  N1_8
REMARK    3  A    between atoms: N1_8  and  C6_10
REMARK    4  A    between atoms: C6_10  and  C7_11
REMARK    5  A    between atoms: C6_10  and  C9_24
REMARK       I    between atoms: C7_11  and  N2_13
REMARK       I    between atoms: N2_13  and  C8_15
REMARK       I    between atoms: C8_15  and  N3_16
REMARK       I    between atoms: C8_15  and  N4_20
REMARK    6  A    between atoms: C9_24  and  N5_25
REMARK    7  A    between atoms: C9_24  and  C10_29
REMARK    8  A    between atoms: C10_29  and  O5_31
REMARK    9  A    between atoms: O5_31  and  C11_32
ROOT
HETATM    1  C6  UNL     1      19.110  35.851  25.399  1.00  0.00     0.217 C
ENDROOT
BRANCH   1   2
HETATM    2  N1  UNL     1      19.549  34.728  26.153  1.00  0.00    -0.343 N
HETATM    3  C5  UNL     1      19.184  34.615  27.526  1.00  0.00     0.252 C
HETATM    4  O2  UNL     1      18.472  35.520  28.045  1.00  0.00    -0.270 OA
ATOM      5  H1  UNL     1      20.123  34.008  25.714  1.00  0.00     0.163 HD
BRANCH   3   6
HETATM    6  C2  UNL     1      19.620  33.457  28.356  1.00  0.00     0.133 C
HETATM    7  C3  UNL     1      19.022  33.682  29.747  1.00  0.00     0.056 C
HETATM    8  C4  UNL     1      19.015  32.215  27.758  1.00  0.00     0.056 C
BRANCH   6   9
HETATM    9  O1  UNL     1      20.998  33.442  28.394  1.00  0.00    -0.376 OA
HETATM   10  C1  UNL     1      21.505  32.276  28.950  1.00  0.00     0.203 C
ENDBRANCH   6   9
ENDBRANCH   3   6
ENDBRANCH   1   2
BRANCH   1  11
HETATM   11  C7  UNL     1      18.146  35.451  24.328  1.00  0.00     0.245 C
HETATM   12  O3  UNL     1      17.156  34.766  24.645  1.00  0.00    -0.271 OA
HETATM   13  N2  UNL     1      18.334  35.829  22.977  1.00  0.00    -0.310 N
HETATM   14  C8  UNL     1      17.394  35.435  21.950  1.00  0.00     0.482 C
ATOM     15  H2  UNL     1      19.147  36.389  22.722  1.00  0.00     0.166 HD
HETATM   16  N3  UNL     1      18.041  34.571  20.957  1.00  0.00    -0.033 N
HETATM   17  N4  UNL     1      16.810  36.601  21.317  1.00  0.00    -0.033 N
ATOM     18  H33 UNL     1      18.873  35.008  20.560  1.00  0.00     0.278 HD
ATOM     19  H32 UNL     1      18.485  33.762  21.393  1.00  0.00     0.278 HD
ATOM     20  H31 UNL     1      17.379  34.293  20.233  1.00  0.00     0.278 HD
ATOM     21  H43 UNL     1      16.383  37.228  22.000  1.00  0.00     0.278 HD
ATOM     22  H42 UNL     1      17.523  37.233  20.954  1.00  0.00     0.278 HD
ATOM     23  H41 UNL     1      16.147  36.323  20.593  1.00  0.00     0.278 HD
ENDBRANCH   1  11
BRANCH   1  24
HETATM   24  C9  UNL     1      20.239  36.626  24.763  1.00  0.00     0.314 C
BRANCH  24  25
HETATM   25  N5  UNL     1      20.287  37.942  25.361  1.00  0.00    -0.063 N
ATOM     26  H53 UNL     1      20.254  38.688  24.667  1.00  0.00     0.275 HD
ATOM     27  H52 UNL     1      19.430  38.176  25.860  1.00  0.00     0.275 HD
ATOM     28  H51 UNL     1      21.114  37.998  25.955  1.00  0.00     0.275 HD
ENDBRANCH  24  25
BRANCH  24  29
HETATM   29  C10 UNL     1      21.537  35.917  24.880  1.00  0.00     0.298 C
HETATM   30  O4  UNL     1      22.418  36.425  25.620  1.00  0.00    -0.262 OA
BRANCH  29  31
HETATM   31  O5  UNL     1      21.828  34.749  24.231  1.00  0.00    -0.270 OA
BRANCH  31  32
HETATM   32  C11 UNL     1      22.954  33.960  24.633  1.00  0.00     0.123 C
HETATM   33  C12 UNL     1      22.810  32.974  25.457  1.00  0.00     0.030 C
HETATM   34  C13 UNL     1      23.957  32.163  25.870  1.00  0.00     0.117 C
HETATM   35  S1  UNL     1      25.471  33.166  25.740  1.00  0.00    -0.087 SA
HETATM   36  S2  UNL     1      24.627  34.253  24.053  1.00  0.00    -0.032 SA
ENDBRANCH  31  32
ENDBRANCH  29  31
ENDBRANCH  24  29
ENDBRANCH   1  24
TORSDOF 9
ENDMDL