MODEL 3
REMARK VINA RESULT: -6.462015209      1.672      4.172
REMARK  11 active torsions:
REMARK  status: ('A' for Active; 'I' for Inactive)
REMARK    1  A    between atoms: O1_2  and  C2_3
REMARK    2  A    between atoms: C5_6  and  O2_7
REMARK    3  A    between atoms: C8_11  and  O3_12
REMARK    4  A    between atoms: C9_14  and  C10_15
REMARK    5  A    between atoms: C9_14  and  C11_18
REMARK    6  A    between atoms: C10_15  and  O4_16
REMARK    7  A    between atoms: C11_18  and  O5_19
REMARK    8  A    between atoms: O5_19  and  N1_20
REMARK    9  A    between atoms: N1_20  and  S1_22
REMARK   10  A    between atoms: S1_22  and  C12_25
REMARK   11  A    between atoms: C12_25  and  N2_26
ROOT
HETATM    1  C2  UNL     1      19.464  33.930  27.917  1.00  0.00     0.110 A
HETATM    2  C3  UNL     1      20.581  33.165  28.152  1.00  0.00     0.008 A
HETATM    3  C4  UNL     1      20.563  32.130  29.224  1.00  0.00     0.054 C
HETATM    4  C5  UNL     1      21.729  33.351  27.394  1.00  0.00     0.089 A
HETATM    5  C6  UNL     1      21.805  34.297  26.383  1.00  0.00     0.062 A
HETATM    6  C7  UNL     1      20.685  35.062  26.147  1.00  0.00     0.016 A
HETATM    7  C8  UNL     1      19.529  34.874  26.913  1.00  0.00     0.108 A
HETATM    8  C9  UNL     1      20.963  35.982  25.024  1.00  0.00     0.104 A
HETATM    9  C13 UNL     1      22.378  35.775  24.661  1.00  0.00     0.217 A
HETATM   10  O8  UNL     1      23.003  36.425  23.795  1.00  0.00    -0.287 OA
HETATM   11  C14 UNL     1      22.883  34.702  25.483  1.00  0.00     0.232 A
HETATM   12  O9  UNL     1      24.057  34.235  25.395  1.00  0.00    -0.283 OA
ENDROOT
BRANCH   8  13
HETATM   13  C10 UNL     1      20.834  37.424  25.458  1.00  0.00     0.189 C
BRANCH  13  14
HETATM   14  O4  UNL     1      19.582  37.874  25.080  1.00  0.00    -0.399 OA
ATOM     15  H4  UNL     1      19.245  38.425  25.776  1.00  0.00     0.209 HD
ENDBRANCH  13  14
ENDBRANCH   8  13
BRANCH   8  16
HETATM   16  C11 UNL     1      20.175  35.684  23.777  1.00  0.00     0.227 C
BRANCH  16  17
HETATM   17  O5  UNL     1      18.849  35.449  23.942  1.00  0.00    -0.269 OA
BRANCH  17  18
HETATM   18  N1  UNL     1      18.064  35.769  22.929  1.00  0.00    -0.191 N
ATOM     19  H1  UNL     1      18.055  35.217  22.071  1.00  0.00     0.207 HD
BRANCH  18  20
HETATM   20  S1  UNL     1      17.073  37.128  23.107  1.00  0.00     0.273 S
HETATM   21  O6  UNL     1      17.808  38.404  22.801  1.00  0.00    -0.202 OA
HETATM   22  O7  UNL     1      16.681  37.231  24.575  1.00  0.00    -0.202 OA
BRANCH  20  23
HETATM   23  C12 UNL     1      15.581  37.047  22.154  1.00  0.00     0.393 C
BRANCH  23  24
HETATM   24  N2  UNL     1      14.681  36.070  22.737  1.00  0.00    -0.065 N
ATOM     25  H23 UNL     1      15.155  35.195  22.958  1.00  0.00     0.275 HD
ATOM     26  H22 UNL     1      14.396  36.327  23.682  1.00  0.00     0.275 HD
ATOM     27  H21 UNL     1      13.880  35.928  22.120  1.00  0.00     0.275 HD
ENDBRANCH  23  24
ENDBRANCH  20  23
ENDBRANCH  18  20
ENDBRANCH  17  18
ENDBRANCH  16  17
ENDBRANCH   8  16
BRANCH   7  28
HETATM   28  O3  UNL     1      18.396  35.638  26.691  1.00  0.00    -0.357 OA
ATOM     29  H3  UNL     1      17.603  35.175  26.448  1.00  0.00     0.217 HD
ENDBRANCH   7  28
BRANCH   4  30
HETATM   30  O2  UNL     1      22.842  32.565  27.651  1.00  0.00    -0.359 OA
ATOM     31  H2  UNL     1      23.682  32.986  27.791  1.00  0.00     0.217 HD
ENDBRANCH   4  30
BRANCH   1  32
HETATM   32  O1  UNL     1      18.296  33.754  28.675  1.00  0.00    -0.352 OA
HETATM   33  C1  UNL     1      18.278  34.346  29.958  1.00  0.00     0.210 C
ENDBRANCH   1  32
TORSDOF 11
ENDMDL