MODEL 1
REMARK VINA RESULT: -8.993078550      0.000      0.000
REMARK  9 active torsions:
REMARK  status: ('A' for Active; 'I' for Inactive)
REMARK    1  A    between atoms: O1_2  and  N1_3
REMARK    2  A    between atoms: N1_3  and  C2_4
REMARK    3  A    between atoms: C2_4  and  C3_5
REMARK    4  A    between atoms: C2_4  and  C10_14
REMARK    5  A    between atoms: C3_5  and  C4_6
REMARK    6  A    between atoms: C7_9  and  O2_10
REMARK       I    between atoms: C10_14  and  N2_16
REMARK    7  A    between atoms: N2_16  and  N3_18
REMARK    8  A    between atoms: N3_18  and  C11_20
REMARK    9  A    between atoms: N4_22  and  N5_23
ROOT
HETATM    1  N5  UNL     1      18.846  33.430  27.712  1.00  0.00    -0.222 N
HETATM    2  C13 UNL     1      18.452  32.072  27.555  1.00  0.00     0.192 C
HETATM    3  C14 UNL     1      18.512  34.086  28.921  1.00  0.00     0.200 C
HETATM    4  N6  UNL     1      18.244  34.606  29.960  1.00  0.00    -0.170 NA
ENDROOT
BRANCH   1   5
HETATM    5  N4  UNL     1      19.555  34.159  26.793  1.00  0.00    -0.203 N
HETATM    6  C12 UNL     1      19.039  34.939  25.806  1.00  0.00     0.159 A
HETATM    7  C11 UNL     1      19.783  35.595  24.849  1.00  0.00     0.134 A
HETATM    8  C16 UNL     1      21.180  35.437  24.914  1.00  0.00     0.279 A
HETATM    9  N7  UNL     1      21.686  34.672  25.887  1.00  0.00    -0.272 N
HETATM   10  O5  UNL     1      21.919  36.016  24.065  1.00  0.00    -0.265 OA
HETATM   11  C15 UNL     1      20.910  34.056  26.790  1.00  0.00     0.348 A
ATOM     12  H7  UNL     1      22.697  34.552  25.944  1.00  0.00     0.174 HD
HETATM   13  O4  UNL     1      21.436  33.338  27.697  1.00  0.00    -0.245 OA
BRANCH   7  14
HETATM   14  N3  UNL     1      19.247  36.265  23.725  1.00  0.00    -0.292 N
ATOM     15  H3  UNL     1      19.806  37.069  23.441  1.00  0.00     0.187 HD
BRANCH  14  16
HETATM   16  N2  UNL     1      18.181  36.085  22.953  1.00  0.00    -0.268 N
HETATM   17  C10 UNL     1      16.854  36.568  23.119  1.00  0.00     0.258 C
HETATM   18  O3  UNL     1      16.473  37.257  24.090  1.00  0.00    -0.270 OA
ATOM     19  H2  UNL     1      18.336  35.517  22.121  1.00  0.00     0.190 HD
BRANCH  17  20
HETATM   20  C2  UNL     1      15.849  36.199  22.027  1.00  0.00     0.204 C
BRANCH  20  21
HETATM   21  N1  UNL     1      16.296  35.012  21.426  1.00  0.00    -0.087 NA
BRANCH  21  22
HETATM   22  O1  UNL     1      17.082  35.208  20.341  1.00  0.00    -0.291 OA
HETATM   23  C1  UNL     1      17.674  33.993  19.972  1.00  0.00     0.231 C
ENDBRANCH  21  22
ENDBRANCH  20  21
BRANCH  20  24
HETATM   24  C3  UNL     1      15.472  37.386  21.199  1.00  0.00     0.072 C
BRANCH  24  25
HETATM   25  C4  UNL     1      14.078  37.770  21.714  1.00  0.00    -0.056 A
HETATM   26  C5  UNL     1      13.172  36.933  22.261  1.00  0.00     0.010 A
HETATM   27  C6  UNL     1      11.888  37.395  22.549  1.00  0.00     0.037 A
HETATM   28  C7  UNL     1      11.493  38.693  22.290  1.00  0.00     0.065 A
HETATM   29  C8  UNL     1      12.439  39.551  21.726  1.00  0.00     0.037 A
HETATM   30  C9  UNL     1      13.683  39.086  21.456  1.00  0.00     0.010 A
BRANCH  28  31
HETATM   31  O2  UNL     1      10.228  39.163  22.571  1.00  0.00    -0.361 OA
ATOM     32  H2  UNL     1       9.928  39.345  23.453  1.00  0.00     0.217 HD
ENDBRANCH  28  31
ENDBRANCH  24  25
ENDBRANCH  20  24
ENDBRANCH  17  20
ENDBRANCH  14  16
ENDBRANCH   7  14
ENDBRANCH   1   5
TORSDOF 9
ENDMDL