MODEL 2
REMARK VINA RESULT: -8.894373166      2.914      5.203
REMARK  11 active torsions:
REMARK  status: ('A' for Active; 'I' for Inactive)
REMARK    1  A    between atoms: O1_2  and  N1_3
REMARK    2  A    between atoms: C2_5  and  N2_6
REMARK    3  A    between atoms: C2_5  and  C7_16
REMARK    4  A    between atoms: N2_6  and  C3_8
REMARK    5  A    between atoms: C3_8  and  O2_9
REMARK    6  A    between atoms: C3_8  and  C4_11
REMARK    7  A    between atoms: C4_11  and  O3_14
REMARK    8  A    between atoms: C7_16  and  N3_18
REMARK    9  A    between atoms: N3_18  and  C9_20
REMARK   10  A    between atoms: C9_20  and  C10_21
REMARK   11  A    between atoms: C11_22  and  N4_23
ROOT
HETATM    1  C9  UNL     1      17.226  35.708  22.049  1.00  0.00     0.111 C
HETATM    2  N6  UNL     1      17.341  34.782  21.264  1.00  0.00    -0.280 N
ATOM      3  H6  UNL     1      18.252  34.373  21.468  1.00  0.00     0.179 HD
HETATM    4  C16 UNL     1      16.855  34.063  20.286  1.00  0.00     0.183 C
HETATM    5  N7  UNL     1      16.452  33.423  19.433  1.00  0.00    -0.172 NA
ENDROOT
BRANCH   1   6
HETATM    6  N3  UNL     1      18.317  35.978  23.001  1.00  0.00    -0.365 N
ATOM      7  H3  UNL     1      19.283  35.875  22.691  1.00  0.00     0.162 HD
BRANCH   6   8
HETATM    8  C7  UNL     1      18.058  36.381  24.352  1.00  0.00     0.148 C
HETATM    9  C8  UNL     1      18.537  37.825  24.483  1.00  0.00     0.040 C
BRANCH   8  10
HETATM   10  C2  UNL     1      18.765  35.503  25.302  1.00  0.00     0.122 C
HETATM   11  N1  UNL     1      20.037  35.368  25.209  1.00  0.00    -0.253 N
ATOM     12  H1  UNL     1      20.499  34.754  25.880  1.00  0.00     0.195 HD
BRANCH  11  13
HETATM   13  O1  UNL     1      20.817  35.986  24.276  1.00  0.00    -0.284 OA
HETATM   14  C1  UNL     1      22.181  36.253  24.542  1.00  0.00     0.237 C
ENDBRANCH  11  13
BRANCH  10  15
HETATM   15  N2  UNL     1      18.079  34.799  26.322  1.00  0.00    -0.348 N
ATOM     16  H2  UNL     1      17.218  34.288  26.126  1.00  0.00     0.163 HD
BRANCH  15  17
HETATM   17  C3  UNL     1      18.649  34.834  27.654  1.00  0.00     0.252 C
BRANCH  17  18
HETATM   18  O2  UNL     1      18.244  35.940  28.362  1.00  0.00    -0.374 OA
ATOM     19  H2  UNL     1      18.979  36.443  28.690  1.00  0.00     0.212 HD
ENDBRANCH  17  18
BRANCH  17  20
HETATM   20  C4  UNL     1      18.325  33.589  28.444  1.00  0.00     0.094 C
HETATM   21  C5  UNL     1      19.420  33.444  29.496  1.00  0.00     0.050 C
HETATM   22  C6  UNL     1      18.253  32.366  27.552  1.00  0.00     0.050 C
BRANCH  20  23
HETATM   23  O3  UNL     1      17.105  33.696  29.108  1.00  0.00    -0.386 OA
ATOM     24  H3  UNL     1      16.861  32.885  29.536  1.00  0.00     0.210 HD
ENDBRANCH  20  23
ENDBRANCH  17  20
ENDBRANCH  15  17
ENDBRANCH  10  15
ENDBRANCH   8  10
ENDBRANCH   6   8
ENDBRANCH   1   6
BRANCH   1  25
HETATM   25  C10 UNL     1      16.078  36.635  22.169  1.00  0.00     0.066 C
HETATM   26  C11 UNL     1      14.846  36.264  22.134  1.00  0.00     0.105 C
BRANCH  26  27
HETATM   27  N4  UNL     1      13.672  37.056  22.239  1.00  0.00    -0.285 N
HETATM   28  C12 UNL     1      13.687  38.315  21.681  1.00  0.00     0.106 A
HETATM   29  C13 UNL     1      12.599  39.146  21.736  1.00  0.00     0.092 A
HETATM   30  C14 UNL     1      11.437  38.752  22.357  1.00  0.00     0.250 A
HETATM   31  O4  UNL     1      10.433  39.504  22.412  1.00  0.00    -0.268 OA
HETATM   32  N5  UNL     1      11.434  37.529  22.894  1.00  0.00    -0.275 N
HETATM   33  C15 UNL     1      12.536  36.709  22.829  1.00  0.00     0.333 A
ATOM     34  H5  UNL     1      10.593  37.195  23.364  1.00  0.00     0.173 HD
HETATM   35  O5  UNL     1      12.409  35.590  23.368  1.00  0.00    -0.246 OA
ENDBRANCH  26  27
ENDBRANCH   1  25
TORSDOF 11
ENDMDL