MODEL 5
REMARK VINA RESULT: -6.099516862      3.336      5.900
REMARK  10 active torsions:
REMARK  status: ('A' for Active; 'I' for Inactive)
REMARK    1  A    between atoms: O1_2  and  C2_3
REMARK    2  A    between atoms: C2_3  and  C3_5
REMARK    3  A    between atoms: C3_5  and  C5_7
REMARK    4  A    between atoms: C3_5  and  S2_22
REMARK    5  A    between atoms: C5_7  and  S1_8
REMARK    6  A    between atoms: S1_8  and  C6_9
REMARK    7  A    between atoms: C8_16  and  N3_17
REMARK    8  A    between atoms: S2_22  and  C9_25
REMARK    9  A    between atoms: C9_25  and  C12_28
REMARK   10  A    between atoms: C12_28  and  O6_29
ROOT
HETATM    1  C3  UNL     1      19.152  33.917  26.884  1.00  0.00     0.157 C
HETATM    2  C4  UNL     1      18.459  32.585  26.755  1.00  0.00     0.044 C
ENDROOT
BRANCH   1   3
HETATM    3  C2  UNL     1      18.866  34.528  28.200  1.00  0.00     0.282 C
HETATM    4  O2  UNL     1      18.474  35.717  28.248  1.00  0.00    -0.263 OA
BRANCH   3   5
HETATM    5  O1  UNL     1      19.008  33.859  29.400  1.00  0.00    -0.325 OA
HETATM    6  C1  UNL     1      18.058  34.019  30.458  1.00  0.00     0.213 C
ENDBRANCH   3   5
ENDBRANCH   1   3
BRANCH   1   7
HETATM    7  C5  UNL     1      18.571  34.785  25.757  1.00  0.00     0.118 C
BRANCH   7   8
HETATM    8  S1  UNL     1      16.998  34.125  25.170  1.00  0.00    -0.091 SA
BRANCH   8   9
HETATM    9  C6  UNL     1      16.618  34.963  23.635  1.00  0.00     0.163 A
HETATM   10  N1  UNL     1      17.217  34.663  22.469  1.00  0.00    -0.288 N
HETATM   11  C7  UNL     1      16.935  35.290  21.313  1.00  0.00     0.340 A
ATOM     12  H1  UNL     1      17.921  33.924  22.461  1.00  0.00     0.172 HD
HETATM   13  O3  UNL     1      17.530  34.965  20.254  1.00  0.00    -0.246 OA
HETATM   14  N2  UNL     1      16.014  36.270  21.287  1.00  0.00    -0.141 N
HETATM   15  C8  UNL     1      15.402  36.587  22.437  1.00  0.00     0.681 A
ATOM     16  H2  UNL     1      15.787  36.757  20.419  1.00  0.00     0.189 HD
HETATM   17  N4  UNL     1      15.690  35.956  23.587  1.00  0.00    -0.170 N
ATOM     18  H4  UNL     1      15.203  36.227  24.441  1.00  0.00     0.186 HD
BRANCH  15  19
HETATM   19  N3  UNL     1      14.514  37.516  22.463  1.00  0.00    -0.234 N
ATOM     20  H32 UNL     1      14.247  37.900  23.370  1.00  0.00     0.174 HD
ATOM     21  H31 UNL     1      14.097  37.852  21.594  1.00  0.00     0.174 HD
ENDBRANCH  15  19
ENDBRANCH   8   9
ENDBRANCH   7   8
ENDBRANCH   1   7
BRANCH   1  22
HETATM   22  S2  UNL     1      20.872  33.827  26.517  1.00  0.00     0.172 S
HETATM   23  O4  UNL     1      21.616  33.800  27.826  1.00  0.00    -0.226 OA
HETATM   24  O5  UNL     1      21.139  32.531  25.830  1.00  0.00    -0.226 OA
BRANCH  22  25
HETATM   25  C9  UNL     1      21.489  35.131  25.548  1.00  0.00     0.079 C
HETATM   26  C10 UNL     1      20.875  36.476  25.888  1.00  0.00     0.034 C
HETATM   27  C11 UNL     1      22.981  35.259  25.906  1.00  0.00     0.034 C
BRANCH  25  28
HETATM   28  C12 UNL     1      21.432  34.893  24.068  1.00  0.00     0.189 C
BRANCH  28  29
HETATM   29  O6  UNL     1      22.493  34.018  23.731  1.00  0.00    -0.399 OA
ATOM     30  H6  UNL     1      22.274  33.605  22.905  1.00  0.00     0.209 HD
ENDBRANCH  28  29
ENDBRANCH  25  28
ENDBRANCH  22  25
ENDBRANCH   1  22
TORSDOF 10
ENDMDL