MODEL 3
REMARK VINA RESULT: -6.483188749      1.518      3.406
REMARK  9 active torsions:
REMARK  status: ('A' for Active; 'I' for Inactive)
REMARK    1  A    between atoms: C2_3  and  N2_4
REMARK    2  A    between atoms: N2_4  and  C3_6
REMARK    3  A    between atoms: C3_6  and  C4_7
REMARK    4  A    between atoms: C4_7  and  N3_8
REMARK    5  A    between atoms: N3_8  and  C5_10
REMARK    6  A    between atoms: C5_10  and  C6_11
REMARK    7  A    between atoms: C6_11  and  O1_12
REMARK    8  A    between atoms: C7_14  and  N4_15
REMARK    9  A    between atoms: C11_22  and  N5_23
ROOT
HETATM    1  C1  UNL     1      18.335  35.288  27.189  1.00  0.00     0.161 C
HETATM    2  N1  UNL     1      19.669  34.819  26.899  1.00  0.00    -0.302 N
HETATM    3  C2  UNL     1      20.409  35.382  25.946  1.00  0.00     0.141 A
HETATM    4  C7  UNL     1      21.715  34.882  25.707  1.00  0.00     0.170 A
HETATM    5  C8  UNL     1      22.193  33.827  26.463  1.00  0.00     0.131 A
HETATM    6  C9  UNL     1      21.433  33.252  27.438  1.00  0.00     0.075 A
HETATM    7  C10 UNL     1      20.173  33.774  27.630  1.00  0.00     0.259 A
HETATM    8  O4  UNL     1      19.413  33.286  28.520  1.00  0.00    -0.267 OA
HETATM    9  C11 UNL     1      21.846  32.161  28.287  1.00  0.00     0.315 C
HETATM   10  C12 UNL     1      23.278  31.969  28.508  1.00  0.00     0.266 C
HETATM   11  O5  UNL     1      23.646  31.441  29.593  1.00  0.00    -0.270 OA
HETATM   12  N6  UNL     1      24.285  32.335  27.594  1.00  0.00    -0.248 N
ATOM     13  H6  UNL     1      25.264  32.105  27.763  1.00  0.00     0.182 HD
HETATM   14  S1  UNL     1      23.797  33.181  26.187  1.00  0.00     0.268 S
HETATM   15  O6  UNL     1      23.743  32.209  25.042  1.00  0.00    -0.200 OA
HETATM   16  O7  UNL     1      24.755  34.313  25.880  1.00  0.00    -0.200 OA
ENDROOT
BRANCH   3  17
HETATM   17  N2  UNL     1      20.005  36.448  25.117  1.00  0.00    -0.372 N
ATOM     18  H2  UNL     1      20.468  37.333  25.326  1.00  0.00     0.161 HD
BRANCH  17  19
HETATM   19  C3  UNL     1      19.072  36.523  24.042  1.00  0.00     0.140 C
BRANCH  19  20
HETATM   20  C4  UNL     1      18.043  37.638  24.282  1.00  0.00     0.133 C
BRANCH  20  21
HETATM   21  N3  UNL     1      16.713  37.192  24.398  1.00  0.00    -0.418 N
ATOM     22  H3  UNL     1      16.063  37.660  25.029  1.00  0.00     0.153 HD
BRANCH  21  23
HETATM   23  C5  UNL     1      16.294  36.084  23.623  1.00  0.00     0.139 C
BRANCH  23  24
HETATM   24  C6  UNL     1      15.409  36.654  22.501  1.00  0.00     0.183 C
BRANCH  24  25
HETATM   25  O1  UNL     1      14.152  36.049  22.477  1.00  0.00    -0.399 OA
ATOM     26  H1  UNL     1      13.582  36.397  23.152  1.00  0.00     0.209 HD
ENDBRANCH  24  25
ENDBRANCH  23  24
ENDBRANCH  21  23
ENDBRANCH  20  21
ENDBRANCH  19  20
ENDBRANCH  17  19
ENDBRANCH   3  17
BRANCH   4  27
HETATM   27  N4  UNL     1      22.545  35.435  24.716  1.00  0.00    -0.110 N
HETATM   28  O2  UNL     1      22.810  34.876  23.637  1.00  0.00    -0.532 OA
HETATM   29  O3  UNL     1      23.095  36.685  24.962  1.00  0.00    -0.532 OA
ENDBRANCH   4  27
BRANCH   9  30
HETATM   30  N5  UNL     1      21.267  32.428  29.620  1.00  0.00    -0.062 N
ATOM     31  H53 UNL     1      21.229  33.420  29.854  1.00  0.00     0.275 HD
ATOM     32  H52 UNL     1      20.265  32.247  29.669  1.00  0.00     0.275 HD
ATOM     33  H51 UNL     1      21.810  31.876  30.285  1.00  0.00     0.275 HD
ENDBRANCH   9  30
TORSDOF 9
ENDMDL