MODEL 5
REMARK VINA RESULT: -7.036539849      0.486      1.064
REMARK  11 active torsions:
REMARK  status: ('A' for Active; 'I' for Inactive)
REMARK    1  A    between atoms: C2_2  and  O1_3
REMARK    2  A    between atoms: O1_3  and  C3_4
REMARK    3  A    between atoms: C3_4  and  C4_5
REMARK    4  A    between atoms: C4_5  and  N1_6
REMARK    5  A    between atoms: N1_6  and  C5_8
REMARK    6  A    between atoms: C6_11  and  N3_12
REMARK    7  A    between atoms: C9_16  and  C10_17
REMARK    8  A    between atoms: N5_18  and  N6_20
REMARK    9  A    between atoms: N6_20  and  C11_22
REMARK   10  A    between atoms: C14_29  and  O2_30
REMARK   11  A    between atoms: C15_32  and  C16_33
ROOT
HETATM    1  N3  UNL     1      18.549  34.040  27.361  1.00  0.00    -0.274 N
HETATM    2  C7  UNL     1      18.291  34.532  28.699  1.00  0.00     0.170 C
HETATM    3  C8  UNL     1      17.553  33.303  26.694  1.00  0.00     0.185 C
HETATM    4  N4  UNL     1      16.729  32.702  26.148  1.00  0.00    -0.172 NA
ENDROOT
BRANCH   1   5
HETATM    5  C6  UNL     1      19.797  34.228  26.681  1.00  0.00     0.132 A
HETATM    6  N2  UNL     1      20.859  33.471  27.092  1.00  0.00    -0.326 N
HETATM    7  C5  UNL     1      22.088  33.523  26.567  1.00  0.00     0.124 A
ATOM      8  H2  UNL     1      20.702  32.816  27.858  1.00  0.00     0.169 HD
HETATM    9  C15 UNL     1      22.294  34.428  25.513  1.00  0.00     0.107 A
HETATM   10  C14 UNL     1      21.268  35.217  25.053  1.00  0.00     0.100 A
HETATM   11  C9  UNL     1      19.996  35.111  25.653  1.00  0.00     0.060 A
BRANCH   7  12
HETATM   12  N1  UNL     1      23.054  32.851  26.924  1.00  0.00    -0.353 N
ATOM     13  H1  UNL     1      23.446  32.431  26.081  1.00  0.00     0.166 HD
BRANCH  12  14
HETATM   14  C4  UNL     1      23.827  32.425  27.971  1.00  0.00     0.088 C
BRANCH  14  15
HETATM   15  C3  UNL     1      23.196  31.583  29.031  1.00  0.00     0.212 C
BRANCH  15  16
HETATM   16  O1  UNL     1      23.806  30.333  29.113  1.00  0.00    -0.387 OA
BRANCH  16  17
HETATM   17  C2  UNL     1      24.947  30.194  28.373  1.00  0.00     0.163 C
HETATM   18  C1  UNL     1      25.817  29.033  28.809  1.00  0.00     0.033 C
ENDBRANCH  16  17
ENDBRANCH  15  16
ENDBRANCH  14  15
ENDBRANCH  12  14
ENDBRANCH   7  12
BRANCH   9  19
HETATM   19  C16 UNL     1      23.634  34.486  24.939  1.00  0.00     0.271 C
HETATM   20  N9  UNL     1      23.943  33.829  23.719  1.00  0.00    -0.057 NA
HETATM   21  O3  UNL     1      24.575  35.115  25.490  1.00  0.00    -0.271 OA
ENDBRANCH   9  19
BRANCH  10  22
HETATM   22  O2  UNL     1      21.514  36.083  24.026  1.00  0.00    -0.358 OA
ATOM     23  H2  UNL     1      21.192  35.923  23.146  1.00  0.00     0.217 HD
ENDBRANCH  10  22
BRANCH  11  24
HETATM   24  C10 UNL     1      18.914  35.944  25.169  1.00  0.00     0.125 C
HETATM   25  N5  UNL     1      18.956  37.214  25.233  1.00  0.00    -0.308 N
ATOM     26  H5  UNL     1      19.773  37.672  25.636  1.00  0.00     0.186 HD
BRANCH  25  27
HETATM   27  N6  UNL     1      17.907  37.982  24.762  1.00  0.00    -0.272 N
ATOM     28  H6  UNL     1      17.657  38.843  25.248  1.00  0.00     0.190 HD
BRANCH  27  29
HETATM   29  C11 UNL     1      17.161  37.586  23.595  1.00  0.00     0.190 C
HETATM   30  N7  UNL     1      17.587  37.651  22.399  1.00  0.00    -0.360 N
HETATM   31  C12 UNL     1      16.630  37.189  21.433  1.00  0.00     0.142 C
ATOM     32  H7  UNL     1      18.514  37.996  22.151  1.00  0.00     0.162 HD
HETATM   33  C13 UNL     1      15.361  37.099  22.262  1.00  0.00     0.142 C
HETATM   34  N8  UNL     1      15.847  37.068  23.627  1.00  0.00    -0.360 N
ATOM     35  H8  UNL     1      15.340  36.738  24.448  1.00  0.00     0.162 HD
ENDBRANCH  27  29
ENDBRANCH  25  27
ENDBRANCH  11  24
ENDBRANCH   1   5
TORSDOF 11
ENDMDL