MODEL 1
REMARK VINA RESULT: -8.606183620      0.000      0.000
REMARK  10 active torsions:
REMARK  status: ('A' for Active; 'I' for Inactive)
REMARK    1  A    between atoms: N1_1  and  C1_4
REMARK    2  A    between atoms: C2_7  and  N3_8
REMARK    3  A    between atoms: N4_11  and  C5_12
REMARK    4  A    between atoms: C5_12  and  C6_13
REMARK    5  A    between atoms: C6_13  and  N5_14
REMARK    6  A    between atoms: C8_16  and  C9_17
REMARK    7  A    between atoms: C9_17  and  N6_18
REMARK    8  A    between atoms: N6_18  and  C10_19
REMARK    9  A    between atoms: C10_19  and  C11_20
REMARK   10  A    between atoms: C11_20  and  O1_21
ROOT
HETATM    1  N3  UNL     1      14.821  37.272  21.992  1.00  0.00    -0.339 N
HETATM    2  C3  UNL     1      15.908  37.347  21.052  1.00  0.00     0.156 C
HETATM    3  C4  UNL     1      17.079  36.747  21.761  1.00  0.00     0.294 C
HETATM    4  N4  UNL     1      16.648  36.364  23.057  1.00  0.00     0.109 N
HETATM    5  C14 UNL     1      15.192  36.372  23.058  1.00  0.00     0.399 C
ENDROOT
BRANCH   4   6
HETATM    6  C5  UNL     1      17.083  37.222  24.119  1.00  0.00     0.294 C
BRANCH   6   7
HETATM    7  C6  UNL     1      18.551  37.260  24.374  1.00  0.00     0.163 C
BRANCH   7   8
HETATM    8  N5  UNL     1      19.081  36.168  25.094  1.00  0.00    -0.307 N
HETATM    9  C7  UNL     1      18.263  35.366  25.796  1.00  0.00     0.115 A
HETATM   10  C8  UNL     1      18.748  34.289  26.521  1.00  0.00     0.076 A
HETATM   11  C12 UNL     1      20.084  34.030  26.529  1.00  0.00     0.263 A
HETATM   12  O2  UNL     1      20.556  33.046  27.187  1.00  0.00    -0.267 OA
HETATM   13  N7  UNL     1      20.883  34.839  25.822  1.00  0.00    -0.275 N
HETATM   14  C13 UNL     1      20.394  35.891  25.115  1.00  0.00     0.329 A
ATOM     15  H7  UNL     1      21.888  34.661  25.814  1.00  0.00     0.173 HD
HETATM   16  O3  UNL     1      21.196  36.586  24.494  1.00  0.00    -0.246 OA
BRANCH  10  17
HETATM   17  C9  UNL     1      17.834  33.396  27.291  1.00  0.00     0.193 C
BRANCH  17  18
HETATM   18  N6  UNL     1      17.573  33.468  28.446  1.00  0.00    -0.457 NA
BRANCH  18  19
HETATM   19  C10 UNL     1      17.550  33.582  29.776  1.00  0.00     0.243 C
BRANCH  19  20
HETATM   20  C11 UNL     1      18.914  34.003  30.355  1.00  0.00     0.197 C
BRANCH  20  21
HETATM   21  O1  UNL     1      19.861  33.013  30.166  1.00  0.00    -0.398 OA
ATOM     22  H1  UNL     1      20.700  33.384  29.922  1.00  0.00     0.209 HD
ENDBRANCH  20  21
ENDBRANCH  19  20
ENDBRANCH  18  19
ENDBRANCH  17  18
ENDBRANCH  10  17
ENDBRANCH   7   8
ENDBRANCH   6   7
ENDBRANCH   4   6
BRANCH   1  23
HETATM   23  C2  UNL     1      13.588  37.950  21.891  1.00  0.00     0.125 A
HETATM   24  N2  UNL     1      12.591  37.718  22.771  1.00  0.00    -0.177 N
HETATM   25  C1  UNL     1      11.389  38.328  22.721  1.00  0.00     0.680 A
ATOM     26  H2  UNL     1      12.757  37.042  23.516  1.00  0.00     0.185 HD
HETATM   27  N8  UNL     1      11.141  39.221  21.754  1.00  0.00    -0.156 N
HETATM   28  C16 UNL     1      12.105  39.493  20.845  1.00  0.00     0.263 A
ATOM     29  H8  UNL     1      10.237  39.690  21.704  1.00  0.00     0.187 HD
HETATM   30  C15 UNL     1      13.330  38.877  20.888  1.00  0.00     0.123 A
HETATM   31  O4  UNL     1      11.839  40.347  19.935  1.00  0.00    -0.268 OA
BRANCH  25  32
HETATM   32  N1  UNL     1      10.476  38.050  23.618  1.00  0.00    -0.234 N
ATOM     33  H12 UNL     1      10.577  37.235  24.223  1.00  0.00     0.174 HD
ATOM     34  H11 UNL     1       9.655  38.648  23.713  1.00  0.00     0.174 HD
ENDBRANCH  25  32
ENDBRANCH   1  23
TORSDOF 10
ENDMDL