MODEL 4
REMARK VINA RESULT: -9.272871762      2.063      2.940
REMARK  9 active torsions:
REMARK  status: ('A' for Active; 'I' for Inactive)
REMARK    1  A    between atoms: N1_1  and  N2_4
REMARK    2  A    between atoms: C1_5  and  O1_6
REMARK    3  A    between atoms: C2_8  and  N3_9
REMARK    4  A    between atoms: N3_9  and  O2_11
REMARK    5  A    between atoms: O2_11  and  S1_12
REMARK    6  A    between atoms: S1_12  and  C3_15
REMARK    7  A    between atoms: C3_15  and  C4_16
REMARK       I    between atoms: C4_16  and  N4_18
REMARK    8  A    between atoms: N4_18  and  N5_20
REMARK    9  A    between atoms: C5_22  and  C6_23
ROOT
HETATM    1  O2  UNL     1      17.557  35.970  25.113  1.00  0.00    -0.150 OA
ENDROOT
BRANCH   1   2
HETATM    2  N3  UNL     1      18.245  36.202  26.229  1.00  0.00    -0.240 N
ATOM      3  H3  UNL     1      18.180  37.126  26.657  1.00  0.00     0.196 HD
BRANCH   2   4
HETATM    4  C2  UNL     1      19.062  35.228  26.849  1.00  0.00     0.176 A
HETATM    5  C1  UNL     1      20.120  34.669  26.142  1.00  0.00     0.200 A
HETATM    6  N2  UNL     1      20.928  33.725  26.686  1.00  0.00    -0.186 N
HETATM    7  C13 UNL     1      20.700  33.314  27.953  1.00  0.00     0.350 A
HETATM    8  N6  UNL     1      19.689  33.829  28.672  1.00  0.00    -0.272 N
HETATM    9  O7  UNL     1      21.447  32.439  28.463  1.00  0.00    -0.244 OA
HETATM   10  C12 UNL     1      18.869  34.780  28.133  1.00  0.00     0.282 A
ATOM     11  H6  UNL     1      19.531  33.507  29.627  1.00  0.00     0.174 HD
HETATM   12  O6  UNL     1      17.931  35.246  28.819  1.00  0.00    -0.265 OA
BRANCH   5  13
HETATM   13  O1  UNL     1      20.365  35.074  24.861  1.00  0.00    -0.343 OA
ATOM     14  H1  UNL     1      19.831  35.771  24.498  1.00  0.00     0.219 HD
ENDBRANCH   5  13
BRANCH   6  15
HETATM   15  N1  UNL     1      21.996  33.160  25.988  1.00  0.00    -0.332 N
ATOM     16  H12 UNL     1      22.003  33.232  24.971  1.00  0.00     0.177 HD
ATOM     17  H11 UNL     1      22.764  32.678  26.456  1.00  0.00     0.177 HD
ENDBRANCH   6  15
ENDBRANCH   2   4
ENDBRANCH   1   2
BRANCH   1  18
HETATM   18  S1  UNL     1      17.574  37.135  23.952  1.00  0.00     0.294 S
HETATM   19  O3  UNL     1      17.895  38.512  24.424  1.00  0.00    -0.196 OA
HETATM   20  O4  UNL     1      18.636  36.702  22.930  1.00  0.00    -0.196 OA
BRANCH  18  21
HETATM   21  C3  UNL     1      16.064  37.260  23.020  1.00  0.00     0.276 C
BRANCH  21  22
HETATM   22  C4  UNL     1      15.934  36.259  21.955  1.00  0.00     0.252 C
HETATM   23  O5  UNL     1      15.209  36.502  20.962  1.00  0.00    -0.271 OA
HETATM   24  N4  UNL     1      16.622  35.026  22.042  1.00  0.00    -0.270 N
ATOM     25  H4  UNL     1      17.212  34.809  22.845  1.00  0.00     0.190 HD
BRANCH  24  26
HETATM   26  N5  UNL     1      16.467  34.108  20.982  1.00  0.00    -0.308 N
HETATM   27  C5  UNL     1      17.448  33.915  20.152  1.00  0.00     0.118 C
ATOM     28  H5  UNL     1      15.590  33.599  20.868  1.00  0.00     0.186 HD
BRANCH  27  29
HETATM   29  C6  UNL     1      17.338  32.981  19.041  1.00  0.00    -0.019 A
HETATM   30  C7  UNL     1      18.391  32.163  18.707  1.00  0.00     0.013 A
HETATM   31  C8  UNL     1      18.324  31.297  17.654  1.00  0.00     0.001 A
HETATM   32  C9  UNL     1      17.186  31.218  16.885  1.00  0.00     0.000 A
HETATM   33  C10 UNL     1      16.138  32.042  17.229  1.00  0.00     0.001 A
HETATM   34  C11 UNL     1      16.188  32.917  18.283  1.00  0.00     0.013 A
ENDBRANCH  27  29
ENDBRANCH  24  26
ENDBRANCH  21  22
ENDBRANCH  18  21
ENDBRANCH   1  18
TORSDOF 9
ENDMDL