MODEL 2
REMARK VINA RESULT: -8.772392036      1.086      1.296
REMARK  10 active torsions:
REMARK  status: ('A' for Active; 'I' for Inactive)
REMARK    1  A    between atoms: C2_2  and  C3_3
REMARK    2  A    between atoms: C3_3  and  O2_5
REMARK    3  A    between atoms: O2_5  and  N1_6
REMARK    4  A    between atoms: C4_8  and  N2_9
REMARK    5  A    between atoms: C4_8  and  C9_20
REMARK       I    between atoms: N2_9  and  C5_11
REMARK    6  A    between atoms: C5_11  and  C6_13
REMARK    7  A    between atoms: C9_20  and  C14_34
REMARK    8  A    between atoms: N5_21  and  O4_23
REMARK    9  A    between atoms: O4_23  and  C10_24
REMARK   10  A    between atoms: C12_28  and  O5_29
ROOT
HETATM    1  N1  UNL     1      17.100  34.685  22.127  1.00  0.00    -0.239 N
ATOM      2  H1  UNL     1      17.994  34.212  22.263  1.00  0.00     0.196 HD
HETATM    3  C4  UNL     1      16.665  35.570  23.006  1.00  0.00     0.163 C
ENDROOT
BRANCH   3   4
HETATM    4  N2  UNL     1      15.438  36.168  22.744  1.00  0.00    -0.304 N
HETATM    5  C5  UNL     1      14.976  37.110  21.826  1.00  0.00     0.275 C
HETATM    6  O3  UNL     1      15.650  37.676  20.943  1.00  0.00    -0.266 OA
ATOM      7  H2  UNL     1      14.703  35.841  23.371  1.00  0.00     0.171 HD
BRANCH   5   8
HETATM    8  C6  UNL     1      13.536  37.493  21.885  1.00  0.00     0.117 A
HETATM    9  C7  UNL     1      12.919  38.290  20.978  1.00  0.00     0.124 A
HETATM   10  N3  UNL     1      11.626  38.397  21.379  1.00  0.00    -0.360 N
HETATM   11  C8  UNL     1      11.482  37.681  22.497  1.00  0.00     0.180 A
ATOM     12  H3  UNL     1      10.894  38.931  20.910  1.00  0.00     0.166 HD
HETATM   13  N4  UNL     1      12.649  37.112  22.832  1.00  0.00    -0.347 N
ATOM     14  H4  UNL     1      12.831  36.514  23.638  1.00  0.00     0.167 HD
ENDBRANCH   5   8
ENDBRANCH   3   4
BRANCH   3  15
HETATM   15  C9  UNL     1      17.528  35.794  24.121  1.00  0.00     0.165 C
HETATM   16  N5  UNL     1      17.629  34.979  25.087  1.00  0.00    -0.249 N
ATOM     17  H5  UNL     1      17.073  34.123  25.079  1.00  0.00     0.195 HD
BRANCH  16  18
HETATM   18  O4  UNL     1      18.462  35.223  26.135  1.00  0.00    -0.201 OA
BRANCH  18  19
HETATM   19  C10 UNL     1      19.175  34.164  26.689  1.00  0.00     0.239 C
HETATM   20  N6  UNL     1      18.541  33.314  27.419  1.00  0.00    -0.352 N
HETATM   21  C11 UNL     1      19.296  32.217  27.989  1.00  0.00     0.156 C
ATOM     22  H6  UNL     1      17.540  33.410  27.592  1.00  0.00     0.163 HD
HETATM   23  C12 UNL     1      20.575  32.752  28.589  1.00  0.00     0.153 C
HETATM   24  C13 UNL     1      21.424  33.294  27.434  1.00  0.00     0.156 C
HETATM   25  N7  UNL     1      20.560  33.976  26.489  1.00  0.00    -0.352 N
ATOM     26  H7  UNL     1      20.976  34.340  25.632  1.00  0.00     0.163 HD
BRANCH  23  27
HETATM   27  O5  UNL     1      21.304  31.752  29.204  1.00  0.00    -0.392 OA
ATOM     28  H5  UNL     1      21.268  30.941  28.709  1.00  0.00     0.210 HD
ENDBRANCH  23  27
ENDBRANCH  18  19
ENDBRANCH  16  18
BRANCH  15  29
HETATM   29  C14 UNL     1      18.342  37.035  24.149  1.00  0.00     0.287 C
HETATM   30  N8  UNL     1      19.729  37.074  24.333  1.00  0.00    -0.056 NA
HETATM   31  O6  UNL     1      17.732  38.137  23.997  1.00  0.00    -0.269 OA
ENDBRANCH  15  29
ENDBRANCH   3  15
BRANCH   1  32
HETATM   32  O2  UNL     1      16.328  34.417  21.032  1.00  0.00    -0.194 OA
BRANCH  32  33
HETATM   33  C3  UNL     1      16.992  34.009  19.865  1.00  0.00     0.303 C
HETATM   34  O1  UNL     1      18.193  34.317  19.667  1.00  0.00    -0.258 OA
BRANCH  33  35
HETATM   35  C2  UNL     1      16.304  33.220  18.857  1.00  0.00     0.074 C
HETATM   36  C1  UNL     1      16.994  32.436  18.058  1.00  0.00     0.017 C
ENDBRANCH  33  35
ENDBRANCH  32  33
ENDBRANCH   1  32
TORSDOF 10
ENDMDL