MODEL 5
REMARK VINA RESULT: -7.188547715      2.854      4.412
REMARK  11 active torsions:
REMARK  status: ('A' for Active; 'I' for Inactive)
REMARK    1  A    between atoms: C4_5  and  O2_7
REMARK    2  A    between atoms: C6_9  and  O3_10
REMARK    3  A    between atoms: C9_14  and  O4_15
REMARK    4  A    between atoms: C11_17  and  O5_18
REMARK    5  A    between atoms: C21_31  and  C22_32
REMARK    6  A    between atoms: C23_33  and  C24_34
REMARK    7  A    between atoms: C24_34  and  C25_35
REMARK    8  A    between atoms: C27_37  and  C28_38
REMARK    9  A    between atoms: C28_38  and  C29_39
REMARK   10  A    between atoms: C29_39  and  C30_40
REMARK   11  A    between atoms: C31_43  and  O8_44
ROOT
HETATM    1  C1  UNL     1      12.963  45.732  16.207  1.00  0.00     0.026 C
HETATM    2  C2  UNL     1      13.761  44.723  16.381  1.00  0.00     0.024 C
HETATM    3  C3  UNL     1      13.391  43.742  17.426  1.00  0.00     0.195 C
HETATM    4  O1  UNL     1      12.294  43.865  18.049  1.00  0.00    -0.289 OA
HETATM    5  C4  UNL     1      14.230  42.598  17.806  1.00  0.00     0.156 C
HETATM    6  C5  UNL     1      13.436  41.387  18.201  1.00  0.00     0.058 C
HETATM    7  C6  UNL     1      15.334  42.258  16.855  1.00  0.00     0.164 C
HETATM    8  C7  UNL     1      15.071  41.730  15.532  1.00  0.00     0.128 C
HETATM    9  C8  UNL     1      16.199  42.529  15.048  1.00  0.00     0.089 C
HETATM   10  C9  UNL     1      15.945  43.482  16.223  1.00  0.00     0.140 C
HETATM   11  C11 UNL     1      15.003  44.471  15.623  1.00  0.00     0.149 C
HETATM   12  C12 UNL     1      14.916  44.508  14.137  1.00  0.00    -0.012 C
HETATM   13  C13 UNL     1      15.842  45.348  13.590  1.00  0.00     0.023 C
HETATM   14  C14 UNL     1      14.047  43.843  13.172  1.00  0.00     0.021 A
HETATM   15  C15 UNL     1      13.415  44.763  12.304  1.00  0.00     0.128 A
HETATM   16  F1  UNL     1      13.604  46.132  12.396  1.00  0.00    -0.205 F
HETATM   17  C16 UNL     1      12.559  44.456  11.285  1.00  0.00     0.046 A
HETATM   18  C17 UNL     1      12.263  43.151  11.056  1.00  0.00     0.046 A
HETATM   19  C18 UNL     1      12.843  42.211  11.862  1.00  0.00     0.124 A
HETATM   20  F2  UNL     1      12.503  40.921  11.563  1.00  0.00    -0.206 F
HETATM   21  C19 UNL     1      13.738  42.511  12.930  1.00  0.00     0.004 A
HETATM   22  C20 UNL     1      14.136  41.274  13.578  1.00  0.00     0.087 C
HETATM   23  C21 UNL     1      15.484  40.737  13.716  1.00  0.00     0.156 C
HETATM   24  O7  UNL     1      15.643  40.445  15.132  1.00  0.00    -0.364 OA
HETATM   25  C31 UNL     1      13.807  41.410  15.085  1.00  0.00     0.167 C
ENDROOT
BRANCH  23  26
HETATM   26  C22 UNL     1      15.550  39.309  13.167  1.00  0.00     0.002 C
HETATM   27  C23 UNL     1      14.545  38.468  13.320  1.00  0.00    -0.024 C
BRANCH  27  28
HETATM   28  C24 UNL     1      14.632  37.105  12.785  1.00  0.00     0.060 C
BRANCH  28  29
HETATM   29  C25 UNL     1      13.653  36.837  11.702  1.00  0.00    -0.084 C
HETATM   30  C26 UNL     1      12.416  37.632  11.528  1.00  0.00     0.043 C
HETATM   31  C27 UNL     1      13.896  35.860  10.840  1.00  0.00    -0.024 C
BRANCH  31  32
HETATM   32  C28 UNL     1      13.007  35.484   9.715  1.00  0.00     0.034 C
BRANCH  32  33
HETATM   33  C29 UNL     1      13.656  35.394   8.385  1.00  0.00     0.073 C
BRANCH  33  34
HETATM   34  C30 UNL     1      12.802  35.449   7.210  1.00  0.00     0.231 C
HETATM   35  O6  UNL     1      11.682  35.900   7.217  1.00  0.00    -0.307 OA
ENDBRANCH  33  34
ENDBRANCH  32  33
ENDBRANCH  31  32
ENDBRANCH  28  29
ENDBRANCH  27  28
ENDBRANCH  23  26
BRANCH  25  36
HETATM   36  O8  UNL     1      12.579  41.886  15.088  1.00  0.00    -0.392 OA
ATOM     37  H8  UNL     1      12.115  42.714  15.144  1.00  0.00     0.210 HD
ENDBRANCH  25  36
BRANCH   7  38
HETATM   38  O3  UNL     1      16.258  41.468  17.520  1.00  0.00    -0.380 OA
ATOM     39  H3  UNL     1      16.084  41.525  18.453  1.00  0.00     0.211 HD
ENDBRANCH   7  38
BRANCH   5  40
HETATM   40  O2  UNL     1      14.893  43.024  18.993  1.00  0.00    -0.379 OA
ATOM     41  H2  UNL     1      14.226  42.968  19.667  1.00  0.00     0.211 HD
ENDBRANCH   5  40
BRANCH  10  42
HETATM   42  O4  UNL     1      16.977  43.979  16.863  1.00  0.00    -0.378 OA
HETATM   43  C10 UNL     1      18.254  43.941  16.715  1.00  0.00     0.202 C
ENDBRANCH  10  42
BRANCH  11  44
HETATM   44  O5  UNL     1      15.614  45.735  16.009  1.00  0.00    -0.377 OA
ATOM     45  H5  UNL     1      16.491  45.459  15.770  1.00  0.00     0.211 HD
ENDBRANCH  11  44
TORSDOF 11
ENDMDL