MODEL 4
REMARK VINA RESULT: -7.668779014      6.886     11.503
REMARK  13 active torsions:
REMARK  status: ('A' for Active; 'I' for Inactive)
REMARK    1  A    between atoms: C2_2  and  O2_4
REMARK    2  A    between atoms: O2_4  and  C3_5
REMARK    3  A    between atoms: C4_6  and  O3_7
REMARK    4  A    between atoms: C5_9  and  O4_10
REMARK    5  A    between atoms: O4_10  and  C6_11
REMARK    6  A    between atoms: C7_12  and  C8_13
REMARK    7  A    between atoms: C8_13  and  C9_14
REMARK    8  A    between atoms: C9_14  and  C10_15
REMARK    9  A    between atoms: C10_15  and  C11_16
REMARK   10  A    between atoms: C11_16  and  C12_17
REMARK   11  A    between atoms: C15_20  and  O5_21
REMARK   12  A    between atoms: C16_23  and  O6_24
REMARK   13  A    between atoms: C27_39  and  O8_40
ROOT
HETATM    1  C3  UNL     1      10.295  43.588  10.567  1.00  0.00     0.202 C
HETATM    2  C4  UNL     1       9.680  42.503  11.369  1.00  0.00     0.207 C
HETATM    3  C5  UNL     1      10.565  41.719  12.221  1.00  0.00     0.081 C
HETATM    4  C18 UNL     1      11.847  41.955  12.334  1.00  0.00     0.021 C
HETATM    5  C19 UNL     1      12.496  43.028  11.610  1.00  0.00     0.079 C
HETATM    6  C20 UNL     1      13.585  43.726  12.341  1.00  0.00    -0.038 C
HETATM    7  C21 UNL     1      13.994  43.743  13.581  1.00  0.00     0.083 C
HETATM    8 CL1  UNL     1      13.348  42.868  14.952  1.00  0.00    -0.080 Cl
HETATM    9  C22 UNL     1      15.151  44.646  13.725  1.00  0.00     0.172 C
HETATM   10  O7  UNL     1      15.887  44.807  14.729  1.00  0.00    -0.291 OA
HETATM   11  C23 UNL     1      15.309  45.356  12.450  1.00  0.00     0.095 C
HETATM   12  C24 UNL     1      14.423  44.639  11.482  1.00  0.00     0.043 C
HETATM   13  C25 UNL     1      13.540  45.597  10.714  1.00  0.00     0.094 C
HETATM   14 CL2  UNL     1      14.513  46.159   9.309  1.00  0.00    -0.124 Cl
HETATM   15  C26 UNL     1      12.301  44.976  10.173  1.00  0.00     0.062 C
HETATM   16  C27 UNL     1      11.547  44.154  11.177  1.00  0.00     0.099 C
ENDROOT
BRANCH   3  17
HETATM   17  O4  UNL     1       9.958  40.658  12.944  1.00  0.00    -0.325 OA
BRANCH  17  18
HETATM   18  C6  UNL     1      10.838  39.638  13.333  1.00  0.00     0.138 C
HETATM   19  C7  UNL     1      10.740  39.135  14.514  1.00  0.00    -0.002 C
BRANCH  19  20
HETATM   20  C8  UNL     1      11.604  38.071  15.032  1.00  0.00     0.029 C
BRANCH  20  21
HETATM   21  C9  UNL     1      13.043  38.295  14.756  1.00  0.00     0.004 C
BRANCH  21  22
HETATM   22  C10 UNL     1      13.886  37.114  14.498  1.00  0.00     0.001 C
BRANCH  22  23
HETATM   23  C11 UNL     1      14.502  36.915  13.168  1.00  0.00     0.005 C
BRANCH  23  24
HETATM   24  C12 UNL     1      13.716  36.330  12.068  1.00  0.00    -0.012 C
HETATM   25  C13 UNL     1      14.430  35.488  11.100  1.00  0.00     0.007 C
HETATM   26  C14 UNL     1      13.741  35.525   9.717  1.00  0.00     0.034 C
HETATM   27  C15 UNL     1      12.252  35.519   9.935  1.00  0.00     0.147 C
HETATM   28  C16 UNL     1      11.836  36.835  10.554  1.00  0.00     0.147 C
HETATM   29  C17 UNL     1      12.961  37.460  11.334  1.00  0.00     0.039 C
BRANCH  27  30
HETATM   30  O5  UNL     1      11.598  35.362   8.724  1.00  0.00    -0.393 OA
ATOM     31  H5  UNL     1      10.733  34.996   8.868  1.00  0.00     0.210 HD
ENDBRANCH  27  30
BRANCH  28  32
HETATM   32  O6  UNL     1      10.723  36.575  11.355  1.00  0.00    -0.393 OA
ATOM     33  H6  UNL     1      10.397  37.414  11.659  1.00  0.00     0.210 HD
ENDBRANCH  28  32
ENDBRANCH  23  24
ENDBRANCH  22  23
ENDBRANCH  21  22
ENDBRANCH  20  21
ENDBRANCH  19  20
ENDBRANCH  17  18
ENDBRANCH   3  17
BRANCH   2  34
HETATM   34  O3  UNL     1       8.623  42.962  12.176  1.00  0.00    -0.386 OA
ATOM     35  H3  UNL     1       8.188  42.257  12.641  1.00  0.00     0.210 HD
ENDBRANCH   2  34
BRANCH   1  36
HETATM   36  O2  UNL     1       9.357  44.660  10.485  1.00  0.00    -0.310 OA
BRANCH  36  37
HETATM   37  C2  UNL     1       8.488  44.719   9.429  1.00  0.00     0.255 C
HETATM   38  C1  UNL     1       8.952  44.824   8.029  1.00  0.00     0.126 C
HETATM   39  O1  UNL     1       7.254  44.681   9.671  1.00  0.00    -0.266 OA
ENDBRANCH  36  37
ENDBRANCH   1  36
BRANCH  16  40
HETATM   40  O8  UNL     1      11.178  44.918  12.283  1.00  0.00    -0.386 OA
ATOM     41  H8  UNL     1      11.413  44.434  13.065  1.00  0.00     0.210 HD
ENDBRANCH  16  40
TORSDOF 13
ENDMDL