MODEL 1
REMARK VINA RESULT: -6.811405706      0.000      0.000
REMARK  11 active torsions:
REMARK  status: ('A' for Active; 'I' for Inactive)
REMARK    1  A    between atoms: C3_3  and  C4_4
REMARK    2  A    between atoms: C4_4  and  C7_7
REMARK    3  A    between atoms: C8_8  and  O1_9
REMARK    4  A    between atoms: C9_11  and  S1_12
REMARK    5  A    between atoms: S1_12  and  C10_15
REMARK    6  A    between atoms: N2_26  and  C18_27
REMARK    7  A    between atoms: C18_27  and  C19_28
REMARK       I    between atoms: C19_28  and  N3_30
REMARK    8  A    between atoms: N3_30  and  C20_32
REMARK    9  A    between atoms: C20_32  and  C21_33
REMARK   10  A    between atoms: C20_32  and  C25_37
REMARK   11  A    between atoms: C21_33  and  C22_34
ROOT
HETATM    1  C1  UNL     1      19.765  42.459  18.217  1.00  0.00     0.112 C
HETATM    2  C2  UNL     1      18.377  42.056  18.138  1.00  0.00    -0.110 C
HETATM    3  C3  UNL     1      17.217  41.733  18.067  1.00  0.00    -0.091 C
ENDROOT
BRANCH   3   4
HETATM    4  C4  UNL     1      15.775  41.302  17.972  1.00  0.00     0.061 C
HETATM    5  C5  UNL     1      15.053  42.654  17.797  1.00  0.00     0.035 C
HETATM    6  C6  UNL     1      15.460  40.703  19.303  1.00  0.00     0.035 C
BRANCH   4   7
HETATM    7  C7  UNL     1      15.660  40.466  16.795  1.00  0.00     0.068 A
HETATM    8  C8  UNL     1      15.268  39.097  16.903  1.00  0.00     0.115 A
HETATM    9  C9  UNL     1      15.260  38.535  15.663  1.00  0.00     0.140 A
HETATM   10  C17 UNL     1      15.639  39.531  14.805  1.00  0.00     0.144 A
HETATM   11  N1  UNL     1      15.749  39.324  13.402  1.00  0.00    -0.081 NA
HETATM   12  N2  UNL     1      15.876  40.693  15.506  1.00  0.00    -0.325 N
BRANCH   8  13
HETATM   13  O1  UNL     1      14.946  38.444  18.075  1.00  0.00    -0.357 OA
ATOM     14  H1  UNL     1      14.185  38.620  18.614  1.00  0.00     0.217 HD
ENDBRANCH   8  13
BRANCH   9  15
HETATM   15  S1  UNL     1      14.851  36.866  15.271  1.00  0.00     0.213 S
HETATM   16  O2  UNL     1      14.053  36.204  16.351  1.00  0.00    -0.217 OA
HETATM   17  O3  UNL     1      16.153  36.089  15.195  1.00  0.00    -0.217 OA
BRANCH  15  18
HETATM   18  C10 UNL     1      13.967  36.764  13.787  1.00  0.00     0.072 A
HETATM   19  C11 UNL     1      14.512  36.069  12.735  1.00  0.00     0.050 A
HETATM   20  C12 UNL     1      13.872  35.939  11.513  1.00  0.00     0.057 A
HETATM   21 CL1  UNL     1      14.581  35.046  10.176  1.00  0.00    -0.083 Cl
HETATM   22  C13 UNL     1      12.638  36.527  11.330  1.00  0.00     0.056 A
HETATM   23 CL2  UNL     1      11.800  36.381   9.796  1.00  0.00    -0.083 Cl
HETATM   24  C14 UNL     1      12.096  37.224  12.391  1.00  0.00     0.033 A
HETATM   25  C15 UNL     1      12.738  37.354  13.616  1.00  0.00    -0.038 A
HETATM   26  C16 UNL     1      12.098  38.129  14.739  1.00  0.00     0.050 C
ENDBRANCH  15  18
ENDBRANCH   9  15
BRANCH  12  27
HETATM   27  C18 UNL     1      16.273  41.886  14.791  1.00  0.00     0.233 C
BRANCH  27  28
HETATM   28  C19 UNL     1      15.146  42.599  14.147  1.00  0.00     0.236 C
HETATM   29  O4  UNL     1      14.734  43.661  14.664  1.00  0.00    -0.272 OA
HETATM   30  N3  UNL     1      14.499  42.150  12.973  1.00  0.00    -0.344 N
ATOM     31  H3  UNL     1      14.817  41.286  12.534  1.00  0.00     0.163 HD
BRANCH  30  32
HETATM   32  C20 UNL     1      13.365  42.899  12.353  1.00  0.00     0.197 C
BRANCH  32  33
HETATM   33  C21 UNL     1      13.871  43.576  11.151  1.00  0.00     0.009 C
BRANCH  33  34
HETATM   34  C22 UNL     1      14.571  44.858  11.188  1.00  0.00    -0.089 C
HETATM   35  C23 UNL     1      13.887  45.931  12.041  1.00  0.00     0.042 C
HETATM   36  C24 UNL     1      15.201  45.384   9.953  1.00  0.00     0.042 C
ENDBRANCH  33  34
ENDBRANCH  32  33
BRANCH  32  37
HETATM   37  C25 UNL     1      12.181  42.085  12.305  1.00  0.00     0.257 C
HETATM   38  N4  UNL     1      10.877  42.560  12.099  1.00  0.00    -0.060 NA
HETATM   39  O5  UNL     1      12.288  40.816  12.463  1.00  0.00    -0.274 OA
ENDBRANCH  32  37
ENDBRANCH  30  32
ENDBRANCH  27  28
ENDBRANCH  12  27
ENDBRANCH   4   7
ENDBRANCH   3   4
TORSDOF 11
ENDMDL