MODEL 4
REMARK VINA RESULT: -7.215001653      5.268      7.542
REMARK  13 active torsions:
REMARK  status: ('A' for Active; 'I' for Inactive)
REMARK    1  A    between atoms: C3_3  and  C4_4
REMARK    2  A    between atoms: C4_4  and  C5_5
REMARK    3  A    between atoms: C5_5  and  C6_6
REMARK    4  A    between atoms: C10_14  and  C11_15
REMARK    5  A    between atoms: C11_15  and  C13_17
REMARK    6  A    between atoms: C11_15  and  S1_20
REMARK    7  A    between atoms: C13_17  and  O1_18
REMARK    8  A    between atoms: S1_20  and  C14_21
REMARK    9  A    between atoms: C15_22  and  O2_23
REMARK   10  A    between atoms: C16_25  and  O3_26
REMARK   11  A    between atoms: C18_29  and  O4_30
REMARK   12  A    between atoms: C23_36  and  N2_37
REMARK       I    between atoms: N2_37  and  C24_39
REMARK   13  A    between atoms: C24_39  and  C25_41
ROOT
HETATM    1  C1  UNL     1      14.870  48.441   8.690  1.00  0.00     0.012 C
HETATM    2  C2  UNL     1      14.870  47.262   8.921  1.00  0.00    -0.117 C
HETATM    3  C3  UNL     1      14.839  45.835   9.211  1.00  0.00     0.093 C
ENDROOT
BRANCH   3   4
HETATM    4  C4  UNL     1      14.520  45.448  10.553  1.00  0.00     0.018 C
BRANCH   4   5
HETATM    5  C5  UNL     1      14.337  44.113  11.126  1.00  0.00     0.060 C
BRANCH   5   6
HETATM    6  C6  UNL     1      13.073  43.748  11.736  1.00  0.00     0.043 A
HETATM    7  C7  UNL     1      11.801  43.813  11.096  1.00  0.00     0.082 A
HETATM    8 CL1  UNL     1      11.071  44.759   9.787  1.00  0.00    -0.080 Cl
HETATM    9  C8  UNL     1      11.053  42.857  11.717  1.00  0.00     0.102 A
HETATM   10 CL2  UNL     1       9.409  42.460  11.351  1.00  0.00    -0.078 Cl
HETATM   11  C9  UNL     1      11.834  42.188  12.783  1.00  0.00     0.138 A
HETATM   12  N1  UNL     1      11.521  41.235  13.680  1.00  0.00    -0.342 N
HETATM   13  N3  UNL     1      13.021  42.774  12.761  1.00  0.00    -0.284 N
HETATM   14  C10 UNL     1      12.398  40.796  14.637  1.00  0.00     0.035 A
ATOM     15  H1  UNL     1      10.590  40.821  13.646  1.00  0.00     0.167 HD
HETATM   16  C22 UNL     1      13.622  41.388  14.627  1.00  0.00     0.076 A
HETATM   17  C23 UNL     1      13.952  42.374  13.700  1.00  0.00     0.118 A
BRANCH  14  18
HETATM   18  C11 UNL     1      12.064  39.708  15.563  1.00  0.00     0.068 C
HETATM   19  C12 UNL     1      10.600  39.352  15.632  1.00  0.00     0.036 C
BRANCH  18  20
HETATM   20  C13 UNL     1      12.412  40.257  17.021  1.00  0.00     0.190 C
BRANCH  20  21
HETATM   21  O1  UNL     1      11.342  41.097  17.381  1.00  0.00    -0.399 OA
ATOM     22  H1  UNL     1      11.339  41.121  18.331  1.00  0.00     0.209 HD
ENDBRANCH  20  21
ENDBRANCH  18  20
BRANCH  18  23
HETATM   23  S1  UNL     1      13.037  38.201  15.517  1.00  0.00    -0.143 SA
BRANCH  23  24
HETATM   24  C14 UNL     1      13.454  37.847  13.820  1.00  0.00     0.084 C
HETATM   25  C15 UNL     1      14.506  36.834  13.529  1.00  0.00     0.161 C
HETATM   26  C16 UNL     1      14.162  36.302  12.114  1.00  0.00     0.154 C
HETATM   27  C17 UNL     1      12.988  37.078  11.624  1.00  0.00     0.051 C
HETATM   28  C18 UNL     1      11.925  36.281  10.949  1.00  0.00     0.125 C
HETATM   29  C21 UNL     1      12.345  37.701  12.855  1.00  0.00     0.011 C
HETATM   30  C19 UNL     1      10.676  36.422  11.835  1.00  0.00     0.032 C
HETATM   31  C20 UNL     1      11.238  36.779  13.200  1.00  0.00     0.009 C
BRANCH  25  32
HETATM   32  O2  UNL     1      14.510  35.741  14.402  1.00  0.00    -0.392 OA
ATOM     33  H2  UNL     1      15.363  35.535  14.766  1.00  0.00     0.210 HD
ENDBRANCH  25  32
BRANCH  26  34
HETATM   34  O3  UNL     1      15.244  36.433  11.253  1.00  0.00    -0.392 OA
ATOM     35  H3  UNL     1      15.459  35.603  10.843  1.00  0.00     0.210 HD
ENDBRANCH  26  34
BRANCH  28  36
HETATM   36  O4  UNL     1      11.618  36.835   9.679  1.00  0.00    -0.395 OA
ATOM     37  H4  UNL     1      11.137  37.649   9.777  1.00  0.00     0.210 HD
ENDBRANCH  28  36
ENDBRANCH  23  24
ENDBRANCH  18  23
ENDBRANCH  14  18
BRANCH  17  38
HETATM   38  N2  UNL     1      15.097  42.912  13.662  1.00  0.00    -0.313 N
HETATM   39  C24 UNL     1      15.618  43.892  14.499  1.00  0.00     0.222 C
HETATM   40  O5  UNL     1      15.306  45.112  14.493  1.00  0.00    -0.273 OA
ATOM     41  H2  UNL     1      15.717  42.583  12.922  1.00  0.00     0.170 HD
BRANCH  39  42
HETATM   42  C25 UNL     1      16.667  43.467  15.517  1.00  0.00     0.099 C
HETATM   43  C26 UNL     1      17.185  42.085  15.211  1.00  0.00     0.014 C
ENDBRANCH  39  42
ENDBRANCH  17  38
ENDBRANCH   5   6
ENDBRANCH   4   5
ENDBRANCH   3   4
TORSDOF 13
ENDMDL