MODEL 1
REMARK VINA RESULT: -6.317894268      0.000      0.000
REMARK  11 active torsions:
REMARK  status: ('A' for Active; 'I' for Inactive)
REMARK    1  A    between atoms: C2_2  and  N1_4
REMARK       I    between atoms: N1_4  and  C4_6
REMARK       I    between atoms: C4_6  and  N2_7
REMARK       I    between atoms: C4_6  and  N4_12
REMARK    2  A    between atoms: N2_7  and  N3_9
REMARK    3  A    between atoms: N4_12  and  C5_14
REMARK    4  A    between atoms: C6_19  and  C7_20
REMARK    5  A    between atoms: C7_20  and  C8_21
REMARK    6  A    between atoms: C8_21  and  S1_22
REMARK    7  A    between atoms: S1_22  and  C9_23
REMARK    8  A    between atoms: C9_23  and  C10_24
REMARK    9  A    between atoms: C10_24  and  C11_25
REMARK       I    between atoms: N9_31  and  C13_33
REMARK   10  A    between atoms: C13_33  and  C14_35
REMARK   11  A    between atoms: C14_35  and  C15_36
ROOT
HETATM    1  S1  UNL     1      13.552  36.476  12.154  1.00  0.00    -0.168 SA
ENDROOT
BRANCH   1   2
HETATM    2  C8  UNL     1      14.985  37.227  12.893  1.00  0.00     0.080 C
BRANCH   2   3
HETATM    3  C7  UNL     1      14.870  37.433  14.376  1.00  0.00     0.076 C
BRANCH   3   4
HETATM    4  C6  UNL     1      15.205  38.866  14.715  1.00  0.00     0.070 A
HETATM    5  N6  UNL     1      15.928  39.732  14.024  1.00  0.00    -0.296 N
HETATM    6  N5  UNL     1      16.112  40.911  14.461  1.00  0.00    -0.279 N
ATOM      7  H6  UNL     1      16.340  39.452  13.135  1.00  0.00     0.187 HD
HETATM    8  C5  UNL     1      15.565  41.261  15.628  1.00  0.00     0.180 A
ATOM      9  H5  UNL     1      16.669  41.579  13.929  1.00  0.00     0.189 HD
HETATM   10  S3  UNL     1      14.765  39.804  16.073  1.00  0.00    -0.037 SA
BRANCH   8  11
HETATM   11  N4  UNL     1      15.630  42.392  16.244  1.00  0.00    -0.168 N
HETATM   12  C4  UNL     1      16.678  43.316  16.205  1.00  0.00     0.694 C
HETATM   13  N1  UNL     1      16.370  44.710  15.959  1.00  0.00    -0.221 N
HETATM   14  N2  UNL     1      17.904  42.970  16.385  1.00  0.00    -0.139 N
ATOM     15  H1  UNL     1      16.898  45.233  15.261  1.00  0.00     0.178 HD
ATOM     16  H2  UNL     1      18.151  41.995  16.559  1.00  0.00     0.205 HD
ATOM     17  H4  UNL     1      14.828  42.640  16.823  1.00  0.00     0.186 HD
BRANCH  13  18
HETATM   18  C2  UNL     1      15.327  45.351  16.694  1.00  0.00     0.091 C
HETATM   19  C1  UNL     1      14.505  46.212  15.756  1.00  0.00     0.032 C
HETATM   20  C3  UNL     1      15.882  46.166  17.835  1.00  0.00     0.032 C
ENDBRANCH  13  18
BRANCH  14  21
HETATM   21  N3  UNL     1      18.888  43.955  16.336  1.00  0.00    -0.331 N
ATOM     22  H32 UNL     1      18.632  44.916  16.107  1.00  0.00     0.177 HD
ATOM     23  H31 UNL     1      19.853  43.690  16.531  1.00  0.00     0.177 HD
ENDBRANCH  14  21
ENDBRANCH   8  11
ENDBRANCH   3   4
ENDBRANCH   2   3
ENDBRANCH   1   2
BRANCH   1  24
HETATM   24  C9  UNL     1      12.344  37.632  11.589  1.00  0.00     0.080 C
BRANCH  24  25
HETATM   25  C10 UNL     1      11.239  37.964  12.548  1.00  0.00     0.076 C
BRANCH  25  26
HETATM   26  C11 UNL     1      11.582  39.346  13.086  1.00  0.00     0.070 A
HETATM   27  N7  UNL     1      11.069  39.947  14.146  1.00  0.00    -0.296 N
HETATM   28  N8  UNL     1      11.457  41.110  14.469  1.00  0.00    -0.279 N
ATOM     29  H7  UNL     1      10.359  39.474  14.704  1.00  0.00     0.187 HD
HETATM   30  C12 UNL     1      12.393  41.706  13.715  1.00  0.00     0.167 A
ATOM     31  H8  UNL     1      11.066  41.583  15.284  1.00  0.00     0.189 HD
HETATM   32  N9  UNL     1      12.909  42.901  13.906  1.00  0.00    -0.306 N
HETATM   33  S2  UNL     1      12.686  40.518  12.523  1.00  0.00    -0.038 SA
HETATM   34  C13 UNL     1      13.890  43.333  12.977  1.00  0.00     0.227 C
ATOM     35  H9  UNL     1      12.616  43.490  14.685  1.00  0.00     0.171 HD
HETATM   36  O1  UNL     1      15.040  43.674  13.353  1.00  0.00    -0.273 OA
BRANCH  34  37
HETATM   37  C14 UNL     1      13.501  43.369  11.528  1.00  0.00     0.141 C
BRANCH  37  38
HETATM   38  C15 UNL     1      13.861  44.698  10.958  1.00  0.00    -0.048 A
HETATM   39  C16 UNL     1      14.864  44.828  10.030  1.00  0.00     0.009 A
HETATM   40  C17 UNL     1      15.172  46.096   9.522  1.00  0.00     0.026 A
HETATM   41  C18 UNL     1      14.460  47.205   9.962  1.00  0.00     0.055 A
HETATM   42 CL1  UNL     1      14.870  48.777   9.311  1.00  0.00    -0.083 Cl
HETATM   43  C19 UNL     1      13.447  47.062  10.901  1.00  0.00     0.056 A
HETATM   44 CL2  UNL     1      12.544  48.454  11.460  1.00  0.00    -0.083 Cl
HETATM   45  C20 UNL     1      13.158  45.806  11.390  1.00  0.00     0.033 A
ENDBRANCH  37  38
ENDBRANCH  34  37
ENDBRANCH  25  26
ENDBRANCH  24  25
ENDBRANCH   1  24
TORSDOF 11
ENDMDL