MODEL 2
REMARK VINA RESULT: -7.746449778      2.278      3.277
REMARK  10 active torsions:
REMARK  status: ('A' for Active; 'I' for Inactive)
REMARK    1  A    between atoms: O1_2  and  C2_3
REMARK    2  A    between atoms: C2_3  and  C3_5
REMARK    3  A    between atoms: C7_10  and  N1_11
REMARK    4  A    between atoms: N1_11  and  N2_13
REMARK       I    between atoms: N2_13  and  C8_15
REMARK    5  A    between atoms: C8_15  and  C9_17
REMARK    6  A    between atoms: C9_17  and  C10_18
REMARK    7  A    between atoms: C9_17  and  N3_22
REMARK    8  A    between atoms: C10_18  and  C11_19
REMARK    9  A    between atoms: C11_19  and  S2_20
REMARK       I    between atoms: N3_22  and  C13_24
REMARK   10  A    between atoms: C13_24  and  C14_26
ROOT
HETATM    1  N1  UNL     1      16.029  35.739  15.220  1.00  0.00    -0.282 N
ATOM      2  H1  UNL     1      16.856  35.981  14.673  1.00  0.00     0.188 HD
ENDROOT
BRANCH   1   3
HETATM    3  C7  UNL     1      16.155  35.190  16.375  1.00  0.00     0.123 A
HETATM    4  C6  UNL     1      16.745  35.904  17.402  1.00  0.00     0.080 A
HETATM    5  C5  UNL     1      16.880  35.317  18.637  1.00  0.00     0.052 A
HETATM    6  C4  UNL     1      16.417  34.032  18.808  1.00  0.00     0.066 A
HETATM    7  N5  UNL     1      17.490  35.995  19.737  1.00  0.00    -0.383 N
HETATM    8  S1  UNL     1      16.596  33.306  20.427  1.00  0.00    -0.107 SA
HETATM    9  C20 UNL     1      15.839  33.365  17.758  1.00  0.00     0.124 A
HETATM   10  C3  UNL     1      18.051  34.060  21.196  1.00  0.00     0.174 C
HETATM   11  C21 UNL     1      18.347  35.423  20.709  1.00  0.00     0.101 C
HETATM   12  C22 UNL     1      19.754  35.391  20.091  1.00  0.00     0.034 C
HETATM   13  N4  UNL     1      15.708  33.939  16.550  1.00  0.00    -0.331 N
HETATM   14 CL2  UNL     1      15.274  31.735  18.045  1.00  0.00    -0.063 Cl
ATOM     15  H4  UNL     1      15.275  33.431  15.779  1.00  0.00     0.168 HD
ATOM     16  H5  UNL     1      17.289  36.990  19.831  1.00  0.00     0.160 HD
BRANCH  10  17
HETATM   17  C2  UNL     1      17.906  34.025  22.697  1.00  0.00     0.274 C
HETATM   18  O2  UNL     1      16.939  33.437  23.255  1.00  0.00    -0.264 OA
BRANCH  17  19
HETATM   19  O1  UNL     1      18.830  34.641  23.526  1.00  0.00    -0.326 OA
HETATM   20  C1  UNL     1      18.440  35.550  24.539  1.00  0.00     0.213 C
ENDBRANCH  17  19
ENDBRANCH  10  17
ENDBRANCH   1   3
BRANCH   1  21
HETATM   21  N2  UNL     1      14.737  36.003  14.713  1.00  0.00    -0.263 N
HETATM   22  C8  UNL     1      14.586  36.988  13.740  1.00  0.00     0.282 C
HETATM   23  O3  UNL     1      15.655  37.594  13.354  1.00  0.00    -0.265 OA
ATOM     24  H2  UNL     1      13.929  35.482  15.053  1.00  0.00     0.190 HD
BRANCH  22  25
HETATM   25  C9  UNL     1      13.364  37.449  13.067  1.00  0.00     0.082 C
BRANCH  25  26
HETATM   26  C10 UNL     1      12.631  36.496  12.209  1.00  0.00     0.073 C
BRANCH  26  27
HETATM   27  C11 UNL     1      13.424  35.877  11.088  1.00  0.00     0.080 C
BRANCH  27  28
HETATM   28  S2  UNL     1      12.357  35.758   9.622  1.00  0.00    -0.173 SA
HETATM   29  C12 UNL     1      13.320  35.350   8.144  1.00  0.00     0.089 C
ENDBRANCH  27  28
ENDBRANCH  26  27
ENDBRANCH  25  26
BRANCH  25  30
HETATM   30  N3  UNL     1      13.480  38.790  12.571  1.00  0.00    -0.322 N
HETATM   31  C13 UNL     1      12.982  39.949  13.203  1.00  0.00     0.257 C
HETATM   32  O4  UNL     1      12.366  39.859  14.314  1.00  0.00    -0.267 OA
ATOM     33  H3  UNL     1      13.964  38.917  11.682  1.00  0.00     0.169 HD
BRANCH  31  34
HETATM   34  C14 UNL     1      13.143  41.275  12.630  1.00  0.00     0.054 A
HETATM   35  C15 UNL     1      12.184  41.688  11.702  1.00  0.00     0.019 A
HETATM   36  C16 UNL     1      12.324  42.940  11.152  1.00  0.00     0.001 A
HETATM   37  C17 UNL     1      13.376  43.760  11.506  1.00  0.00     0.002 A
HETATM   38  C18 UNL     1      14.319  43.350  12.421  1.00  0.00     0.025 A
HETATM   39  C19 UNL     1      14.188  42.098  12.977  1.00  0.00     0.049 A
HETATM   40 CL1  UNL     1      15.391  41.580  14.141  1.00  0.00    -0.083 Cl
ENDBRANCH  31  34
ENDBRANCH  25  30
ENDBRANCH  22  25
ENDBRANCH   1  21
TORSDOF 10
ENDMDL