MODEL 3
REMARK VINA RESULT: -7.293976826      6.076      8.653
REMARK  11 active torsions:
REMARK  status: ('A' for Active; 'I' for Inactive)
REMARK    1  A    between atoms: C2_2  and  C3_3
REMARK    2  A    between atoms: C3_3  and  C4_4
REMARK    3  A    between atoms: C13_16  and  N2_17
REMARK    4  A    between atoms: N2_17  and  C14_19
REMARK    5  A    between atoms: C14_19  and  C15_20
REMARK    6  A    between atoms: C15_20  and  O1_21
REMARK    7  A    between atoms: C16_25  and  N4_26
REMARK    8  A    between atoms: N4_26  and  C17_28
REMARK    9  A    between atoms: C21_32  and  C22_33
REMARK       I    between atoms: C22_33  and  N5_35
REMARK   10  A    between atoms: N5_35  and  S2_37
REMARK   11  A    between atoms: S2_37  and  C23_40
ROOT
HETATM    1  C1  UNL     1      16.855  37.264  21.209  1.00  0.00     0.023 C
HETATM    2  C2  UNL     1      17.567  37.491  19.898  1.00  0.00     0.008 C
HETATM    3  C10 UNL     1      17.030  38.731  19.203  1.00  0.00     0.134 C
HETATM    4  N1  UNL     1      16.864  38.361  17.815  1.00  0.00    -0.385 N
ATOM      5  H1  UNL     1      16.870  38.996  17.017  1.00  0.00     0.159 HD
HETATM    6  C11 UNL     1      16.688  36.929  17.765  1.00  0.00     0.086 A
HETATM    7  C12 UNL     1      17.096  36.409  18.962  1.00  0.00     0.026 A
HETATM    8  S1  UNL     1      16.958  34.693  19.084  1.00  0.00    -0.056 SA
HETATM    9  C13 UNL     1      16.335  33.991  17.668  1.00  0.00     0.146 A
HETATM   10  N3  UNL     1      16.047  34.858  16.684  1.00  0.00    -0.321 N
ATOM     11  H3  UNL     1      15.670  34.456  15.826  1.00  0.00     0.169 HD
HETATM   12  C16 UNL     1      16.195  36.181  16.699  1.00  0.00     0.131 A
ENDROOT
BRANCH  12  13
HETATM   13  N4  UNL     1      15.845  36.831  15.645  1.00  0.00    -0.370 N
ATOM     14  H4  UNL     1      16.604  37.100  15.019  1.00  0.00     0.161 HD
BRANCH  13  15
HETATM   15  C17 UNL     1      14.535  37.228  15.232  1.00  0.00     0.084 C
HETATM   16  C18 UNL     1      14.442  38.715  15.057  1.00  0.00     0.025 C
HETATM   17  C19 UNL     1      14.711  39.209  13.686  1.00  0.00     0.003 C
HETATM   18  C20 UNL     1      14.092  38.426  12.588  1.00  0.00     0.014 C
HETATM   19  C21 UNL     1      14.628  36.988  12.722  1.00  0.00     0.081 C
HETATM   20  C24 UNL     1      14.069  36.466  14.006  1.00  0.00     0.039 C
BRANCH  19  21
HETATM   21  C22 UNL     1      14.164  36.171  11.584  1.00  0.00     0.235 C
HETATM   22  O2  UNL     1      13.218  35.352  11.792  1.00  0.00    -0.272 OA
HETATM   23  N5  UNL     1      14.707  36.252  10.298  1.00  0.00    -0.249 N
ATOM     24  H5  UNL     1      15.464  36.923  10.168  1.00  0.00     0.181 HD
BRANCH  23  25
HETATM   25  S2  UNL     1      14.250  35.359   8.926  1.00  0.00     0.294 S
HETATM   26  O3  UNL     1      14.443  33.868   9.150  1.00  0.00    -0.200 OA
HETATM   27  O4  UNL     1      15.060  35.759   7.729  1.00  0.00    -0.200 OA
BRANCH  25  28
HETATM   28  C23 UNL     1      12.539  35.568   8.508  1.00  0.00     0.494 C
HETATM   29  F1  UNL     1      11.980  36.525   9.342  1.00  0.00    -0.195 F
HETATM   30  F2  UNL     1      12.404  36.067   7.213  1.00  0.00    -0.195 F
ENDBRANCH  25  28
ENDBRANCH  23  25
ENDBRANCH  19  21
ENDBRANCH  13  15
ENDBRANCH  12  13
BRANCH   9  31
HETATM   31  N2  UNL     1      16.119  32.736  17.474  1.00  0.00    -0.368 N
ATOM     32  H2  UNL     1      16.669  32.266  16.755  1.00  0.00     0.161 HD
BRANCH  31  33
HETATM   33  C14 UNL     1      15.165  31.958  18.195  1.00  0.00     0.147 C
BRANCH  33  34
HETATM   34  C15 UNL     1      15.807  30.853  19.011  1.00  0.00     0.183 C
BRANCH  34  35
HETATM   35  O1  UNL     1      16.183  29.770  18.249  1.00  0.00    -0.399 OA
ATOM     36  H1  UNL     1      15.559  29.565  17.562  1.00  0.00     0.209 HD
ENDBRANCH  34  35
ENDBRANCH  33  34
ENDBRANCH  31  33
ENDBRANCH   9  31
BRANCH   2  37
HETATM   37  C3  UNL     1      19.027  37.478  20.021  1.00  0.00     0.021 C
BRANCH  37  38
HETATM   38  C4  UNL     1      19.700  37.780  21.286  1.00  0.00    -0.013 C
HETATM   39  C5  UNL     1      20.869  37.021  21.740  1.00  0.00     0.005 C
HETATM   40  C6  UNL     1      21.100  37.410  23.225  1.00  0.00     0.000 C
HETATM   41  C7  UNL     1      21.099  38.881  23.440  1.00  0.00     0.000 C
HETATM   42  C8  UNL     1      21.264  39.576  22.123  1.00  0.00     0.000 C
HETATM   43  C9  UNL     1      20.187  39.252  21.145  1.00  0.00     0.005 C
ENDBRANCH  37  38
ENDBRANCH   2  37
TORSDOF 11
ENDMDL