MODEL 5
REMARK VINA RESULT: -6.712910808      5.776      9.525
REMARK  12 active torsions:
REMARK  status: ('A' for Active; 'I' for Inactive)
REMARK    1  A    between atoms: C2_2  and  O2_4
REMARK    2  A    between atoms: O2_4  and  C3_5
REMARK    3  A    between atoms: C3_5  and  C5_7
REMARK    4  A    between atoms: C5_7  and  C7_9
REMARK    5  A    between atoms: C7_9  and  C8_10
REMARK    6  A    between atoms: C8_10  and  O3_11
REMARK    7  A    between atoms: C8_10  and  C9_13
REMARK    8  A    between atoms: C9_13  and  C11_15
REMARK    9  A    between atoms: C15_19  and  O4_20
REMARK   10  A    between atoms: C19_28  and  C20_29
REMARK   11  A    between atoms: C21_32  and  C22_33
REMARK   12  A    between atoms: C27_39  and  O9_40
ROOT
HETATM    1  C11 UNL     1      13.131  37.959  15.446  1.00  0.00    -0.044 C
HETATM    2  C12 UNL     1      11.783  38.423  15.103  1.00  0.00     0.064 C
HETATM    3  C13 UNL     1      11.645  39.557  14.173  1.00  0.00    -0.014 C
HETATM    4  C14 UNL     1      11.934  40.840  14.055  1.00  0.00    -0.015 C
HETATM    5  C15 UNL     1      11.385  41.208  12.695  1.00  0.00     0.210 C
HETATM    6 CL1  UNL     1      12.660  41.120  11.464  1.00  0.00    -0.076 Cl
HETATM    7  C16 UNL     1      10.810  42.545  12.825  1.00  0.00     0.120 C
HETATM    8  C17 UNL     1       9.586  42.854  12.493  1.00  0.00     0.042 C
HETATM    9  C18 UNL     1       9.101  44.250  12.665  1.00  0.00     0.064 C
HETATM   10 CL2  UNL     1       8.501  41.666  11.848  1.00  0.00    -0.087 Cl
HETATM   11  O5  UNL     1      11.699  43.501  13.344  1.00  0.00    -0.325 OA
HETATM   12  C19 UNL     1      12.723  43.201  14.272  1.00  0.00     0.176 C
HETATM   13  C21 UNL     1      12.276  43.818  15.608  1.00  0.00     0.095 C
HETATM   14  C23 UNL     1      11.743  42.472  15.977  1.00  0.00     0.033 C
HETATM   15  C24 UNL     1      12.606  41.853  14.892  1.00  0.00     0.031 C
HETATM   16  C25 UNL     1      13.824  41.267  15.516  1.00  0.00     0.020 C
HETATM   17  C26 UNL     1      13.361  40.222  16.544  1.00  0.00     0.037 C
HETATM   18  C27 UNL     1      13.996  38.936  16.199  1.00  0.00     0.147 C
ENDROOT
BRANCH   1  19
HETATM   19  C9  UNL     1      13.907  37.143  14.464  1.00  0.00    -0.050 C
HETATM   20  C10 UNL     1      14.845  36.131  15.034  1.00  0.00     0.046 C
BRANCH  19  21
HETATM   21  C8  UNL     1      14.314  37.798  13.199  1.00  0.00     0.147 C
BRANCH  21  22
HETATM   22  C7  UNL     1      13.761  37.440  11.901  1.00  0.00     0.043 C
BRANCH  22  23
HETATM   23  C5  UNL     1      12.857  36.258  11.791  1.00  0.00     0.013 C
HETATM   24  C6  UNL     1      11.434  36.660  11.414  1.00  0.00     0.012 C
BRANCH  23  25
HETATM   25  C3  UNL     1      13.351  35.485  10.544  1.00  0.00     0.131 C
HETATM   26  C4  UNL     1      14.798  35.103  10.683  1.00  0.00     0.040 C
BRANCH  25  27
HETATM   27  O2  UNL     1      13.101  36.230   9.370  1.00  0.00    -0.316 OA
BRANCH  27  28
HETATM   28  C2  UNL     1      12.867  35.667   8.137  1.00  0.00     0.255 C
HETATM   29  C1  UNL     1      11.565  35.797   7.430  1.00  0.00     0.126 C
HETATM   30  O1  UNL     1      13.798  35.014   7.588  1.00  0.00    -0.266 OA
ENDBRANCH  27  28
ENDBRANCH  25  27
ENDBRANCH  23  25
ENDBRANCH  22  23
ENDBRANCH  21  22
BRANCH  21  31
HETATM   31  O3  UNL     1      15.725  37.474  13.105  1.00  0.00    -0.391 OA
ATOM     32  H3  UNL     1      15.807  36.973  12.301  1.00  0.00     0.210 HD
ENDBRANCH  21  31
ENDBRANCH  19  21
ENDBRANCH   1  19
BRANCH  18  33
HETATM   33  O9  UNL     1      14.551  38.343  17.364  1.00  0.00    -0.391 OA
ATOM     34  H9  UNL     1      13.875  38.119  17.993  1.00  0.00     0.210 HD
ENDBRANCH  18  33
BRANCH   5  35
HETATM   35  O4  UNL     1      10.449  40.235  12.360  1.00  0.00    -0.366 OA
ATOM     36  H4  UNL     1      10.238  39.767  13.160  1.00  0.00     0.212 HD
ENDBRANCH   5  35
BRANCH  12  37
HETATM   37  C20 UNL     1      14.014  43.665  13.782  1.00  0.00     0.211 C
HETATM   38  O6  UNL     1      15.115  43.081  13.815  1.00  0.00    -0.646 OA
HETATM   39  O7  UNL     1      14.075  44.942  13.183  1.00  0.00    -0.646 OA
ENDBRANCH  12  37
BRANCH  13  40
HETATM   40  C22 UNL     1      13.365  44.387  16.398  1.00  0.00     0.239 C
HETATM   41  O8  UNL     1      13.316  45.539  16.797  1.00  0.00    -0.306 OA
ENDBRANCH  13  40
TORSDOF 12
ENDMDL