MODEL 3
REMARK VINA RESULT: -6.575025312      5.624      7.711
REMARK  13 active torsions:
REMARK  status: ('A' for Active; 'I' for Inactive)
REMARK       I    between atoms: C2_2  and  N1_4
REMARK    1  A    between atoms: C3_6  and  O2_7
REMARK    2  A    between atoms: C3_6  and  N2_9
REMARK    3  A    between atoms: C4_11  and  O3_12
REMARK    4  A    between atoms: C4_11  and  C5_14
REMARK    5  A    between atoms: C9_20  and  O4_21
REMARK    6  A    between atoms: O4_21  and  C10_22
REMARK    7  A    between atoms: C10_22  and  C11_23
REMARK    8  A    between atoms: C11_23  and  C12_25
REMARK    9  A    between atoms: C12_25  and  O6_26
REMARK   10  A    between atoms: C12_25  and  C13_28
REMARK   11  A    between atoms: C13_28  and  C14_29
REMARK   12  A    between atoms: C14_29  and  S1_30
REMARK   13  A    between atoms: C15_32  and  O7_33
ROOT
HETATM    1  C5  UNL     1      13.522  37.800  13.327  1.00  0.00     0.068 A
HETATM    2  C6  UNL     1      13.406  37.519  14.653  1.00  0.00     0.029 A
HETATM    3 BR1  UNL     1      14.617  36.418  15.631  1.00  0.00    -0.050 Br
HETATM    4  C7  UNL     1      12.377  38.097  15.424  1.00  0.00     0.042 A
HETATM    5  C8  UNL     1      11.484  38.948  14.870  1.00  0.00     0.048 A
HETATM    6 BR2  UNL     1      10.093  39.725  15.936  1.00  0.00    -0.048 Br
HETATM    7  C9  UNL     1      11.551  39.280  13.526  1.00  0.00     0.120 A
HETATM    8  C15 UNL     1      12.555  38.717  12.759  1.00  0.00     0.116 A
ENDROOT
BRANCH   1   9
HETATM    9  C4  UNL     1      14.507  37.243  12.455  1.00  0.00     0.157 C
HETATM   10  N2  UNL     1      14.805  36.487  11.396  1.00  0.00    -0.302 N
ATOM     11  H2  UNL     1      15.825  36.484  11.388  1.00  0.00     0.171 HD
BRANCH  10  12
HETATM   12  C3  UNL     1      14.469  35.694  10.288  1.00  0.00     0.225 C
HETATM   13  N1  UNL     1      14.884  35.644   9.013  1.00  0.00    -0.290 N
HETATM   14  C2  UNL     1      13.343  35.375   8.294  1.00  0.00     0.238 C
ATOM     15  H1  UNL     1      15.812  35.737   8.601  1.00  0.00     0.172 HD
HETATM   16  C1  UNL     1      12.204  35.577   9.043  1.00  0.00     0.091 C
HETATM   17  O1  UNL     1      13.546  35.038   7.141  1.00  0.00    -0.269 OA
BRANCH  12  18
HETATM   18  O2  UNL     1      13.501  34.806  10.674  1.00  0.00    -0.332 OA
ATOM     19  H2  UNL     1      13.720  33.882  10.656  1.00  0.00     0.221 HD
ENDBRANCH  12  18
ENDBRANCH  10  12
BRANCH   9  20
HETATM   20  O3  UNL     1      15.742  37.719  12.916  1.00  0.00    -0.345 OA
ATOM     21  H3  UNL     1      16.306  37.717  12.151  1.00  0.00     0.219 HD
ENDBRANCH   9  20
ENDBRANCH   1   9
BRANCH   8  22
HETATM   22  O7  UNL     1      12.569  39.064  11.496  1.00  0.00    -0.357 OA
ATOM     23  H7  UNL     1      11.914  39.637  11.115  1.00  0.00     0.217 HD
ENDBRANCH   8  22
BRANCH   7  24
HETATM   24  O4  UNL     1      10.634  40.114  13.034  1.00  0.00    -0.340 OA
BRANCH  24  25
HETATM   25  C10 UNL     1      10.314  41.438  13.086  1.00  0.00     0.257 C
BRANCH  25  26
HETATM   26  C11 UNL     1      11.590  42.206  13.124  1.00  0.00     0.179 C
HETATM   27  O5  UNL     1      12.033  42.521  14.208  1.00  0.00    -0.293 OA
BRANCH  26  28
HETATM   28  C12 UNL     1      12.338  42.583  11.904  1.00  0.00     0.190 C
BRANCH  28  29
HETATM   29  O6  UNL     1      12.032  41.716  10.842  1.00  0.00    -0.388 OA
ATOM     30  H6  UNL     1      11.624  42.189  10.126  1.00  0.00     0.210 HD
ENDBRANCH  28  29
BRANCH  28  31
HETATM   31  C13 UNL     1      13.808  42.712  12.133  1.00  0.00     0.050 C
BRANCH  31  32
HETATM   32  C14 UNL     1      14.313  44.101  11.932  1.00  0.00     0.090 C
BRANCH  32  33
HETATM   33  S1  UNL     1      13.456  45.070  10.727  1.00  0.00    -0.085 SA
HETATM   34  S2  UNL     1      14.588  46.147   9.356  1.00  0.00    -0.013 SA
ENDBRANCH  32  33
ENDBRANCH  31  32
ENDBRANCH  28  31
ENDBRANCH  26  28
ENDBRANCH  25  26
ENDBRANCH  24  25
ENDBRANCH   7  24
TORSDOF 13
ENDMDL