MODEL 2
REMARK VINA RESULT: -6.445931770      1.376      2.024
REMARK  10 active torsions:
REMARK  status: ('A' for Active; 'I' for Inactive)
REMARK    1  A    between atoms: C2_2  and  C3_3
REMARK    2  A    between atoms: C3_3  and  S1_4
REMARK    3  A    between atoms: S1_4  and  N1_7
REMARK    4  A    between atoms: N1_7  and  C4_9
REMARK    5  A    between atoms: C11_18  and  C12_19
REMARK    6  A    between atoms: C12_19  and  N2_20
REMARK       I    between atoms: N2_20  and  C13_22
REMARK    7  A    between atoms: C13_22  and  O4_24
REMARK    8  A    between atoms: O4_24  and  C14_25
REMARK    9  A    between atoms: C19_30  and  O5_31
REMARK   10  A    between atoms: N3_34  and  C22_36
ROOT
HETATM    1  C22 UNL     1      14.323  35.322  10.801  1.00  0.00     0.245 C
HETATM    2  C23 UNL     1      14.004  35.111   9.367  1.00  0.00     0.078 C
HETATM    3  N4  UNL     1      13.769  34.955   8.256  1.00  0.00    -0.196 NA
ENDROOT
BRANCH   1   4
HETATM    4  N3  UNL     1      13.470  36.344  11.321  1.00  0.00    -0.365 N
HETATM    5  C21 UNL     1      13.627  37.015  12.403  1.00  0.00     0.117 C
HETATM    6  C19 UNL     1      12.563  37.985  12.634  1.00  0.00     0.127 C
HETATM    7  N5  UNL     1      14.807  36.648  13.107  1.00  0.00    -0.310 N
HETATM    8  C10 UNL     1      12.454  38.728  13.863  1.00  0.00     0.071 C
HETATM    9  C18 UNL     1      12.907  39.283  11.888  1.00  0.00     0.054 C
HETATM   10  C8  UNL     1      12.980  38.269  15.123  1.00  0.00     0.008 A
HETATM   11  C11 UNL     1      13.281  39.856  13.227  1.00  0.00     0.019 C
HETATM   12  C7  UNL     1      14.059  37.455  15.487  1.00  0.00     0.064 A
HETATM   13  C9  UNL     1      12.258  38.751  16.191  1.00  0.00     0.151 A
HETATM   14  C6  UNL     1      14.385  37.152  16.772  1.00  0.00     0.052 A
HETATM   15  C24 UNL     1      14.961  36.822  14.534  1.00  0.00     0.259 C
HETATM   16  C5  UNL     1      13.616  37.671  17.810  1.00  0.00     0.058 A
HETATM   17 CL1  UNL     1      15.759  36.123  17.100  1.00  0.00    -0.083 Cl
HETATM   18  C4  UNL     1      12.556  38.468  17.529  1.00  0.00     0.083 A
HETATM   19  O6  UNL     1      16.040  36.346  14.961  1.00  0.00    -0.267 OA
HETATM   20  F1  UNL     1      11.187  39.546  15.978  1.00  0.00    -0.203 F
ATOM     21  H5  UNL     1      15.581  36.242  12.581  1.00  0.00     0.170 HD
ATOM     22  H3  UNL     1      12.641  36.564  10.768  1.00  0.00     0.161 HD
BRANCH   6  23
HETATM   23  O5  UNL     1      11.348  37.475  12.174  1.00  0.00    -0.376 OA
HETATM   24  C20 UNL     1      10.319  38.172  12.784  1.00  0.00     0.203 C
ENDBRANCH   6  23
BRANCH  18  25
HETATM   25  N1  UNL     1      11.730  39.004  18.551  1.00  0.00    -0.281 N
ATOM     26  H1  UNL     1      11.041  38.367  18.952  1.00  0.00     0.178 HD
BRANCH  25  27
HETATM   27  S1  UNL     1      11.748  40.569  19.185  1.00  0.00     0.231 S
HETATM   28  O1  UNL     1      10.658  41.420  18.528  1.00  0.00    -0.206 OA
HETATM   29  O2  UNL     1      11.370  40.493  20.650  1.00  0.00    -0.206 OA
BRANCH  27  30
HETATM   30  C3  UNL     1      13.241  41.464  19.017  1.00  0.00     0.163 C
BRANCH  30  31
HETATM   31  C2  UNL     1      13.290  42.026  17.597  1.00  0.00     0.012 C
HETATM   32  C1  UNL     1      14.499  41.610  16.830  1.00  0.00     0.006 C
ENDBRANCH  30  31
ENDBRANCH  27  30
ENDBRANCH  25  27
ENDBRANCH  18  25
BRANCH  11  33
HETATM   33  C12 UNL     1      12.832  41.244  13.506  1.00  0.00     0.130 C
BRANCH  33  34
HETATM   34  N2  UNL     1      13.773  42.269  13.189  1.00  0.00    -0.336 N
HETATM   35  C13 UNL     1      13.635  42.960  11.952  1.00  0.00     0.361 C
HETATM   36  O3  UNL     1      12.693  42.678  11.134  1.00  0.00    -0.238 OA
ATOM     37  H2  UNL     1      14.528  42.501  13.835  1.00  0.00     0.164 HD
BRANCH  35  38
HETATM   38  O4  UNL     1      14.485  43.964  11.546  1.00  0.00    -0.294 OA
BRANCH  38  39
HETATM   39  C14 UNL     1      14.468  45.269  12.092  1.00  0.00     0.061 C
HETATM   40  C15 UNL     1      15.035  46.214  11.059  1.00  0.00     0.046 C
HETATM   41  C16 UNL     1      13.059  45.723  12.389  1.00  0.00     0.046 C
HETATM   42  C17 UNL     1      15.250  45.355  13.378  1.00  0.00     0.046 C
ENDBRANCH  38  39
ENDBRANCH  35  38
ENDBRANCH  33  34
ENDBRANCH  11  33
ENDBRANCH   1   4
TORSDOF 10
ENDMDL