MODEL 4
REMARK VINA RESULT: -6.219325384      5.555      7.280
REMARK  8 active torsions:
REMARK  status: ('A' for Active; 'I' for Inactive)
REMARK    1  A    between atoms: C1_2  and  C2_3
REMARK       I    between atoms: C1_2  and  N1_17
REMARK    2  A    between atoms: C3_4  and  C4_5
REMARK    3  A    between atoms: C5_6  and  C6_7
REMARK    4  A    between atoms: C7_10  and  C8_12
REMARK    5  A    between atoms: C8_12  and  C9_13
REMARK    6  A    between atoms: C10_14  and  C11_15
REMARK    7  A    between atoms: N1_17  and  C12_19
REMARK    8  A    between atoms: C12_19  and  C13_20
ROOT
HETATM    1  C2  UNL     1      10.445  24.873  22.706  1.00  0.00     0.070 C
HETATM    2  C3  UNL     1      10.160  25.464  23.829  1.00  0.00    -0.014 C
ENDROOT
BRANCH   1   3
HETATM    3  C1  UNL     1      10.960  23.545  22.509  1.00  0.00     0.240 C
HETATM    4  O1  UNL     1      12.142  23.262  22.813  1.00  0.00    -0.269 OA
HETATM    5  N1  UNL     1      10.118  22.527  21.958  1.00  0.00    -0.357 N
ATOM      6  H1  UNL     1       9.154  22.745  21.707  1.00  0.00     0.162 HD
BRANCH   5   7
HETATM    7  C12 UNL     1      10.625  21.197  21.758  1.00  0.00     0.137 C
BRANCH   7   8
HETATM    8  C13 UNL     1       9.514  20.330  21.231  1.00  0.00     0.097 C
HETATM    9  C14 UNL     1       9.936  18.891  21.118  1.00  0.00     0.035 C
HETATM   10  C15 UNL     1       9.261  18.359  19.881  1.00  0.00     0.123 C
HETATM   11  N2  UNL     1       8.867  19.540  19.143  1.00  0.00    -0.361 N
HETATM   12  C16 UNL     1       9.261  20.722  19.826  1.00  0.00     0.223 C
ATOM     13  H2  UNL     1       8.372  19.525  18.252  1.00  0.00     0.162 HD
HETATM   14  O4  UNL     1       9.367  21.880  19.308  1.00  0.00    -0.273 OA
ENDBRANCH   7   8
ENDBRANCH   5   7
ENDBRANCH   1   3
BRANCH   2  15
HETATM   15  C4  UNL     1      10.316  24.860  25.165  1.00  0.00     0.050 A
HETATM   16  C5  UNL     1       9.225  25.177  26.190  1.00  0.00     0.121 A
HETATM   17  C7  UNL     1      10.668  25.626  26.361  1.00  0.00     0.069 A
HETATM   18 CL1  UNL     1      11.613  24.761  27.628  1.00  0.00    -0.117 Cl
BRANCH  16  19
HETATM   19  C6  UNL     1       8.771  24.152  27.129  1.00  0.00     0.179 C
HETATM   20  O2  UNL     1       8.037  24.493  28.100  1.00  0.00    -0.648 OA
HETATM   21  O3  UNL     1       9.090  22.815  27.030  1.00  0.00    -0.648 OA
ENDBRANCH  16  19
BRANCH  17  22
HETATM   22  C8  UNL     1      10.877  27.099  26.400  1.00  0.00     0.121 C
BRANCH  22  23
HETATM   23  C9  UNL     1      12.275  27.379  26.085  1.00  0.00    -0.104 C
HETATM   24  C10 UNL     1      13.442  27.639  25.832  1.00  0.00    -0.096 C
BRANCH  24  25
HETATM   25  C11 UNL     1      14.834  27.974  25.521  1.00  0.00     0.178 C
HETATM   26 BR1  UNL     1      15.451  29.442  26.652  1.00  0.00    -0.083 Br
ENDBRANCH  24  25
ENDBRANCH  22  23
ENDBRANCH  17  22
ENDBRANCH   2  15
TORSDOF 8
ENDMDL