MODEL 1
REMARK VINA RESULT: -6.429657818      0.000      0.000
REMARK  6 active torsions:
REMARK  status: ('A' for Active; 'I' for Inactive)
REMARK    1  A    between atoms: C3_3  and  N1_4
REMARK       I    between atoms: N1_4  and  C4_6
REMARK    2  A    between atoms: C4_6  and  C5_8
REMARK    3  A    between atoms: C5_8  and  N2_9
REMARK    4  A    between atoms: C5_8  and  C13_24
REMARK       I    between atoms: N2_9  and  C6_11
REMARK    5  A    between atoms: C6_11  and  C7_13
REMARK    6  A    between atoms: C9_15  and  C10_16
ROOT
HETATM    1  C1  UNL     1       9.413  17.990  18.720  1.00  0.00     0.014 C
HETATM    2  C2  UNL     1       9.497  18.350  19.872  1.00  0.00    -0.098 C
HETATM    3  C3  UNL     1       9.586  18.811  21.268  1.00  0.00     0.216 C
ENDROOT
BRANCH   3   4
HETATM    4  N1  UNL     1      10.265  20.082  21.348  1.00  0.00    -0.349 N
HETATM    5  C4  UNL     1       9.607  21.323  21.246  1.00  0.00     0.241 C
HETATM    6  O1  UNL     1       8.382  21.377  21.077  1.00  0.00    -0.271 OA
ATOM      7  H1  UNL     1      11.275  20.082  21.486  1.00  0.00     0.163 HD
BRANCH   5   8
HETATM    8  C5  UNL     1      10.392  22.562  21.346  1.00  0.00     0.180 C
BRANCH   8   9
HETATM    9  N2  UNL     1      10.046  23.394  22.480  1.00  0.00    -0.346 N
HETATM   10  C6  UNL     1      11.016  23.934  23.308  1.00  0.00     0.241 C
HETATM   11  O2  UNL     1      12.246  23.686  23.047  1.00  0.00    -0.271 OA
ATOM     12  H2  UNL     1       9.063  23.586  22.674  1.00  0.00     0.163 HD
BRANCH  10  13
HETATM   13  C7  UNL     1      10.828  24.794  24.501  1.00  0.00     0.174 C
HETATM   14  C8  UNL     1       9.432  25.181  24.796  1.00  0.00     0.051 C
HETATM   15  C9  UNL     1       9.404  25.889  26.138  1.00  0.00     0.108 C
HETATM   16  C11 UNL     1      10.736  26.313  26.648  1.00  0.00     0.110 C
HETATM   17 BR1  UNL     1      11.482  25.075  27.947  1.00  0.00    -0.085 Br
HETATM   18  C12 UNL     1      11.746  26.704  25.634  1.00  0.00     0.073 C
HETATM   19  N3  UNL     1      11.695  25.924  24.469  1.00  0.00    -0.388 N
ATOM     20  H3  UNL     1      12.249  26.153  23.644  1.00  0.00     0.159 HD
BRANCH  15  21
HETATM   21  C10 UNL     1       8.789  25.027  27.183  1.00  0.00     0.178 C
HETATM   22  O3  UNL     1       8.259  25.577  28.172  1.00  0.00    -0.648 OA
HETATM   23  O4  UNL     1       8.773  23.645  27.118  1.00  0.00    -0.648 OA
ENDBRANCH  15  21
ENDBRANCH  10  13
ENDBRANCH   8   9
BRANCH   8  24
HETATM   24  C13 UNL     1      10.226  23.319  20.039  1.00  0.00     0.009 C
HETATM   25  C14 UNL     1       9.183  24.396  20.093  1.00  0.00     0.012 C
HETATM   26  C15 UNL     1      11.570  23.825  19.532  1.00  0.00     0.012 C
ENDBRANCH   8  24
ENDBRANCH   5   8
ENDBRANCH   3   4
TORSDOF 6
ENDMDL