MODEL 4
REMARK VINA RESULT: -5.322145838      5.213      6.692
REMARK  8 active torsions:
REMARK  status: ('A' for Active; 'I' for Inactive)
REMARK    1  A    between atoms: C1_2  and  C2_3
REMARK       I    between atoms: C1_2  and  N1_5
REMARK    2  A    between atoms: N1_5  and  C3_7
REMARK    3  A    between atoms: C3_7  and  C4_8
REMARK    4  A    between atoms: C4_8  and  N2_9
REMARK    5  A    between atoms: C4_8  and  S1_25
REMARK    6  A    between atoms: N2_9  and  C5_11
REMARK    7  A    between atoms: C5_11  and  C6_12
REMARK       I    between atoms: C6_12  and  N3_14
REMARK    8  A    between atoms: N3_14  and  C7_16
ROOT
HETATM    1  C5  UNL     1      13.948  25.950  20.215  1.00  0.00     0.222 C
ENDROOT
BRANCH   1   2
HETATM    2  N2  UNL     1      13.827  25.028  21.300  1.00  0.00    -0.377 N
ATOM      3  H2  UNL     1      14.669  24.587  21.671  1.00  0.00     0.160 HD
BRANCH   2   4
HETATM    4  C4  UNL     1      12.547  24.702  21.885  1.00  0.00     0.076 C
BRANCH   4   5
HETATM    5  C3  UNL     1      11.721  23.723  21.179  1.00  0.00     0.188 C
BRANCH   5   6
HETATM    6  N1  UNL     1      11.524  22.483  21.888  1.00  0.00    -0.354 N
HETATM    7  C1  UNL     1      10.718  21.429  21.370  1.00  0.00     0.227 C
HETATM    8  O1  UNL     1      10.145  21.526  20.251  1.00  0.00    -0.273 OA
ATOM      9  H1  UNL     1      11.979  22.356  22.792  1.00  0.00     0.162 HD
BRANCH   7  10
HETATM   10  C2  UNL     1      10.532  20.185  22.138  1.00  0.00     0.187 C
HETATM   11 BR1  UNL     1       9.772  18.756  21.124  1.00  0.00    -0.087 Br
ENDBRANCH   7  10
ENDBRANCH   5   6
ENDBRANCH   4   5
BRANCH   4  12
HETATM   12  S1  UNL     1      12.072  25.463  23.236  1.00  0.00    -0.004 SA
HETATM   13 CL1  UNL     1      10.793  24.584  24.650  1.00  0.00    -0.037 Cl
ENDBRANCH   4  12
ENDBRANCH   2   4
ENDBRANCH   1   2
BRANCH   1  14
HETATM   14  C6  UNL     1      14.348  25.358  18.932  1.00  0.00     0.235 C
HETATM   15  O2  UNL     1      13.438  24.713  18.301  1.00  0.00    -0.272 OA
HETATM   16  N3  UNL     1      15.594  25.412  18.314  1.00  0.00    -0.355 N
ATOM     17  H3  UNL     1      16.335  25.921  18.798  1.00  0.00     0.162 HD
BRANCH  16  18
HETATM   18  C7  UNL     1      15.925  24.808  17.046  1.00  0.00     0.092 C
HETATM   19  C8  UNL     1      17.369  24.342  17.062  1.00  0.00     0.058 C
HETATM   20  C9  UNL     1      17.971  24.837  15.761  1.00  0.00     0.188 C
HETATM   21  C10 UNL     1      16.709  24.848  14.878  1.00  0.00     0.041 C
HETATM   22  N4  UNL     1      18.203  26.247  15.888  1.00  0.00    -0.070 N
HETATM   23  C11 UNL     1      15.890  25.706  15.868  1.00  0.00     0.036 C
HETATM   24  C12 UNL     1      16.879  26.829  16.052  1.00  0.00     0.239 C
ATOM     25  H42 UNL     1      18.859  26.494  16.629  1.00  0.00     0.277 HD
ATOM     26  H41 UNL     1      18.740  26.650  15.121  1.00  0.00     0.277 HD
ENDBRANCH  16  18
ENDBRANCH   1  14
TORSDOF 8
ENDMDL