MODEL 2
REMARK VINA RESULT: -5.902992731      1.588      2.732
REMARK  7 active torsions:
REMARK  status: ('A' for Active; 'I' for Inactive)
REMARK    1  A    between atoms: C2_2  and  N2_6
REMARK       I    between atoms: N3_9  and  C5_10
REMARK       I    between atoms: C5_10  and  N4_12
REMARK    2  A    between atoms: N4_12  and  C6_14
REMARK    3  A    between atoms: C6_14  and  C7_15
REMARK    4  A    between atoms: C6_14  and  C11_24
REMARK       I    between atoms: C7_15  and  N5_17
REMARK    5  A    between atoms: N5_17  and  C8_19
REMARK    6  A    between atoms: C8_19  and  C9_20
REMARK    7  A    between atoms: C9_20  and  C10_21
ROOT
HETATM    1  N2  UNL     1       9.204  19.895  20.154  1.00  0.00    -0.368 N
HETATM    2  C3  UNL     1       9.467  19.710  21.591  1.00  0.00     0.144 C
HETATM    3  C4  UNL     1      10.742  20.531  21.833  1.00  0.00     0.147 C
HETATM    4  N3  UNL     1      10.346  21.906  21.653  1.00  0.00    -0.331 N
HETATM    5  C5  UNL     1      11.022  22.930  22.345  1.00  0.00     0.319 C
HETATM    6  O1  UNL     1      11.991  22.618  23.118  1.00  0.00    -0.247 OA
HETATM    7  N4  UNL     1      10.684  24.290  22.231  1.00  0.00    -0.327 N
ATOM      8  H4  UNL     1       9.919  24.576  21.620  1.00  0.00     0.165 HD
HETATM    9  C13 UNL     1       9.257  22.230  20.762  1.00  0.00     0.147 C
HETATM   10  C14 UNL     1       9.121  21.225  19.634  1.00  0.00     0.144 C
ENDROOT
BRANCH   7  11
HETATM   11  C6  UNL     1      11.444  25.313  23.005  1.00  0.00     0.216 C
BRANCH  11  12
HETATM   12  C7  UNL     1      12.580  25.746  22.182  1.00  0.00     0.243 C
HETATM   13  O2  UNL     1      12.304  26.093  20.979  1.00  0.00    -0.271 OA
HETATM   14  N5  UNL     1      13.933  25.829  22.552  1.00  0.00    -0.359 N
ATOM     15  H5  UNL     1      14.223  25.571  23.497  1.00  0.00     0.162 HD
BRANCH  14  16
HETATM   16  C8  UNL     1      14.939  26.292  21.563  1.00  0.00     0.133 C
BRANCH  16  17
HETATM   17  C9  UNL     1      15.479  27.591  22.053  1.00  0.00     0.133 C
BRANCH  17  18
HETATM   18  C10 UNL     1      15.961  27.527  23.453  1.00  0.00     0.174 C
HETATM   19  O3  UNL     1      15.137  27.567  24.408  1.00  0.00    -0.648 OA
HETATM   20  O4  UNL     1      17.325  27.423  23.663  1.00  0.00    -0.648 OA
ENDBRANCH  17  18
ENDBRANCH  16  17
ENDBRANCH  14  16
ENDBRANCH  11  12
BRANCH  11  21
HETATM   21  C11 UNL     1      10.474  26.373  23.424  1.00  0.00     0.138 C
HETATM   22  C12 UNL     1       9.604  25.712  24.527  1.00  0.00     0.053 C
HETATM   23 CL1  UNL     1      11.365  27.724  24.237  1.00  0.00    -0.099 Cl
HETATM   24 CL2  UNL     1       9.428  26.979  22.153  1.00  0.00    -0.099 Cl
ENDBRANCH  11  21
ENDBRANCH   7  11
BRANCH   1  25
HETATM   25  C2  UNL     1       9.047  18.734  19.372  1.00  0.00     0.068 C
HETATM   26  C1  UNL     1       9.918  17.574  19.602  1.00  0.00     0.088 C
HETATM   27  N1  UNL     1       8.147  18.695  18.468  1.00  0.00    -0.389 N
ATOM     28  H12 UNL     1       8.034  17.855  17.902  1.00  0.00     0.157 HD
ATOM     29  H11 UNL     1       7.542  19.500  18.308  1.00  0.00     0.157 HD
ENDBRANCH   1  25
TORSDOF 7
ENDMDL