MODEL 3
REMARK VINA RESULT: -6.099955048      1.335      1.533
REMARK  7 active torsions:
REMARK  status: ('A' for Active; 'I' for Inactive)
REMARK    1  A    between atoms: N1_1  and  C1_5
REMARK    2  A    between atoms: C1_5  and  C2_6
REMARK    3  A    between atoms: C2_6  and  N2_7
REMARK       I    between atoms: N2_7  and  C3_9
REMARK    4  A    between atoms: C3_9  and  C4_11
REMARK       I    between atoms: N3_15  and  C8_16
REMARK    5  A    between atoms: C8_16  and  C9_18
REMARK    6  A    between atoms: C9_18  and  C10_19
REMARK    7  A    between atoms: C13_23  and  C14_24
ROOT
HETATM    1  C4  UNL     1       9.423  21.988  21.713  1.00  0.00     0.179 C
HETATM    2  C5  UNL     1       8.347  22.257  20.673  1.00  0.00     0.037 C
HETATM    3  C6  UNL     1       9.014  22.960  19.536  1.00  0.00     0.022 C
HETATM    4  C7  UNL     1      10.458  23.042  19.962  1.00  0.00     0.127 C
HETATM    5  N3  UNL     1      10.372  23.018  21.398  1.00  0.00    -0.339 N
HETATM    6  C8  UNL     1      11.077  23.841  22.273  1.00  0.00     0.222 C
HETATM    7  O2  UNL     1      11.852  24.730  21.779  1.00  0.00    -0.273 OA
ENDROOT
BRANCH   1   8
HETATM    8  C3  UNL     1       9.983  20.628  21.596  1.00  0.00     0.240 C
HETATM    9  N2  UNL     1       9.406  19.691  20.710  1.00  0.00    -0.358 N
ATOM     10  H2  UNL     1       8.598  19.999  20.168  1.00  0.00     0.162 HD
HETATM   11  O1  UNL     1      10.970  20.288  22.279  1.00  0.00    -0.271 OA
BRANCH   9  12
HETATM   12  C2  UNL     1       9.854  18.347  20.505  1.00  0.00     0.150 C
BRANCH  12  13
HETATM   13  C1  UNL     1       9.476  17.772  19.172  1.00  0.00     0.249 C
BRANCH  13  14
HETATM   14  N1  UNL     1       8.350  18.545  18.655  1.00  0.00    -0.078 N
ATOM     15  H13 UNL     1       7.980  19.209  19.335  1.00  0.00     0.274 HD
ATOM     16  H12 UNL     1       8.628  19.220  17.943  1.00  0.00     0.274 HD
ATOM     17  H11 UNL     1       7.646  17.886  18.322  1.00  0.00     0.274 HD
ENDBRANCH  13  14
ENDBRANCH  12  13
ENDBRANCH   9  12
ENDBRANCH   1   8
BRANCH   6  18
HETATM   18  C9  UNL     1      10.975  23.741  23.736  1.00  0.00     0.136 C
BRANCH  18  19
HETATM   19  C10 UNL     1      10.437  25.049  24.306  1.00  0.00     0.196 C
HETATM   20  C11 UNL     1       9.621  24.706  25.529  1.00  0.00     0.055 C
HETATM   21  C12 UNL     1      10.632  24.955  26.653  1.00  0.00     0.115 C
HETATM   22 CL1  UNL     1       9.841  25.338  28.172  1.00  0.00    -0.123 Cl
HETATM   23  C13 UNL     1      11.350  26.181  26.108  1.00  0.00     0.214 C
HETATM   24  N4  UNL     1      11.535  25.874  24.700  1.00  0.00    -0.064 N
ATOM     25  H42 UNL     1      12.444  25.456  24.497  1.00  0.00     0.278 HD
ATOM     26  H41 UNL     1      11.642  26.705  24.119  1.00  0.00     0.278 HD
BRANCH  23  27
HETATM   27  C14 UNL     1      10.449  27.375  26.315  1.00  0.00     0.119 C
HETATM   28 BR1  UNL     1      11.334  28.713  27.420  1.00  0.00    -0.094 Br
ENDBRANCH  23  27
ENDBRANCH  18  19
ENDBRANCH   6  18
TORSDOF 7
ENDMDL