MODEL 1
REMARK VINA RESULT: -5.663312061      0.000      0.000
REMARK  9 active torsions:
REMARK  status: ('A' for Active; 'I' for Inactive)
REMARK    1  A    between atoms: C2_2  and  C3_3
REMARK    2  A    between atoms: C3_3  and  C4_5
REMARK    3  A    between atoms: C4_5  and  N2_9
REMARK    4  A    between atoms: N2_9  and  C5_11
REMARK    5  A    between atoms: C7_13  and  O1_14
REMARK    6  A    between atoms: C9_18  and  C10_19
REMARK    7  A    between atoms: C10_19  and  N3_20
REMARK    8  A    between atoms: N3_20  and  C13_23
REMARK    9  A    between atoms: C15_25  and  O2_26
ROOT
HETATM    1  C5  UNL     1       9.882  23.010  21.393  1.00  0.00     0.114 C
HETATM    2  C6  UNL     1       9.869  23.277  22.877  1.00  0.00     0.061 C
HETATM    3  C7  UNL     1      11.281  23.806  23.169  1.00  0.00     0.139 C
HETATM    4  C8  UNL     1      11.340  25.181  22.561  1.00  0.00     0.119 C
HETATM    5 CL1  UNL     1      12.835  25.954  23.044  1.00  0.00    -0.122 Cl
HETATM    6  C9  UNL     1      11.167  25.142  21.038  1.00  0.00     0.063 C
HETATM    7  C15 UNL     1       9.953  24.341  20.693  1.00  0.00     0.148 C
ENDROOT
BRANCH   1   8
HETATM    8  N2  UNL     1       8.727  22.315  20.929  1.00  0.00    -0.372 N
ATOM      9  H2  UNL     1       7.825  22.547  21.345  1.00  0.00     0.161 HD
BRANCH   8  10
HETATM   10  C4  UNL     1       8.763  21.311  19.913  1.00  0.00     0.089 C
HETATM   11  N1  UNL     1       8.819  21.630  18.673  1.00  0.00    -0.388 N
ATOM     12  H12 UNL     1       8.844  20.913  17.948  1.00  0.00     0.157 HD
ATOM     13  H11 UNL     1       8.838  22.614  18.404  1.00  0.00     0.157 HD
BRANCH  10  14
HETATM   14  C3  UNL     1       8.736  19.892  20.301  1.00  0.00     0.146 C
HETATM   15 BR1  UNL     1      10.196  19.514  21.505  1.00  0.00    -0.079 Br
BRANCH  14  16
HETATM   16  C2  UNL     1       8.916  18.988  19.123  1.00  0.00    -0.014 C
HETATM   17  C1  UNL     1       9.521  17.820  19.182  1.00  0.00     0.008 C
ENDBRANCH  14  16
ENDBRANCH  10  14
ENDBRANCH   8  10
ENDBRANCH   1   8
BRANCH   7  18
HETATM   18  O2  UNL     1       8.837  25.102  21.108  1.00  0.00    -0.393 OA
ATOM     19  H2  UNL     1       9.095  25.593  21.880  1.00  0.00     0.210 HD
ENDBRANCH   7  18
BRANCH   3  20
HETATM   20  O1  UNL     1      11.352  23.960  24.546  1.00  0.00    -0.394 OA
ATOM     21  H1  UNL     1      11.034  23.145  24.915  1.00  0.00     0.210 HD
ENDBRANCH   3  20
BRANCH   6  22
HETATM   22  C10 UNL     1      12.442  24.682  20.439  1.00  0.00     0.245 C
BRANCH  22  23
HETATM   23  N3  UNL     1      13.152  25.502  19.570  1.00  0.00    -0.075 N
HETATM   24  C11 UNL     1      14.495  25.864  19.890  1.00  0.00     0.272 C
HETATM   25  C12 UNL     1      12.425  26.733  19.279  1.00  0.00     0.272 C
BRANCH  23  26
HETATM   26  C13 UNL     1      13.226  24.824  18.255  1.00  0.00     0.232 C
HETATM   27  C14 UNL     1      14.621  24.858  17.702  1.00  0.00     0.034 C
ENDBRANCH  23  26
ENDBRANCH  22  23
ENDBRANCH   6  22
TORSDOF 9
ENDMDL