MODEL 1
REMARK VINA RESULT: -6.128176131      0.000      0.000
REMARK  8 active torsions:
REMARK  status: ('A' for Active; 'I' for Inactive)
REMARK    1  A    between atoms: C1_4  and  C2_5
REMARK    2  A    between atoms: C1_4  and  N3_20
REMARK    3  A    between atoms: C2_5  and  S1_6
REMARK    4  A    between atoms: S1_6  and  C3_8
REMARK    5  A    between atoms: C3_8  and  C4_9
REMARK    6  A    between atoms: C4_9  and  N2_10
REMARK    7  A    between atoms: C10_16  and  O1_17
REMARK    8  A    between atoms: N3_20  and  C12_22
ROOT
HETATM    1  C2  UNL     1       9.748  21.918  21.810  1.00  0.00     0.150 C
ENDROOT
BRANCH   1   2
HETATM    2  C1  UNL     1      10.584  20.708  21.814  1.00  0.00     0.082 C
HETATM    3  N1  UNL     1      11.358  20.470  22.811  1.00  0.00    -0.388 N
ATOM      4  H12 UNL     1      11.376  21.131  23.587  1.00  0.00     0.157 HD
ATOM      5  H11 UNL     1      11.938  19.631  22.813  1.00  0.00     0.157 HD
BRANCH   2   6
HETATM    6  N3  UNL     1      10.559  19.793  20.740  1.00  0.00    -0.341 N
ATOM      7  H3  UNL     1      11.294  19.848  20.034  1.00  0.00     0.164 HD
BRANCH   6   8
HETATM    8  C12 UNL     1       9.532  18.777  20.595  1.00  0.00     0.224 A
HETATM    9  F1  UNL     1       9.133  18.182  21.766  1.00  0.00    -0.215 F
HETATM   10  C13 UNL     1       8.396  19.182  19.693  1.00  0.00     0.300 A
HETATM   11  N4  UNL     1       8.786  18.227  18.682  1.00  0.00    -0.065 N
HETATM   12  C14 UNL     1       9.887  17.764  19.504  1.00  0.00     0.300 A
ATOM     13  H42 UNL     1       8.101  17.556  18.334  1.00  0.00     0.277 HD
ATOM     14  H41 UNL     1       8.968  18.548  17.731  1.00  0.00     0.277 HD
ENDBRANCH   6   8
ENDBRANCH   2   6
ENDBRANCH   1   2
BRANCH   1  15
HETATM   15  S1  UNL     1      10.651  23.318  22.233  1.00  0.00    -0.140 SA
HETATM   16 BR1  UNL     1      12.147  24.026  20.856  1.00  0.00    -0.022 Br
BRANCH  15  17
HETATM   17  C3  UNL     1       9.995  24.432  23.376  1.00  0.00     0.103 C
BRANCH  17  18
HETATM   18  C4  UNL     1      10.880  24.825  24.516  1.00  0.00     0.247 C
BRANCH  18  19
HETATM   19  N2  UNL     1      10.262  25.096  25.761  1.00  0.00    -0.064 N
HETATM   20  C5  UNL     1       9.825  26.440  25.988  1.00  0.00     0.238 C
HETATM   21  C6  UNL     1       8.768  26.435  27.101  1.00  0.00     0.035 C
HETATM   22  C7  UNL     1       9.128  25.310  28.082  1.00  0.00     0.019 C
HETATM   23  C8  UNL     1      10.640  25.293  28.170  1.00  0.00     0.035 C
HETATM   24  C10 UNL     1       8.700  24.043  27.363  1.00  0.00     0.148 C
HETATM   25  C9  UNL     1      11.159  24.715  26.866  1.00  0.00     0.238 C
HETATM   26  C11 UNL     1       9.096  24.207  25.934  1.00  0.00     0.269 C
BRANCH  24  27
HETATM   27  O1  UNL     1       9.121  22.891  27.972  1.00  0.00    -0.394 OA
ATOM     28  H1  UNL     1       9.376  22.206  27.365  1.00  0.00     0.210 HD
ENDBRANCH  24  27
ENDBRANCH  18  19
ENDBRANCH  17  18
ENDBRANCH  15  17
ENDBRANCH   1  15
TORSDOF 8
ENDMDL