MODEL 4
REMARK VINA RESULT: -5.577993278      1.584      3.042
REMARK  6 active torsions:
REMARK  status: ('A' for Active; 'I' for Inactive)
REMARK    1  A    between atoms: C1_2  and  C2_3
REMARK       I    between atoms: C1_2  and  N1_5
REMARK    2  A    between atoms: N1_5  and  C3_7
REMARK    3  A    between atoms: C3_7  and  C4_8
REMARK    4  A    between atoms: C3_7  and  C5_10
REMARK       I    between atoms: C5_10  and  N2_12
REMARK    5  A    between atoms: C10_17  and  C11_18
REMARK       I    between atoms: C11_18  and  N3_20
REMARK    6  A    between atoms: N3_20  and  C12_22
ROOT
HETATM    1  C5  UNL     1      11.317  26.766  23.074  1.00  0.00     0.244 C
HETATM    2  O2  UNL     1      10.855  27.839  22.578  1.00  0.00    -0.271 OA
HETATM    3  N2  UNL     1      11.335  25.619  22.260  1.00  0.00    -0.337 N
HETATM    4  C6  UNL     1      10.761  25.741  20.915  1.00  0.00     0.127 C
HETATM    5  C7  UNL     1      11.504  24.915  19.929  1.00  0.00     0.020 C
HETATM    6  C8  UNL     1      12.943  24.668  20.328  1.00  0.00     0.004 C
HETATM    7  C9  UNL     1      13.067  24.073  21.690  1.00  0.00     0.035 C
HETATM    8  C10 UNL     1      11.882  24.335  22.592  1.00  0.00     0.179 C
ENDROOT
BRANCH   8   9
HETATM    9  C11 UNL     1      10.900  23.230  22.563  1.00  0.00     0.241 C
HETATM   10  O3  UNL     1       9.991  23.221  23.432  1.00  0.00    -0.271 OA
HETATM   11  N3  UNL     1      10.916  22.185  21.625  1.00  0.00    -0.355 N
ATOM     12  H3  UNL     1      11.647  22.179  20.913  1.00  0.00     0.162 HD
BRANCH  11  13
HETATM   13  C12 UNL     1       9.942  21.119  21.624  1.00  0.00     0.087 C
HETATM   14  C13 UNL     1      10.389  19.883  22.324  1.00  0.00     0.052 C
HETATM   15  C14 UNL     1      10.734  18.755  21.383  1.00  0.00     0.234 C
HETATM   16  N4  UNL     1       9.633  18.365  20.536  1.00  0.00    -0.075 N
HETATM   17  C15 UNL     1       8.685  19.474  20.337  1.00  0.00     0.234 C
ATOM     18  H42 UNL     1       9.961  17.991  19.646  1.00  0.00     0.277 HD
ATOM     19  H41 UNL     1       9.163  17.534  20.894  1.00  0.00     0.277 HD
HETATM   20  C16 UNL     1       9.567  20.720  20.195  1.00  0.00     0.052 C
ENDBRANCH  11  13
ENDBRANCH   8   9
BRANCH   1  21
HETATM   21  C3  UNL     1      11.790  26.857  24.472  1.00  0.00     0.190 C
BRANCH  21  22
HETATM   22  N1  UNL     1      11.495  25.605  25.197  1.00  0.00    -0.346 N
HETATM   23  C1  UNL     1      11.074  25.623  26.554  1.00  0.00     0.232 C
HETATM   24  O1  UNL     1      10.935  26.698  27.200  1.00  0.00    -0.272 OA
ATOM     25  H1  UNL     1      11.594  24.711  24.715  1.00  0.00     0.163 HD
BRANCH  23  26
HETATM   26  C2  UNL     1      10.782  24.344  27.267  1.00  0.00     0.217 C
HETATM   27 CL1  UNL     1       9.201  23.698  26.780  1.00  0.00    -0.121 Cl
ENDBRANCH  23  26
ENDBRANCH  21  22
BRANCH  21  28
HETATM   28  C4  UNL     1      13.323  26.927  24.419  1.00  0.00     0.149 C
HETATM   29 CL2  UNL     1      13.884  27.885  25.834  1.00  0.00    -0.128 Cl
ENDBRANCH  21  28
ENDBRANCH   1  21
TORSDOF 6
ENDMDL