MODEL 5
REMARK VINA RESULT: -5.850680362      2.322      2.559
REMARK  9 active torsions:
REMARK  status: ('A' for Active; 'I' for Inactive)
REMARK    1  A    between atoms: C2_2  and  N1_3
REMARK       I    between atoms: N1_3  and  C3_5
REMARK    2  A    between atoms: C3_5  and  C4_7
REMARK    3  A    between atoms: C6_9  and  C7_10
REMARK    4  A    between atoms: C7_10  and  N2_12
REMARK    5  A    between atoms: N2_12  and  C9_14
REMARK    6  A    between atoms: C9_14  and  C10_15
REMARK    7  A    between atoms: C10_15  and  N3_16
REMARK       I    between atoms: N3_16  and  C11_18
REMARK    8  A    between atoms: C11_18  and  C12_20
REMARK    9  A    between atoms: C13_21  and  C14_22
ROOT
HETATM    1  N2  UNL     1      14.956  25.969  22.193  1.00  0.00    -0.371 N
ATOM      2  H2  UNL     1      15.568  25.354  22.729  1.00  0.00     0.161 HD
ENDROOT
BRANCH   1   3
HETATM    3  C7  UNL     1      13.516  25.838  22.303  1.00  0.00     0.109 C
HETATM    4  C8  UNL     1      13.095  26.568  23.539  1.00  0.00     0.034 C
BRANCH   3   5
HETATM    5  C6  UNL     1      13.147  24.422  22.215  1.00  0.00     0.211 C
HETATM    6  C5  UNL     1      11.835  23.943  22.677  1.00  0.00     0.078 C
HETATM    7  C4  UNL     1      11.352  24.357  21.328  1.00  0.00     0.279 C
HETATM    8  N5  UNL     1      12.697  24.095  20.847  1.00  0.00    -0.056 N
ATOM      9  H52 UNL     1      12.942  23.211  20.400  1.00  0.00     0.278 HD
ATOM     10  H51 UNL     1      13.077  24.573  20.030  1.00  0.00     0.278 HD
BRANCH   7  11
HETATM   11  C3  UNL     1      10.313  23.474  20.748  1.00  0.00     0.248 C
HETATM   12  N1  UNL     1       8.936  23.613  21.040  1.00  0.00    -0.360 N
ATOM     13  H1  UNL     1       8.645  24.354  21.678  1.00  0.00     0.162 HD
HETATM   14  O1  UNL     1      10.683  22.568  19.964  1.00  0.00    -0.271 OA
BRANCH  12  15
HETATM   15  C2  UNL     1       7.922  22.750  20.472  1.00  0.00     0.118 C
HETATM   16  C1  UNL     1       7.280  23.402  19.278  1.00  0.00     0.026 C
ENDBRANCH  12  15
ENDBRANCH   7  11
ENDBRANCH   3   5
ENDBRANCH   1   3
BRANCH   1  17
HETATM   17  C9  UNL     1      15.518  26.969  21.326  1.00  0.00     0.106 C
HETATM   18  N4  UNL     1      16.504  27.703  21.707  1.00  0.00    -0.287 N
HETATM   19 CL1  UNL     1      17.152  27.468  23.295  1.00  0.00     0.012 Cl
ATOM     20  H4  UNL     1      16.897  28.410  21.085  1.00  0.00     0.181 HD
BRANCH  17  21
HETATM   21  C10 UNL     1      14.903  27.107  19.982  1.00  0.00     0.200 C
BRANCH  21  22
HETATM   22  N3  UNL     1      15.853  26.627  19.004  1.00  0.00    -0.343 N
HETATM   23  C11 UNL     1      15.576  25.449  18.274  1.00  0.00     0.296 C
HETATM   24  O2  UNL     1      14.509  24.835  18.482  1.00  0.00    -0.258 OA
ATOM     25  H3  UNL     1      16.722  27.137  18.842  1.00  0.00     0.163 HD
BRANCH  23  26
HETATM   26  C12 UNL     1      16.499  24.955  17.303  1.00  0.00    -0.005 C
HETATM   27  C13 UNL     1      17.266  24.526  16.469  1.00  0.00    -0.086 C
BRANCH  27  28
HETATM   28  C14 UNL     1      18.181  23.992  15.441  1.00  0.00     0.179 C
HETATM   29 BR1  UNL     1      19.310  25.380  14.714  1.00  0.00    -0.083 Br
ENDBRANCH  27  28
ENDBRANCH  23  26
ENDBRANCH  21  22
ENDBRANCH  17  21
ENDBRANCH   1  17
TORSDOF 9
ENDMDL