MODEL 5
REMARK VINA RESULT: -7.076670294      5.082      7.604
REMARK  6 active torsions:
REMARK  status: ('A' for Active; 'I' for Inactive)
REMARK    1  A    between atoms: C5_5  and  O1_6
REMARK    2  A    between atoms: C16_18  and  C17_19
REMARK    3  A    between atoms: C17_19  and  N1_20
REMARK    4  A    between atoms: N1_20  and  C19_22
REMARK       I    between atoms: N1_20  and  C22_27
REMARK    5  A    between atoms: C19_22  and  C20_23
REMARK    6  A    between atoms: C20_23  and  C21_24
ROOT
HETATM    1  C1  UNL     1      33.971   1.037  59.975  1.00  0.00     0.016 C
HETATM    2  C2  UNL     1      32.582   0.463  60.092  1.00  0.00    -0.036 C
HETATM    3  C3  UNL     1      32.750  -1.063  60.042  1.00  0.00     0.012 C
HETATM    4  C4  UNL     1      33.609  -1.533  61.161  1.00  0.00     0.032 C
HETATM    5  C5  UNL     1      33.312  -0.958  62.494  1.00  0.00     0.118 C
HETATM    6  C6  UNL     1      32.966   0.506  62.488  1.00  0.00     0.037 C
HETATM    7  C7  UNL     1      31.918   0.757  61.402  1.00  0.00    -0.004 C
HETATM    8  C8  UNL     1      31.255   2.069  61.502  1.00  0.00     0.006 C
HETATM    9  C9  UNL     1      31.512   3.035  60.407  1.00  0.00     0.006 C
HETATM   10  C10 UNL     1      31.683   2.464  59.052  1.00  0.00    -0.005 C
HETATM   11  C11 UNL     1      30.697   2.949  58.021  1.00  0.00    -0.005 C
HETATM   12  C12 UNL     1      30.721   4.427  57.835  1.00  0.00     0.006 C
HETATM   13  C13 UNL     1      29.742   4.841  56.757  1.00  0.00     0.006 C
HETATM   14  C14 UNL     1      28.829   3.711  56.448  1.00  0.00    -0.006 C
HETATM   15  C15 UNL     1      27.566   4.085  55.702  1.00  0.00     0.011 C
HETATM   16  C16 UNL     1      26.408   3.544  56.460  1.00  0.00     0.013 C
HETATM   17  C23 UNL     1      27.091   2.393  57.245  1.00  0.00     0.016 C
HETATM   18  C24 UNL     1      28.292   3.170  57.744  1.00  0.00    -0.036 C
HETATM   19  C25 UNL     1      27.773   4.244  58.675  1.00  0.00     0.016 C
HETATM   20  C26 UNL     1      29.351   2.382  58.394  1.00  0.00    -0.002 C
HETATM   21  C27 UNL     1      29.391   0.921  58.046  1.00  0.00     0.006 C
HETATM   22  C28 UNL     1      30.406   0.286  58.999  1.00  0.00     0.006 C
HETATM   23  C29 UNL     1      31.721   0.965  58.989  1.00  0.00    -0.002 C
ENDROOT
BRANCH  16  24
HETATM   24  C17 UNL     1      25.298   2.945  55.715  1.00  0.00     0.253 C
BRANCH  24  25
HETATM   25  N1  UNL     1      23.993   3.580  55.822  1.00  0.00     0.008 N
HETATM   26  C18 UNL     1      23.687   3.991  57.154  1.00  0.00     0.285 C
HETATM   27  C22 UNL     1      24.046   4.674  54.899  1.00  0.00     0.427 C
HETATM   28  N3  UNL     1      23.680   5.996  55.182  1.00  0.00    -0.033 NA
HETATM   29  O3  UNL     1      24.470   4.386  53.727  1.00  0.00    -0.243 OA
BRANCH  25  30
HETATM   30  C19 UNL     1      23.044   2.566  55.411  1.00  0.00     0.257 C
BRANCH  30  31
HETATM   31  C20 UNL     1      21.700   2.599  56.010  1.00  0.00     0.128 C
BRANCH  31  32
HETATM   32  C21 UNL     1      20.841   1.428  55.869  1.00  0.00     0.232 C
HETATM   33  N2  UNL     1      20.253   1.139  54.574  1.00  0.00    -0.062 NA
HETATM   34  O2  UNL     1      20.608   0.672  56.843  1.00  0.00    -0.277 OA
ENDBRANCH  31  32
ENDBRANCH  30  31
ENDBRANCH  25  30
ENDBRANCH  24  25
ENDBRANCH  16  24
BRANCH   5  35
HETATM   35  O1  UNL     1      34.434  -1.122  63.311  1.00  0.00    -0.396 OA
ATOM     36  H1  UNL     1      34.741  -0.264  63.581  1.00  0.00     0.210 HD
ENDBRANCH   5  35
TORSDOF 6
ENDMDL