MODEL 3
REMARK VINA RESULT: -6.659222732      2.336      7.446
REMARK  7 active torsions:
REMARK  status: ('A' for Active; 'I' for Inactive)
REMARK    1  A    between atoms: C7_7  and  C16_19
REMARK    2  A    between atoms: C19_22  and  C20_23
REMARK       I    between atoms: C20_23  and  N2_25
REMARK    3  A    between atoms: N2_25  and  C21_27
REMARK    4  A    between atoms: C21_27  and  C22_28
REMARK    5  A    between atoms: C21_27  and  C26_32
REMARK    6  A    between atoms: C22_28  and  C23_29
REMARK    7  A    between atoms: C27_35  and  C29_37
ROOT
HETATM    1  C16 UNL     1      32.222   0.577  57.472  1.00  0.00    -0.009 C
HETATM    2  C17 UNL     1      31.983   1.387  58.701  1.00  0.00     0.009 C
HETATM    3  C18 UNL     1      30.651   2.082  58.752  1.00  0.00     0.041 C
HETATM    4  C19 UNL     1      29.615   1.034  58.438  1.00  0.00    -0.007 C
HETATM    5  C27 UNL     1      29.886   0.376  57.120  1.00  0.00     0.029 C
HETATM    6  C28 UNL     1      31.139  -0.440  57.353  1.00  0.00     0.015 C
ENDROOT
BRANCH   4   7
HETATM    7  C20 UNL     1      28.259   1.361  58.796  1.00  0.00     0.244 C
HETATM    8  O2  UNL     1      27.358   0.466  58.628  1.00  0.00    -0.268 OA
HETATM    9  N2  UNL     1      27.775   2.581  59.326  1.00  0.00    -0.343 N
ATOM     10  H2  UNL     1      28.442   3.337  59.480  1.00  0.00     0.163 HD
BRANCH   9  11
HETATM   11  C21 UNL     1      26.366   2.818  59.669  1.00  0.00     0.186 C
BRANCH  11  12
HETATM   12  C22 UNL     1      25.756   3.644  58.580  1.00  0.00     0.040 C
BRANCH  12  13
HETATM   13  C23 UNL     1      24.394   3.240  58.137  1.00  0.00    -0.020 C
HETATM   14  C24 UNL     1      24.289   1.793  57.757  1.00  0.00     0.009 C
HETATM   15  C25 UNL     1      24.123   4.039  56.845  1.00  0.00     0.009 C
ENDBRANCH  12  13
ENDBRANCH  11  12
BRANCH  11  16
HETATM   16  C26 UNL     1      26.232   3.346  61.021  1.00  0.00     0.196 C
HETATM   17  O3  UNL     1      26.227   2.542  61.993  1.00  0.00    -0.646 OA
HETATM   18  O4  UNL     1      26.108   4.683  61.293  1.00  0.00    -0.646 OA
ENDBRANCH  11  16
ENDBRANCH   9  11
ENDBRANCH   4   7
BRANCH   5  19
HETATM   19  C29 UNL     1      29.938   1.244  55.918  1.00  0.00     0.032 C
HETATM   20  C2  UNL     1      28.836   2.231  56.070  1.00  0.00    -0.084 C
HETATM   21  C1  UNL     1      29.016   3.484  56.496  1.00  0.00     0.015 C
HETATM   22  C3  UNL     1      27.473   1.823  55.775  1.00  0.00     0.034 C
HETATM   23  C4  UNL     1      27.354   0.797  54.740  1.00  0.00     0.005 C
HETATM   24  C5  UNL     1      28.501   0.204  54.115  1.00  0.00     0.012 C
HETATM   25  C6  UNL     1      29.926   0.523  54.572  1.00  0.00    -0.019 C
HETATM   26  C7  UNL     1      30.732  -0.768  54.653  1.00  0.00    -0.000 C
HETATM   27  C14 UNL     1      30.480   1.400  53.446  1.00  0.00    -0.014 C
HETATM   28  C8  UNL     1      32.060  -0.829  54.015  1.00  0.00     0.008 C
HETATM   29  C9  UNL     1      32.222  -0.191  52.694  1.00  0.00     0.026 C
HETATM   30  C10 UNL     1      30.841   0.396  52.371  1.00  0.00     0.093 C
HETATM   31  N1  UNL     1      30.919   0.868  51.043  1.00  0.00    -0.356 N
HETATM   32  C11 UNL     1      30.233   2.025  50.597  1.00  0.00     0.217 C
ATOM     33  H1  UNL     1      31.495   0.354  50.377  1.00  0.00     0.162 HD
HETATM   34  O1  UNL     1      29.844   2.143  49.398  1.00  0.00    -0.274 OA
HETATM   35  C12 UNL     1      30.020   3.046  51.624  1.00  0.00     0.103 C
HETATM   36  C13 UNL     1      29.551   2.448  52.950  1.00  0.00     0.021 C
HETATM   37  C15 UNL     1      31.715   2.188  53.850  1.00  0.00     0.018 C
ENDBRANCH   5  19
TORSDOF 7
ENDMDL