MODEL 1
REMARK VINA RESULT: -8.158200938      0.000      0.000
REMARK  6 active torsions:
REMARK  status: ('A' for Active; 'I' for Inactive)
REMARK    1  A    between atoms: C2_2  and  N1_3
REMARK    2  A    between atoms: C2_2  and  N3_17
REMARK       I    between atoms: N1_3  and  C3_5
REMARK    3  A    between atoms: C3_5  and  C4_7
REMARK       I    between atoms: C4_7  and  N2_9
REMARK    4  A    between atoms: N2_9  and  C5_11
REMARK    5  A    between atoms: C5_11  and  C6_12
REMARK    6  A    between atoms: N3_17  and  C11_19
ROOT
HETATM    1  C11 UNL     1      28.543   2.937  52.443  1.00  0.00     0.028 C
HETATM    2  C12 UNL     1      29.938   3.214  52.002  1.00  0.00     0.032 C
HETATM    3  C13 UNL     1      30.366   2.060  51.115  1.00  0.00     0.017 C
HETATM    4  C14 UNL     1      29.414   0.956  50.994  1.00  0.00    -0.008 C
HETATM    5  C15 UNL     1      30.219  -0.257  50.794  1.00  0.00     0.073 C
HETATM    6  N4  UNL     1      30.934  -0.785  51.717  1.00  0.00    -0.365 N
HETATM    7  C16 UNL     1      31.528  -1.971  51.062  1.00  0.00     0.131 C
HETATM    8  C17 UNL     1      30.889  -3.099  51.963  1.00  0.00     0.047 C
HETATM    9  C18 UNL     1      29.647  -2.768  52.647  1.00  0.00    -0.028 C
HETATM   10  C19 UNL     1      29.235  -1.770  53.576  1.00  0.00    -0.015 C
HETATM   11  C20 UNL     1      29.831  -0.410  53.828  1.00  0.00     0.020 C
HETATM   12  C21 UNL     1      30.224  -0.158  55.264  1.00  0.00     0.020 C
HETATM   13  C22 UNL     1      31.511  -0.775  55.683  1.00  0.00     0.002 C
HETATM   14  C23 UNL     1      32.649  -0.054  55.029  1.00  0.00     0.006 C
HETATM   15  C24 UNL     1      32.298   0.238  53.587  1.00  0.00     0.054 C
HETATM   16  C25 UNL     1      31.223  -0.586  53.103  1.00  0.00     0.001 C
HETATM   17  C26 UNL     1      29.301   0.791  53.288  1.00  0.00     0.007 C
HETATM   18  C27 UNL     1      28.521   0.466  52.101  1.00  0.00     0.021 C
HETATM   19  C28 UNL     1      28.511   1.955  53.655  1.00  0.00     0.036 C
HETATM   20  C29 UNL     1      28.391   1.558  50.225  1.00  0.00     0.017 C
HETATM   21  C30 UNL     1      27.777   2.588  51.214  1.00  0.00     0.032 C
ENDROOT
BRANCH   1  22
HETATM   22  N3  UNL     1      27.894   4.054  52.998  1.00  0.00    -0.393 N
ATOM     23  H3  UNL     1      28.504   4.658  53.548  1.00  0.00     0.156 HD
BRANCH  22  24
HETATM   24  C2  UNL     1      26.614   4.473  52.936  1.00  0.00     0.176 C
HETATM   25  C1  UNL     1      26.342   5.944  53.110  1.00  0.00     0.055 C
BRANCH  24  26
HETATM   26  N1  UNL     1      25.879   3.824  54.026  1.00  0.00    -0.333 N
HETATM   27  C3  UNL     1      26.249   3.971  55.364  1.00  0.00     0.310 C
HETATM   28  O1  UNL     1      27.248   4.688  55.645  1.00  0.00    -0.262 OA
ATOM     29  H1  UNL     1      25.070   3.246  53.799  1.00  0.00     0.165 HD
BRANCH  27  30
HETATM   30  C4  UNL     1      25.536   3.336  56.456  1.00  0.00     0.309 C
HETATM   31  O2  UNL     1      25.691   3.778  57.647  1.00  0.00    -0.262 OA
HETATM   32  N2  UNL     1      24.666   2.235  56.253  1.00  0.00    -0.353 N
ATOM     33  H2  UNL     1      24.536   1.869  55.309  1.00  0.00     0.162 HD
BRANCH  32  34
HETATM   34  C5  UNL     1      23.966   1.626  57.343  1.00  0.00     0.127 C
BRANCH  34  35
HETATM   35  C6  UNL     1      22.609   2.273  57.582  1.00  0.00     0.003 C
HETATM   36  C7  UNL     1      21.752   1.234  58.286  1.00  0.00     0.006 C
HETATM   37  C8  UNL     1      21.320   0.366  57.145  1.00  0.00     0.000 C
HETATM   38  C9  UNL     1      21.044   1.330  56.038  1.00  0.00     0.000 C
HETATM   39  C10 UNL     1      21.898   2.537  56.268  1.00  0.00     0.006 C
ENDBRANCH  34  35
ENDBRANCH  32  34
ENDBRANCH  27  30
ENDBRANCH  24  26
ENDBRANCH  22  24
ENDBRANCH   1  22
TORSDOF 6
ENDMDL