MODEL 5
REMARK VINA RESULT: -7.662050884      1.480      2.396
REMARK  9 active torsions:
REMARK  status: ('A' for Active; 'I' for Inactive)
REMARK    1  A    between atoms: C8_10  and  N2_11
REMARK    2  A    between atoms: N2_11  and  C9_13
REMARK    3  A    between atoms: C9_13  and  N3_15
REMARK    4  A    between atoms: N3_15  and  C10_17
REMARK    5  A    between atoms: C10_17  and  C11_18
REMARK    6  A    between atoms: N4_22  and  C15_23
REMARK    7  A    between atoms: C15_23  and  O1_24
REMARK    8  A    between atoms: C15_23  and  C16_26
REMARK    9  A    between atoms: C16_26  and  C17_27
ROOT
HETATM    1  C11 UNL     1      29.456   1.653  59.430  1.00  0.00     0.096 C
HETATM    2  C12 UNL     1      30.837   1.617  59.927  1.00  0.00     0.017 C
HETATM    3  C13 UNL     1      31.730   0.735  59.065  1.00  0.00     0.021 C
HETATM    4  C14 UNL     1      30.928  -0.142  58.104  1.00  0.00     0.134 C
HETATM    5  N4  UNL     1      30.070   0.600  57.241  1.00  0.00    -0.301 N
HETATM    6  C27 UNL     1      29.428   1.722  57.916  1.00  0.00     0.231 C
HETATM    7  O2  UNL     1      28.908   2.643  57.283  1.00  0.00    -0.273 OA
ENDROOT
BRANCH   1   8
HETATM    8  C10 UNL     1      28.497   2.584  60.039  1.00  0.00     0.136 C
BRANCH   8   9
HETATM    9  N3  UNL     1      27.125   2.467  59.661  1.00  0.00    -0.366 N
ATOM     10  H3  UNL     1      26.827   1.517  59.440  1.00  0.00     0.161 HD
BRANCH   9  11
HETATM   11  C9  UNL     1      26.121   3.432  59.544  1.00  0.00     0.168 C
HETATM   12  S1  UNL     1      25.492   4.009  60.986  1.00  0.00    -0.041 SA
BRANCH  11  13
HETATM   13  N2  UNL     1      25.585   4.013  58.377  1.00  0.00    -0.361 N
ATOM     14  H2  UNL     1      26.084   4.767  57.906  1.00  0.00     0.162 HD
BRANCH  13  15
HETATM   15  C8  UNL     1      24.308   3.532  57.841  1.00  0.00     0.105 C
HETATM   16  C2  UNL     1      24.271   3.843  56.349  1.00  0.00     0.095 C
HETATM   17  C1  UNL     1      25.353   3.200  55.560  1.00  0.00     0.034 C
HETATM   18  N1  UNL     1      22.953   3.759  55.810  1.00  0.00    -0.415 N
HETATM   19  C3  UNL     1      22.457   2.474  55.480  1.00  0.00     0.114 C
ATOM     20  H1  UNL     1      22.389   4.596  55.666  1.00  0.00     0.153 HD
HETATM   21  C4  UNL     1      21.416   1.965  56.464  1.00  0.00     0.019 C
HETATM   22  C5  UNL     1      22.056   0.956  57.390  1.00  0.00     0.002 C
HETATM   23  C6  UNL     1      22.726   1.755  58.517  1.00  0.00     0.002 C
HETATM   24  C7  UNL     1      24.149   2.058  58.093  1.00  0.00     0.027 C
ENDBRANCH  13  15
ENDBRANCH  11  13
ENDBRANCH   9  11
ENDBRANCH   8   9
ENDBRANCH   1   8
BRANCH   5  25
HETATM   25  C15 UNL     1      29.819   0.321  55.903  1.00  0.00     0.129 C
BRANCH  25  26
HETATM   26  O1  UNL     1      28.543   0.359  55.625  1.00  0.00    -0.349 OA
ATOM     27  H1  UNL     1      28.344  -0.076  54.804  1.00  0.00     0.219 HD
ENDBRANCH  25  26
BRANCH  25  28
HETATM   28  C16 UNL     1      30.678  -0.004  54.768  1.00  0.00     0.029 C
HETATM   29  C23 UNL     1      31.427   1.152  54.207  1.00  0.00     0.018 C
HETATM   30  C24 UNL     1      32.877   0.740  54.026  1.00  0.00     0.001 C
HETATM   31  C25 UNL     1      33.075  -0.504  54.853  1.00  0.00     0.001 C
HETATM   32  C26 UNL     1      31.740  -0.983  55.289  1.00  0.00     0.018 C
BRANCH  28  33
HETATM   33  C17 UNL     1      29.928  -0.755  53.668  1.00  0.00     0.002 C
HETATM   34  C18 UNL     1      30.463  -2.201  53.587  1.00  0.00     0.006 C
HETATM   35  C19 UNL     1      29.490  -2.987  52.686  1.00  0.00     0.000 C
HETATM   36  C20 UNL     1      29.802  -2.456  51.285  1.00  0.00     0.000 C
HETATM   37  C21 UNL     1      29.349  -1.037  51.284  1.00  0.00     0.000 C
HETATM   38  C22 UNL     1      30.103  -0.163  52.293  1.00  0.00     0.006 C
ENDBRANCH  28  33
ENDBRANCH  25  28
ENDBRANCH   5  25
TORSDOF 9
ENDMDL