MODEL 5
REMARK VINA RESULT: -7.291611239      2.944      6.019
REMARK  7 active torsions:
REMARK  status: ('A' for Active; 'I' for Inactive)
REMARK    1  A    between atoms: C2_2  and  C5_5
REMARK    2  A    between atoms: C5_5  and  C6_6
REMARK       I    between atoms: C6_6  and  N1_8
REMARK    3  A    between atoms: C9_11  and  N2_12
REMARK    4  A    between atoms: C9_11  and  C17_24
REMARK       I    between atoms: N2_12  and  C10_14
REMARK       I    between atoms: C10_14  and  N3_16
REMARK    5  A    between atoms: N3_16  and  C11_18
REMARK       I    between atoms: C17_24  and  N4_26
REMARK    6  A    between atoms: N4_26  and  C18_28
REMARK    7  A    between atoms: C18_28  and  C19_29
ROOT
HETATM    1  C6  UNL     1      27.077   5.265  56.222  1.00  0.00     0.222 C
HETATM    2  O1  UNL     1      28.280   5.298  56.646  1.00  0.00    -0.273 OA
HETATM    3  N1  UNL     1      26.114   4.435  56.883  1.00  0.00    -0.317 N
HETATM    4  C7  UNL     1      24.729   4.165  56.713  1.00  0.00     0.133 C
HETATM    5  C8  UNL     1      24.668   3.548  58.070  1.00  0.00     0.084 C
HETATM    6  C9  UNL     1      26.144   3.522  57.997  1.00  0.00     0.196 C
ENDROOT
BRANCH   6   7
HETATM    7  N2  UNL     1      26.729   4.148  59.201  1.00  0.00    -0.308 N
HETATM    8  C10 UNL     1      26.643   3.547  60.446  1.00  0.00     0.318 C
HETATM    9  O2  UNL     1      26.047   2.429  60.605  1.00  0.00    -0.247 OA
HETATM   10  N3  UNL     1      27.195   4.100  61.632  1.00  0.00    -0.338 N
ATOM     11  H3  UNL     1      27.685   4.991  61.566  1.00  0.00     0.164 HD
ATOM     12  H2  UNL     1      27.208   5.045  59.113  1.00  0.00     0.167 HD
BRANCH  10  13
HETATM   13  C11 UNL     1      27.099   3.469  62.924  1.00  0.00     0.086 C
HETATM   14  C12 UNL     1      28.506   3.070  63.338  1.00  0.00     0.025 C
HETATM   15  C13 UNL     1      28.329   2.347  64.680  1.00  0.00     0.002 C
HETATM   16  C14 UNL     1      27.999   3.388  65.698  1.00  0.00     0.000 C
HETATM   17  C15 UNL     1      27.367   4.627  65.126  1.00  0.00     0.002 C
HETATM   18  C16 UNL     1      26.438   4.324  63.973  1.00  0.00     0.025 C
ENDBRANCH  10  13
ENDBRANCH   6   7
BRANCH   6  19
HETATM   19  C17 UNL     1      26.823   2.221  57.713  1.00  0.00     0.271 C
HETATM   20  O3  UNL     1      26.149   1.171  57.722  1.00  0.00    -0.268 OA
HETATM   21  N4  UNL     1      28.189   2.204  57.440  1.00  0.00    -0.336 N
ATOM     22  H4  UNL     1      28.644   3.116  57.464  1.00  0.00     0.168 HD
BRANCH  21  23
HETATM   23  C18 UNL     1      29.035   1.132  57.137  1.00  0.00     0.073 C
BRANCH  23  24
HETATM   24  C19 UNL     1      29.569   0.876  55.782  1.00  0.00    -0.007 C
HETATM   25  C20 UNL     1      30.148   1.992  55.004  1.00  0.00     0.019 C
HETATM   26  C21 UNL     1      30.453   1.538  53.578  1.00  0.00    -0.013 C
HETATM   27  C22 UNL     1      31.528   0.450  53.617  1.00  0.00     0.009 C
HETATM   28  C26 UNL     1      29.264   0.980  52.859  1.00  0.00     0.009 C
HETATM   29  C23 UNL     1      30.990  -0.669  54.448  1.00  0.00    -0.013 C
HETATM   30  C24 UNL     1      29.751  -1.291  53.836  1.00  0.00     0.009 C
HETATM   31  C28 UNL     1      30.629  -0.224  55.835  1.00  0.00     0.019 C
HETATM   32  C25 UNL     1      28.740  -0.200  53.660  1.00  0.00    -0.013 C
HETATM   33  C27 UNL     1      28.343   0.337  54.994  1.00  0.00     0.019 C
ENDBRANCH  23  24
ENDBRANCH  21  23
ENDBRANCH   6  19
BRANCH   1  34
HETATM   34  C5  UNL     1      26.763   6.109  55.047  1.00  0.00     0.111 C
BRANCH  34  35
HETATM   35  C2  UNL     1      27.200   5.447  53.752  1.00  0.00    -0.043 C
HETATM   36  C1  UNL     1      28.604   5.923  53.426  1.00  0.00     0.015 C
HETATM   37  C3  UNL     1      27.152   3.955  53.945  1.00  0.00     0.015 C
HETATM   38  C4  UNL     1      26.234   5.874  52.669  1.00  0.00     0.015 C
ENDBRANCH  34  35
ENDBRANCH   1  34
TORSDOF 7
ENDMDL