MODEL 3
REMARK VINA RESULT: -7.464283967      3.967      4.998
REMARK  5 active torsions:
REMARK  status: ('A' for Active; 'I' for Inactive)
REMARK    1  A    between atoms: C2_2  and  C3_3
REMARK    2  A    between atoms: C2_2  and  C30_36
REMARK    3  A    between atoms: C3_3  and  C4_4
REMARK    4  A    between atoms: C4_4  and  N1_5
REMARK    5  A    between atoms: C18_22  and  C19_23
ROOT
HETATM    1  N1  UNL     1      24.547   3.834  56.634  1.00  0.00     0.093 N
HETATM    2  C5  UNL     1      25.613   4.600  55.983  1.00  0.00     0.273 C
HETATM    3  C6  UNL     1      26.610   4.767  57.107  1.00  0.00     0.042 C
HETATM    4  C7  UNL     1      26.369   3.611  58.027  1.00  0.00    -0.004 C
HETATM    5  C8  UNL     1      25.741   4.146  59.311  1.00  0.00     0.018 C
HETATM    6  C9  UNL     1      25.338   2.807  57.315  1.00  0.00     0.231 C
HETATM    7  C10 UNL     1      25.843   1.751  56.397  1.00  0.00     0.037 C
HETATM    8  C11 UNL     1      27.052   1.024  56.952  1.00  0.00     0.008 C
HETATM    9  C12 UNL     1      28.149   2.057  57.238  1.00  0.00    -0.001 C
HETATM   10  C13 UNL     1      29.457   1.401  57.520  1.00  0.00    -0.005 C
HETATM   11  C14 UNL     1      30.092   1.001  56.181  1.00  0.00     0.006 C
HETATM   12  C15 UNL     1      31.453   0.411  56.327  1.00  0.00     0.008 C
HETATM   13  C16 UNL     1      32.337   1.384  57.114  1.00  0.00     0.028 C
HETATM   14  C17 UNL     1      33.772   1.071  57.109  1.00  0.00     0.237 A
HETATM   15  N2  UNL     1      34.130  -0.235  56.533  1.00  0.00    -0.048 N
ATOM     16  H21 UNL     1      34.679  -0.583  55.746  1.00  0.00     0.279 HD
ATOM     17  H22 UNL     1      33.660  -0.984  56.025  1.00  0.00     0.279 HD
HETATM   18  C18 UNL     1      34.374   0.147  57.977  1.00  0.00     0.231 A
HETATM   19  C20 UNL     1      33.615  -0.699  58.900  1.00  0.00     0.051 C
HETATM   20  C21 UNL     1      32.793   0.021  59.939  1.00  0.00     0.004 C
HETATM   21  C22 UNL     1      31.479   0.398  59.256  1.00  0.00     0.010 C
HETATM   22  C23 UNL     1      31.722   1.641  58.478  1.00  0.00    -0.034 C
HETATM   23  C24 UNL     1      32.592   2.629  59.211  1.00  0.00     0.016 C
HETATM   24  C25 UNL     1      30.411   2.333  58.203  1.00  0.00    -0.002 C
HETATM   25  C26 UNL     1      29.829   2.992  59.423  1.00  0.00     0.006 C
HETATM   26  C27 UNL     1      28.649   3.834  58.904  1.00  0.00     0.011 C
HETATM   27  C28 UNL     1      27.626   2.876  58.403  1.00  0.00    -0.031 C
HETATM   28  C29 UNL     1      27.271   1.919  59.524  1.00  0.00     0.016 C
ENDROOT
BRANCH   1  29
HETATM   29  C4  UNL     1      23.686   3.243  55.634  1.00  0.00     0.273 C
BRANCH  29  30
HETATM   30  C3  UNL     1      22.320   2.997  56.185  1.00  0.00     0.043 C
BRANCH  30  31
HETATM   31  C2  UNL     1      21.822   1.605  56.148  1.00  0.00     0.072 C
HETATM   32  C1  UNL     1      20.603   1.321  55.353  1.00  0.00     0.019 C
BRANCH  31  33
HETATM   33  C30 UNL     1      21.542   1.127  57.553  1.00  0.00     0.234 C
HETATM   34  N4  UNL     1      22.622   0.818  58.434  1.00  0.00    -0.062 NA
HETATM   35  O2  UNL     1      20.339   1.021  57.889  1.00  0.00    -0.277 OA
ENDBRANCH  31  33
ENDBRANCH  30  31
ENDBRANCH  29  30
ENDBRANCH   1  29
BRANCH  18  36
HETATM   36  C19 UNL     1      35.828   0.330  58.329  1.00  0.00     0.269 C
HETATM   37  N3  UNL     1      36.635  -0.814  58.332  1.00  0.00    -0.060 NA
HETATM   38  O1  UNL     1      36.280   1.447  58.602  1.00  0.00    -0.274 OA
ENDBRANCH  18  36
TORSDOF 5
ENDMDL