MODEL 1
REMARK VINA RESULT: -6.995978127      0.000      0.000
REMARK  5 active torsions:
REMARK  status: ('A' for Active; 'I' for Inactive)
REMARK    1  A    between atoms: C2_2  and  C4_4
REMARK    2  A    between atoms: C4_4  and  C5_5
REMARK    3  A    between atoms: C5_5  and  N1_6
REMARK    4  A    between atoms: C5_5  and  C7_11
REMARK       I    between atoms: C7_11  and  N4_13
REMARK    5  A    between atoms: N4_13  and  C8_15
ROOT
HETATM    1  C8  UNL     1      26.329   3.692  58.766  1.00  0.00     0.093 C
HETATM    2  C9  UNL     1      27.231   4.886  59.063  1.00  0.00     0.026 C
HETATM    3  C10 UNL     1      28.651   4.443  58.669  1.00  0.00     0.008 C
HETATM    4  C11 UNL     1      28.402   3.207  57.809  1.00  0.00     0.003 C
HETATM    5  C12 UNL     1      29.600   2.326  57.646  1.00  0.00     0.034 C
HETATM    6  C13 UNL     1      29.334   0.845  57.542  1.00  0.00    -0.032 C
HETATM    7  C14 UNL     1      28.916   0.401  56.157  1.00  0.00     0.010 C
HETATM    8  C15 UNL     1      29.545   1.122  55.045  1.00  0.00     0.008 C
HETATM    9  C16 UNL     1      30.767   1.917  55.422  1.00  0.00     0.021 C
HETATM   10  C17 UNL     1      32.014   1.094  55.384  1.00  0.00     0.009 C
HETATM   11  C18 UNL     1      32.009  -0.163  56.197  1.00  0.00     0.020 C
HETATM   12  C19 UNL     1      31.800   0.135  57.677  1.00  0.00     0.045 C
HETATM   13  C20 UNL     1      32.681  -0.762  58.522  1.00  0.00     0.026 C
HETATM   14  C21 UNL     1      30.426  -0.013  58.135  1.00  0.00     0.029 C
HETATM   15  C22 UNL     1      32.356   1.524  57.835  1.00  0.00     0.268 C
HETATM   16  O2  UNL     1      33.367   1.683  58.564  1.00  0.00    -0.264 OA
HETATM   17  O3  UNL     1      31.900   2.706  57.272  1.00  0.00    -0.309 OA
HETATM   18  C23 UNL     1      30.594   2.782  56.641  1.00  0.00     0.075 C
HETATM   19  C24 UNL     1      30.484   4.224  56.209  1.00  0.00     0.047 C
HETATM   20  C25 UNL     1      28.128   0.407  58.390  1.00  0.00     0.011 C
HETATM   21  C26 UNL     1      26.938   1.292  58.232  1.00  0.00     0.012 C
HETATM   22  C27 UNL     1      27.361   2.602  58.732  1.00  0.00    -0.019 C
HETATM   23  C28 UNL     1      27.848   2.450  60.156  1.00  0.00     0.018 C
ENDROOT
BRANCH   1  24
HETATM   24  N4  UNL     1      25.563   3.859  57.591  1.00  0.00    -0.354 N
HETATM   25  C7  UNL     1      24.210   3.458  57.556  1.00  0.00     0.240 C
HETATM   26  O1  UNL     1      23.667   2.942  58.584  1.00  0.00    -0.271 OA
ATOM     27  H4  UNL     1      25.991   4.272  56.762  1.00  0.00     0.162 HD
BRANCH  25  28
HETATM   28  C5  UNL     1      23.370   3.622  56.321  1.00  0.00     0.176 C
BRANCH  28  29
HETATM   29  C4  UNL     1      21.990   3.054  56.570  1.00  0.00     0.038 C
BRANCH  29  30
HETATM   30  C2  UNL     1      21.788   1.705  55.958  1.00  0.00    -0.020 C
HETATM   31  C1  UNL     1      20.702   1.648  54.924  1.00  0.00     0.009 C
HETATM   32  C3  UNL     1      21.375   0.755  57.083  1.00  0.00     0.009 C
ENDBRANCH  29  30
ENDBRANCH  28  29
BRANCH  28  33
HETATM   33  N1  UNL     1      23.351   5.001  55.894  1.00  0.00    -0.354 N
HETATM   34  C6  UNL     1      24.139   5.387  54.949  1.00  0.00     0.197 C
HETATM   35  N2  UNL     1      24.176   6.725  54.477  1.00  0.00    -0.067 NA
HETATM   36  N3  UNL     1      25.023   4.461  54.328  1.00  0.00    -0.067 NA
ATOM     37  H1  UNL     1      22.718   5.667  56.338  1.00  0.00     0.162 HD
ENDBRANCH  28  33
ENDBRANCH  25  28
ENDBRANCH   1  24
TORSDOF 5
ENDMDL