MODEL 4
REMARK VINA RESULT: -6.625381810      2.014      7.030
REMARK  6 active torsions:
REMARK  status: ('A' for Active; 'I' for Inactive)
REMARK    1  A    between atoms: C2_2  and  C3_3
REMARK    2  A    between atoms: C6_6  and  N1_7
REMARK    3  A    between atoms: C6_6  and  C17_24
REMARK       I    between atoms: N1_7  and  C7_9
REMARK       I    between atoms: C7_9  and  N2_11
REMARK    4  A    between atoms: C11_15  and  C12_16
REMARK       I    between atoms: C12_16  and  N3_18
REMARK    5  A    between atoms: N3_18  and  C13_20
REMARK       I    between atoms: C17_24  and  N4_26
REMARK    6  A    between atoms: N4_26  and  C18_28
ROOT
HETATM    1  C3  UNL     1      29.290  -0.061  52.526  1.00  0.00    -0.015 C
HETATM    2  C4  UNL     1      30.479   0.830  52.719  1.00  0.00     0.007 C
HETATM    3  C5  UNL     1      30.241   1.829  53.822  1.00  0.00     0.041 C
HETATM    4  C6  UNL     1      29.997   1.155  55.172  1.00  0.00     0.115 C
HETATM    5  C27 UNL     1      29.904  -0.315  54.934  1.00  0.00     0.041 C
HETATM    6  C28 UNL     1      28.905  -0.673  53.855  1.00  0.00     0.007 C
ENDROOT
BRANCH   4   7
HETATM    7  N1  UNL     1      28.827   1.738  55.754  1.00  0.00    -0.325 N
HETATM    8  C7  UNL     1      28.222   1.299  56.952  1.00  0.00     0.320 C
HETATM    9  O1  UNL     1      28.649   0.336  57.641  1.00  0.00    -0.247 OA
HETATM   10  N2  UNL     1      27.056   1.952  57.458  1.00  0.00    -0.321 N
HETATM   11  C8  UNL     1      26.394   3.069  56.834  1.00  0.00     0.129 C
HETATM   12  C11 UNL     1      26.322   1.646  58.666  1.00  0.00     0.181 C
HETATM   13  C9  UNL     1      24.916   2.667  57.002  1.00  0.00     0.022 C
HETATM   14  C10 UNL     1      24.892   1.927  58.318  1.00  0.00     0.037 C
ATOM     15  H1  UNL     1      28.400   2.528  55.269  1.00  0.00     0.165 HD
BRANCH  12  16
HETATM   16  C12 UNL     1      26.702   2.542  59.808  1.00  0.00     0.241 C
HETATM   17  O2  UNL     1      27.886   2.977  59.866  1.00  0.00    -0.271 OA
HETATM   18  N3  UNL     1      25.780   2.917  60.824  1.00  0.00    -0.351 N
ATOM     19  H3  UNL     1      24.821   2.574  60.790  1.00  0.00     0.163 HD
BRANCH  18  20
HETATM   20  C13 UNL     1      26.199   3.784  61.907  1.00  0.00     0.022 C
HETATM   21  C14 UNL     1      27.431   3.230  62.587  1.00  0.00     0.037 C
HETATM   22  C15 UNL     1      25.106   3.812  62.959  1.00  0.00     0.037 C
HETATM   23  C16 UNL     1      26.481   5.165  61.354  1.00  0.00     0.037 C
ENDBRANCH  18  20
ENDBRANCH  12  16
ENDBRANCH   4   7
BRANCH   4  24
HETATM   24  C17 UNL     1      31.169   1.388  56.067  1.00  0.00     0.246 C
HETATM   25  O3  UNL     1      31.936   2.338  55.776  1.00  0.00    -0.271 OA
HETATM   26  N4  UNL     1      31.449   0.611  57.199  1.00  0.00    -0.354 N
ATOM     27  H4  UNL     1      30.834  -0.163  57.450  1.00  0.00     0.162 HD
BRANCH  26  28
HETATM   28  C18 UNL     1      32.603   0.904  58.011  1.00  0.00     0.084 C
HETATM   29  C19 UNL     1      33.289  -0.318  58.536  1.00  0.00     0.026 C
HETATM   30  C20 UNL     1      32.709  -0.941  59.769  1.00  0.00     0.008 C
HETATM   31  C21 UNL     1      31.934   0.058  60.500  1.00  0.00    -0.001 A
HETATM   32  C22 UNL     1      32.814   1.351  60.352  1.00  0.00     0.000 A
HETATM   33  C24 UNL     1      32.231   0.936  61.572  1.00  0.00    -0.040 A
HETATM   34  C23 UNL     1      32.282   1.930  59.106  1.00  0.00     0.031 C
HETATM   35  C25 UNL     1      31.110   1.800  62.149  1.00  0.00     0.015 C
HETATM   36  C26 UNL     1      33.157   0.441  62.684  1.00  0.00     0.015 C
ENDBRANCH  26  28
ENDBRANCH   4  24
BRANCH   1  37
HETATM   37  C2  UNL     1      28.106   0.677  51.946  1.00  0.00     0.000 C
HETATM   38  C1  UNL     1      28.121   0.667  50.439  1.00  0.00     0.005 C
ENDBRANCH   1  37
TORSDOF 6
ENDMDL