MODEL 2
REMARK VINA RESULT: -7.444917356      2.793      6.931
REMARK  6 active torsions:
REMARK  status: ('A' for Active; 'I' for Inactive)
REMARK    1  A    between atoms: N1_2  and  C2_5
REMARK    2  A    between atoms: N2_10  and  C7_11
REMARK    3  A    between atoms: C7_11  and  C8_12
REMARK    4  A    between atoms: C8_12  and  C9_13
REMARK    5  A    between atoms: C9_13  and  C10_14
REMARK    6  A    between atoms: C12_19  and  C13_20
ROOT
HETATM    1  C7  UNL     1      30.506   0.733  56.931  1.00  0.00     0.011 C
HETATM    2  C17 UNL     1      30.546   0.346  55.669  1.00  0.00    -0.053 C
HETATM    3  C18 UNL     1      31.478  -0.777  55.376  1.00  0.00     0.041 C
HETATM    4  C19 UNL     1      31.275  -1.430  54.045  1.00  0.00    -0.010 C
HETATM    5  C20 UNL     1      29.908  -1.977  53.819  1.00  0.00     0.009 C
HETATM    6  C21 UNL     1      28.941  -0.975  53.250  1.00  0.00    -0.013 C
HETATM    7  C22 UNL     1      29.517  -0.397  51.991  1.00  0.00     0.009 C
HETATM    8  C23 UNL     1      30.778   0.321  52.374  1.00  0.00    -0.013 C
HETATM    9  C24 UNL     1      31.825  -0.640  52.886  1.00  0.00     0.009 C
HETATM   10  C25 UNL     1      30.598   1.381  53.401  1.00  0.00     0.013 C
HETATM   11  C26 UNL     1      29.768   1.000  54.602  1.00  0.00     0.017 C
HETATM   12  C27 UNL     1      28.627   0.138  54.200  1.00  0.00     0.013 C
ENDROOT
BRANCH   1  13
HETATM   13  N2  UNL     1      29.677   1.794  57.451  1.00  0.00    -0.369 N
HETATM   14  C5  UNL     1      30.259   3.151  57.413  1.00  0.00     0.081 C
HETATM   15  C4  UNL     1      29.335   4.273  57.210  1.00  0.00     0.027 C
HETATM   16  C6  UNL     1      31.224   3.396  58.554  1.00  0.00     0.032 C
HETATM   17  C3  UNL     1      27.891   4.013  57.147  1.00  0.00     0.037 C
HETATM   18  C2  UNL     1      27.465   2.597  57.175  1.00  0.00     0.212 C
HETATM   19  C28 UNL     1      28.382   1.696  58.006  1.00  0.00     0.054 C
HETATM   20  C29 UNL     1      27.705   0.363  58.032  1.00  0.00     0.040 C
HETATM   21  C30 UNL     1      28.256   2.236  59.442  1.00  0.00     0.040 C
BRANCH  18  22
HETATM   22  N1  UNL     1      26.136   2.510  57.774  1.00  0.00    -0.072 N
HETATM   23  C1  UNL     1      25.385   3.741  57.522  1.00  0.00     0.267 C
ATOM     24  H12 UNL     1      26.180   2.289  58.769  1.00  0.00     0.277 HD
ATOM     25  H11 UNL     1      25.629   1.684  57.458  1.00  0.00     0.277 HD
ENDBRANCH  18  22
ENDBRANCH   1  13
BRANCH   1  26
HETATM   26  C8  UNL     1      31.461   0.097  57.864  1.00  0.00     0.059 C
BRANCH  26  27
HETATM   27  C9  UNL     1      31.066  -0.026  59.283  1.00  0.00     0.041 C
BRANCH  27  28
HETATM   28  C10 UNL     1      32.229   0.178  60.218  1.00  0.00     0.177 C
HETATM   29  N3  UNL     1      32.833  -1.072  60.589  1.00  0.00    -0.346 N
HETATM   30  C11 UNL     1      33.517  -1.186  61.853  1.00  0.00     0.241 C
ATOM     31  H3  UNL     1      32.778  -1.874  59.961  1.00  0.00     0.163 HD
HETATM   32  O1  UNL     1      34.018  -2.261  62.231  1.00  0.00    -0.271 OA
HETATM   33  C12 UNL     1      33.616   0.007  62.711  1.00  0.00     0.180 C
HETATM   34  N4  UNL     1      32.341   0.698  62.701  1.00  0.00    -0.346 N
HETATM   35  C16 UNL     1      31.674   0.838  61.454  1.00  0.00     0.241 C
ATOM     36  H4  UNL     1      31.937   1.071  63.560  1.00  0.00     0.163 HD
HETATM   37  O2  UNL     1      30.621   1.524  61.429  1.00  0.00    -0.271 OA
BRANCH  33  38
HETATM   38  C13 UNL     1      34.032  -0.296  64.116  1.00  0.00     0.009 C
HETATM   39  C14 UNL     1      35.499  -0.022  64.330  1.00  0.00     0.012 C
HETATM   40  C15 UNL     1      33.241   0.656  65.023  1.00  0.00     0.012 C
ENDBRANCH  33  38
ENDBRANCH  27  28
ENDBRANCH  26  27
ENDBRANCH   1  26
TORSDOF 6
ENDMDL