MODEL 5
REMARK VINA RESULT: -7.946322296      2.977      3.966
REMARK  6 active torsions:
REMARK  status: ('A' for Active; 'I' for Inactive)
REMARK    1  A    between atoms: C9_9  and  O1_10
REMARK    2  A    between atoms: C9_9  and  C10_12
REMARK    3  A    between atoms: C10_12  and  N1_13
REMARK       I    between atoms: N1_13  and  C11_15
REMARK    4  A    between atoms: C11_15  and  C12_17
REMARK    5  A    between atoms: C19_25  and  C20_26
REMARK       I    between atoms: C20_26  and  N2_28
REMARK    6  A    between atoms: N2_28  and  C21_30
ROOT
HETATM    1  C1  UNL     1      29.541   4.790  58.057  1.00  0.00     0.016 C
HETATM    2  C2  UNL     1      29.998   3.388  58.112  1.00  0.00    -0.032 C
HETATM    3  C3  UNL     1      31.293   3.336  58.904  1.00  0.00     0.016 C
HETATM    4  C4  UNL     1      30.265   2.738  56.793  1.00  0.00     0.015 C
HETATM    5  C5  UNL     1      30.535   1.306  57.211  1.00  0.00     0.007 C
HETATM    6  C6  UNL     1      29.765   1.117  58.526  1.00  0.00     0.014 C
HETATM    7  C7  UNL     1      29.033   2.415  58.760  1.00  0.00     0.003 C
HETATM    8  C8  UNL     1      28.743   2.719  60.189  1.00  0.00     0.020 C
HETATM    9  C9  UNL     1      27.728   2.346  57.991  1.00  0.00     0.142 C
HETATM   10  C18 UNL     1      28.002   1.933  56.593  1.00  0.00     0.176 C
HETATM   11  O3  UNL     1      27.377   1.026  56.094  1.00  0.00    -0.294 OA
HETATM   12  C19 UNL     1      29.074   2.707  55.886  1.00  0.00     0.155 C
ENDROOT
BRANCH  12  13
HETATM   13  C20 UNL     1      29.429   2.090  54.598  1.00  0.00     0.230 C
HETATM   14  O4  UNL     1      29.541   2.805  53.586  1.00  0.00    -0.273 OA
HETATM   15  N2  UNL     1      29.647   0.698  54.479  1.00  0.00    -0.351 N
ATOM     16  H2  UNL     1      29.548   0.135  55.324  1.00  0.00     0.163 HD
BRANCH  15  17
HETATM   17  C21 UNL     1      29.996   0.015  53.267  1.00  0.00     0.034 C
HETATM   18  C22 UNL     1      31.174   0.668  52.546  1.00  0.00     0.035 C
HETATM   19  C23 UNL     1      31.579  -0.191  51.388  1.00  0.00    -0.012 C
HETATM   20  C24 UNL     1      31.969  -1.583  51.756  1.00  0.00     0.009 C
HETATM   21  C28 UNL     1      30.417  -0.189  50.398  1.00  0.00     0.009 C
HETATM   22  C25 UNL     1      30.760  -2.230  52.410  1.00  0.00    -0.012 C
HETATM   23  C26 UNL     1      29.596  -2.271  51.456  1.00  0.00     0.009 C
HETATM   24  C30 UNL     1      30.405  -1.413  53.609  1.00  0.00     0.035 C
HETATM   25  C27 UNL     1      29.261  -0.861  51.080  1.00  0.00    -0.012 C
HETATM   26  C29 UNL     1      28.856  -0.081  52.293  1.00  0.00     0.035 C
ENDBRANCH  15  17
ENDBRANCH  12  13
BRANCH   9  27
HETATM   27  O1  UNL     1      27.140   3.631  57.953  1.00  0.00    -0.380 OA
ATOM     28  H1  UNL     1      27.269   4.060  58.791  1.00  0.00     0.211 HD
ENDBRANCH   9  27
BRANCH   9  29
HETATM   29  C10 UNL     1      26.800   1.415  58.730  1.00  0.00     0.169 C
BRANCH  29  30
HETATM   30  N1  UNL     1      25.495   1.417  58.082  1.00  0.00    -0.357 N
HETATM   31  C11 UNL     1      24.451   2.214  58.597  1.00  0.00     0.221 C
HETATM   32  O2  UNL     1      24.667   2.917  59.615  1.00  0.00    -0.273 OA
ATOM     33  H1  UNL     1      25.336   0.841  57.255  1.00  0.00     0.162 HD
BRANCH  31  34
HETATM   34  C12 UNL     1      23.105   2.252  57.979  1.00  0.00     0.078 C
HETATM   35  C13 UNL     1      23.146   2.930  56.642  1.00  0.00     0.014 C
HETATM   36  C14 UNL     1      22.322   2.166  55.624  1.00  0.00     0.001 C
HETATM   37  C15 UNL     1      20.954   1.818  56.167  1.00  0.00     0.000 C
HETATM   38  C16 UNL     1      21.039   1.041  57.456  1.00  0.00     0.001 C
HETATM   39  C17 UNL     1      22.485   0.879  57.896  1.00  0.00     0.014 C
ENDBRANCH  31  34
ENDBRANCH  29  30
ENDBRANCH   9  29
TORSDOF 6
ENDMDL