MODEL 4
REMARK VINA RESULT: -6.632896856      4.529      7.439
REMARK  12 active torsions:
REMARK  status: ('A' for Active; 'I' for Inactive)
REMARK    1  A    between atoms: C4_4  and  C5_5
REMARK    2  A    between atoms: C5_5  and  C6_6
REMARK    3  A    between atoms: C6_6  and  N1_7
REMARK    4  A    between atoms: C6_6  and  C7_11
REMARK    5  A    between atoms: C7_11  and  O1_12
REMARK    6  A    between atoms: C7_11  and  O2_14
REMARK    7  A    between atoms: C9_17  and  C10_18
REMARK    8  A    between atoms: C10_18  and  C12_20
REMARK    9  A    between atoms: C12_20  and  C13_21
REMARK   10  A    between atoms: C13_21  and  C14_22
REMARK   11  A    between atoms: C14_22  and  O3_23
REMARK   12  A    between atoms: C16_26  and  O4_27
ROOT
HETATM    1  C1  UNL     1      13.058  25.945  23.560  1.00  0.00     0.015 C
HETATM    2  C2  UNL     1      13.083  26.421  22.398  1.00  0.00    -0.072 C
HETATM    3  C3  UNL     1      13.791  27.776  22.136  1.00  0.00     0.069 C
HETATM    4  C4  UNL     1      14.645  27.225  21.049  1.00  0.00    -0.070 C
HETATM    5  C8  UNL     1      13.995  26.257  20.352  1.00  0.00    -0.059 C
HETATM    6  C9  UNL     1      14.445  25.448  19.208  1.00  0.00     0.022 C
HETATM    7  C15 UNL     1      13.582  24.205  19.106  1.00  0.00     0.042 C
HETATM    8  C16 UNL     1      12.127  24.533  19.275  1.00  0.00     0.133 C
HETATM    9  C17 UNL     1      11.820  24.987  20.698  1.00  0.00     0.044 C
HETATM   10  C18 UNL     1      10.311  25.247  20.675  1.00  0.00     0.187 C
HETATM   11  O5  UNL     1       9.711  24.683  21.837  1.00  0.00    -0.355 OA
HETATM   12  C19 UNL     1       9.621  23.313  21.621  1.00  0.00     0.156 C
HETATM   13  C20 UNL     1       9.489  22.691  23.023  1.00  0.00     0.078 C
HETATM   14  C21 UNL     1       8.415  22.899  20.863  1.00  0.00     0.078 C
HETATM   15  O6  UNL     1      10.839  22.891  21.045  1.00  0.00    -0.355 OA
HETATM   16  C22 UNL     1      11.853  23.763  21.586  1.00  0.00     0.187 C
HETATM   17  C23 UNL     1      12.653  26.141  21.050  1.00  0.00     0.017 C
HETATM   18  C24 UNL     1      11.896  27.361  20.460  1.00  0.00     0.026 C
ENDROOT
BRANCH   4  19
HETATM   19  C5  UNL     1      16.033  27.628  20.771  1.00  0.00     0.072 C
BRANCH  19  20
HETATM   20  C6  UNL     1      16.225  28.980  20.136  1.00  0.00     0.241 C
BRANCH  20  21
HETATM   21  N1  UNL     1      15.057  29.587  19.588  1.00  0.00    -0.070 N
ATOM     22  H13 UNL     1      14.556  28.914  19.009  1.00  0.00     0.274 HD
ATOM     23  H12 UNL     1      14.370  29.742  20.326  1.00  0.00     0.274 HD
ATOM     24  H11 UNL     1      15.204  30.451  19.065  1.00  0.00     0.274 HD
ENDBRANCH  20  21
BRANCH  20  25
HETATM   25  C7  UNL     1      17.213  28.722  18.981  1.00  0.00     0.284 C
BRANCH  25  26
HETATM   26  O1  UNL     1      18.163  29.729  19.027  1.00  0.00    -0.369 OA
ATOM     27  H1  UNL     1      18.845  29.497  18.408  1.00  0.00     0.212 HD
ENDBRANCH  25  26
BRANCH  25  28
HETATM   28  O2  UNL     1      17.729  27.457  19.033  1.00  0.00    -0.369 OA
ATOM     29  H2  UNL     1      18.315  27.287  18.305  1.00  0.00     0.212 HD
ENDBRANCH  25  28
ENDBRANCH  20  25
ENDBRANCH  19  20
ENDBRANCH   4  19
BRANCH   6  30
HETATM   30  C10 UNL     1      14.692  26.121  17.905  1.00  0.00    -0.010 C
HETATM   31  C11 UNL     1      13.790  27.203  17.461  1.00  0.00     0.010 C
BRANCH  30  32
HETATM   32  C12 UNL     1      14.857  25.089  16.797  1.00  0.00     0.007 C
BRANCH  32  33
HETATM   33  C13 UNL     1      16.237  25.209  16.147  1.00  0.00     0.026 C
BRANCH  33  34
HETATM   34  C14 UNL     1      17.243  24.462  17.037  1.00  0.00     0.164 C
BRANCH  34  35
HETATM   35  O3  UNL     1      18.338  25.285  17.283  1.00  0.00    -0.401 OA
ATOM     36  H3  UNL     1      19.109  24.748  17.417  1.00  0.00     0.209 HD
ENDBRANCH  34  35
ENDBRANCH  33  34
ENDBRANCH  32  33
ENDBRANCH  30  32
ENDBRANCH   6  30
BRANCH   8  37
HETATM   37  O4  UNL     1      11.406  23.415  18.955  1.00  0.00    -0.395 OA
ATOM     38  H4  UNL     1      11.918  22.657  19.211  1.00  0.00     0.210 HD
ENDBRANCH   8  37
TORSDOF 12
ENDMDL