MODEL 4
REMARK VINA RESULT: -6.639403577      2.774      5.176
REMARK  12 active torsions:
REMARK  status: ('A' for Active; 'I' for Inactive)
REMARK    1  A    between atoms: C3_3  and  C4_4
REMARK    2  A    between atoms: C4_4  and  C5_6
REMARK    3  A    between atoms: C5_6  and  C6_7
REMARK    4  A    between atoms: C6_7  and  C7_8
REMARK    5  A    between atoms: C7_8  and  C8_9
REMARK    6  A    between atoms: C8_9  and  C9_10
REMARK    7  A    between atoms: C9_10  and  C10_11
REMARK    8  A    between atoms: C15_16  and  O2_17
REMARK    9  A    between atoms: C19_22  and  O3_23
REMARK   10  A    between atoms: C20_25  and  O4_26
REMARK   11  A    between atoms: C21_28  and  O5_29
REMARK   12  A    between atoms: C24_33  and  O6_34
ROOT
HETATM    1  C1  UNL     1       9.538  22.725  21.603  1.00  0.00     0.015 C
HETATM    2  C2  UNL     1      10.702  23.314  21.887  1.00  0.00    -0.072 C
HETATM    3  C3  UNL     1      11.729  23.866  20.926  1.00  0.00     0.092 C
HETATM    4  C12 UNL     1      12.382  24.546  22.082  1.00  0.00    -0.020 C
HETATM    5  C13 UNL     1      13.873  24.222  22.263  1.00  0.00     0.017 C
HETATM    6  C14 UNL     1      12.198  26.027  22.171  1.00  0.00     0.043 C
HETATM    7  C15 UNL     1      12.038  26.500  23.600  1.00  0.00     0.126 C
HETATM    8  C16 UNL     1      10.735  25.857  24.073  1.00  0.00     0.057 C
HETATM    9  C17 UNL     1      10.994  24.384  24.179  1.00  0.00     0.006 C
HETATM   10  C18 UNL     1       9.698  23.770  24.690  1.00  0.00     0.041 C
HETATM   11  C19 UNL     1       9.446  24.238  26.110  1.00  0.00     0.158 C
HETATM   12  C20 UNL     1       9.332  25.753  26.166  1.00  0.00     0.140 C
HETATM   13  C21 UNL     1       9.500  26.239  27.575  1.00  0.00     0.158 C
HETATM   14  C22 UNL     1      10.838  26.942  27.652  1.00  0.00     0.038 C
HETATM   15  C23 UNL     1      11.545  26.507  26.361  1.00  0.00     0.044 C
HETATM   16  C24 UNL     1      10.401  26.453  25.406  1.00  0.00     0.100 C
HETATM   17  C25 UNL     1      11.557  23.718  22.999  1.00  0.00     0.028 C
ENDROOT
BRANCH   3  18
HETATM   18  C4  UNL     1      11.094  24.686  19.891  1.00  0.00     0.135 C
HETATM   19  O1  UNL     1       9.914  25.034  20.085  1.00  0.00    -0.297 OA
BRANCH  18  20
HETATM   20  C5  UNL     1      11.698  25.151  18.633  1.00  0.00     0.079 C
BRANCH  20  21
HETATM   21  C6  UNL     1      13.139  24.783  18.438  1.00  0.00     0.007 C
BRANCH  21  22
HETATM   22  C7  UNL     1      13.942  26.033  18.853  1.00  0.00     0.000 C
BRANCH  22  23
HETATM   23  C8  UNL     1      15.377  25.907  18.468  1.00  0.00     0.000 C
BRANCH  23  24
HETATM   24  C9  UNL     1      15.536  24.779  17.482  1.00  0.00    -0.000 C
BRANCH  24  25
HETATM   25  C10 UNL     1      16.974  24.411  17.247  1.00  0.00    -0.005 C
HETATM   26  C11 UNL     1      17.226  24.349  15.751  1.00  0.00     0.005 C
ENDBRANCH  24  25
ENDBRANCH  23  24
ENDBRANCH  22  23
ENDBRANCH  21  22
ENDBRANCH  20  21
ENDBRANCH  18  20
ENDBRANCH   3  18
BRANCH   7  27
HETATM   27  O2  UNL     1      11.839  27.889  23.536  1.00  0.00    -0.395 OA
ATOM     28  H2  UNL     1      12.099  28.235  24.382  1.00  0.00     0.210 HD
ENDBRANCH   7  27
BRANCH  16  29
HETATM   29  O6  UNL     1       9.972  27.773  25.195  1.00  0.00    -0.386 OA
ATOM     30  H6  UNL     1      10.730  28.342  25.262  1.00  0.00     0.210 HD
ENDBRANCH  16  29
BRANCH  11  31
HETATM   31  O3  UNL     1       8.204  23.725  26.495  1.00  0.00    -0.392 OA
ATOM     32  H3  UNL     1       7.909  24.241  27.236  1.00  0.00     0.210 HD
ENDBRANCH  11  31
BRANCH  12  33
HETATM   33  O4  UNL     1       8.082  26.184  25.691  1.00  0.00    -0.381 OA
ATOM     34  H4  UNL     1       8.182  26.809  24.983  1.00  0.00     0.211 HD
ENDBRANCH  12  33
BRANCH  13  35
HETATM   35  O5  UNL     1       9.476  25.234  28.521  1.00  0.00    -0.392 OA
ATOM     36  H5  UNL     1       8.749  25.296  29.130  1.00  0.00     0.210 HD
ENDBRANCH  13  35
TORSDOF 12
ENDMDL