MODEL 4
REMARK VINA RESULT: -6.723181786      4.054      5.656
REMARK  9 active torsions:
REMARK  status: ('A' for Active; 'I' for Inactive)
REMARK    1  A    between atoms: C2_2  and  C4_4
REMARK    2  A    between atoms: C4_4  and  C5_5
REMARK    3  A    between atoms: C4_4  and  N1_8
REMARK    4  A    between atoms: C9_12  and  N2_13
REMARK       I    between atoms: N2_13  and  C10_15
REMARK    5  A    between atoms: C10_15  and  C11_17
REMARK    6  A    between atoms: C11_17  and  C12_18
REMARK    7  A    between atoms: C17_24  and  C18_25
REMARK    8  A    between atoms: C18_25  and  O4_26
REMARK    9  A    between atoms: N3_28  and  O5_30
ROOT
HETATM    1  C11 UNL     1      11.456  28.009  20.352  1.00  0.00     0.136 C
ENDROOT
BRANCH   1   2
HETATM    2  C10 UNL     1      12.105  26.693  20.290  1.00  0.00     0.220 C
HETATM    3  N2  UNL     1      11.545  25.611  21.053  1.00  0.00    -0.355 N
ATOM      4  H2  UNL     1      10.713  25.771  21.622  1.00  0.00     0.162 HD
HETATM    5  O3  UNL     1      13.141  26.495  19.583  1.00  0.00    -0.274 OA
BRANCH   3   6
HETATM    6  C9  UNL     1      12.157  24.288  21.021  1.00  0.00     0.112 C
HETATM    7  C8  UNL     1      12.457  23.754  22.403  1.00  0.00     0.029 C
HETATM    8  C7  UNL     1      11.167  23.779  23.185  1.00  0.00     0.032 C
HETATM    9  C6  UNL     1      10.080  23.018  22.399  1.00  0.00     0.273 C
HETATM   10  N1  UNL     1      10.659  22.373  21.284  1.00  0.00     0.105 N
HETATM   11  C19 UNL     1      11.238  23.298  20.345  1.00  0.00     0.298 C
BRANCH  10  12
HETATM   12  C4  UNL     1       9.862  21.407  20.649  1.00  0.00     0.326 C
BRANCH  12  13
HETATM   13  C2  UNL     1       9.541  20.126  21.306  1.00  0.00     0.021 C
HETATM   14  C1  UNL     1       9.222  19.102  20.197  1.00  0.00     0.012 C
HETATM   15  C3  UNL     1      10.575  19.489  22.162  1.00  0.00     0.012 C
ENDBRANCH  12  13
BRANCH  12  16
HETATM   16  C5  UNL     1       8.593  22.006  20.092  1.00  0.00     0.208 C
HETATM   17  O1  UNL     1       7.563  22.115  20.818  1.00  0.00    -0.646 OA
HETATM   18  O2  UNL     1       8.488  22.455  18.805  1.00  0.00    -0.646 OA
ENDBRANCH  12  16
ENDBRANCH  10  12
ENDBRANCH   3   6
ENDBRANCH   1   2
BRANCH   1  19
HETATM   19  C12 UNL     1      11.031  28.569  19.033  1.00  0.00     0.205 C
HETATM   20  C13 UNL     1      10.147  29.747  19.224  1.00  0.00     0.108 C
HETATM   21  S1  UNL     1       9.000  29.741  17.787  1.00  0.00    -0.155 SA
HETATM   22  C14 UNL     1       8.150  28.152  17.880  1.00  0.00     0.037 C
HETATM   23  C15 UNL     1       7.914  27.687  16.456  1.00  0.00     0.029 C
HETATM   24  C16 UNL     1       6.836  28.250  18.613  1.00  0.00     0.029 C
HETATM   25  C17 UNL     1       9.103  27.190  18.570  1.00  0.00     0.279 C
HETATM   26  N4  UNL     1      10.445  27.499  18.234  1.00  0.00    -0.057 N
ATOM     27  H42 UNL     1      10.523  27.712  17.240  1.00  0.00     0.278 HD
ATOM     28  H41 UNL     1      11.026  26.662  18.278  1.00  0.00     0.278 HD
BRANCH  25  29
HETATM   29  C18 UNL     1       8.738  25.799  18.328  1.00  0.00     0.168 C
HETATM   30  N3  UNL     1       9.319  25.028  17.539  1.00  0.00    -0.249 N
ATOM     31  H3  UNL     1       8.899  24.099  17.527  1.00  0.00     0.196 HD
BRANCH  29  32
HETATM   32  O4  UNL     1       7.637  25.274  19.035  1.00  0.00    -0.346 OA
ATOM     33  H4  UNL     1       6.821  25.158  18.563  1.00  0.00     0.219 HD
ENDBRANCH  29  32
BRANCH  30  34
HETATM   34  O5  UNL     1      10.353  25.125  16.710  1.00  0.00    -0.288 OA
ATOM     35  H5  UNL     1      11.245  24.798  16.700  1.00  0.00     0.244 HD
ENDBRANCH  30  34
ENDBRANCH  25  29
ENDBRANCH   1  19
TORSDOF 9
ENDMDL