MODEL 1
REMARK VINA RESULT: -7.209867474      0.000      0.000
REMARK  11 active torsions:
REMARK  status: ('A' for Active; 'I' for Inactive)
REMARK    1  A    between atoms: C2_2  and  C3_3
REMARK    2  A    between atoms: C3_3  and  C6_6
REMARK    3  A    between atoms: C6_6  and  O1_7
REMARK    4  A    between atoms: C7_9  and  C8_10
REMARK    5  A    between atoms: C8_10  and  C10_12
REMARK    6  A    between atoms: C10_12  and  C11_13
REMARK    7  A    between atoms: C11_13  and  C12_14
REMARK    8  A    between atoms: C12_14  and  C14_16
REMARK    9  A    between atoms: C14_16  and  O2_17
REMARK   10  A    between atoms: C21_26  and  O4_27
REMARK   11  A    between atoms: C22_29  and  O5_30
ROOT
HETATM    1  C6  UNL     1      10.508  23.008  21.514  1.00  0.00     0.085 C
HETATM    2  C7  UNL     1      10.533  23.061  20.075  1.00  0.00     0.057 C
HETATM    3  C21 UNL     1       9.038  23.075  19.649  1.00  0.00     0.161 C
HETATM    4  C22 UNL     1       8.514  21.977  20.540  1.00  0.00     0.098 C
HETATM    5  C23 UNL     1       8.973  20.604  20.281  1.00  0.00     0.075 C
HETATM    6  C24 UNL     1       9.676  20.601  21.585  1.00  0.00    -0.076 C
HETATM    7  C25 UNL     1      10.339  19.684  22.303  1.00  0.00     0.015 C
HETATM    8  C26 UNL     1       9.338  22.016  21.760  1.00  0.00     0.087 C
ENDROOT
BRANCH   2   9
HETATM    9  C8  UNL     1      11.346  23.940  19.244  1.00  0.00    -0.009 C
HETATM   10  C9  UNL     1      10.683  25.303  18.946  1.00  0.00     0.010 C
BRANCH   9  11
HETATM   11  C10 UNL     1      12.662  24.433  19.904  1.00  0.00     0.005 C
BRANCH  11  12
HETATM   12  C11 UNL     1      13.611  24.772  18.789  1.00  0.00     0.008 C
BRANCH  12  13
HETATM   13  C12 UNL     1      14.553  25.895  19.054  1.00  0.00     0.024 C
HETATM   14  C13 UNL     1      13.948  26.947  19.970  1.00  0.00     0.013 C
BRANCH  13  15
HETATM   15  C14 UNL     1      15.130  26.477  17.823  1.00  0.00     0.125 C
HETATM   16  C15 UNL     1      14.808  25.511  16.682  1.00  0.00     0.051 C
HETATM   17  C16 UNL     1      15.890  25.538  15.631  1.00  0.00     0.037 C
HETATM   18  C17 UNL     1      17.123  25.010  16.272  1.00  0.00    -0.080 C
HETATM   19  C18 UNL     1      17.971  23.949  15.672  1.00  0.00     0.043 C
HETATM   20  C19 UNL     1      17.458  25.531  17.444  1.00  0.00     0.056 C
HETATM   21  C20 UNL     1      16.609  26.565  18.007  1.00  0.00     0.184 C
HETATM   22  O3  UNL     1      17.152  27.513  18.639  1.00  0.00    -0.290 OA
BRANCH  15  23
HETATM   23  O2  UNL     1      14.666  27.732  17.555  1.00  0.00    -0.381 OA
ATOM     24  H2  UNL     1      15.092  28.136  16.807  1.00  0.00     0.211 HD
ENDBRANCH  15  23
ENDBRANCH  13  15
ENDBRANCH  12  13
ENDBRANCH  11  12
ENDBRANCH   9  11
ENDBRANCH   2   9
BRANCH   1  25
HETATM   25  C3  UNL     1      10.418  24.026  22.531  1.00  0.00     0.002 C
HETATM   26  C4  UNL     1      11.663  24.202  23.423  1.00  0.00     0.022 C
HETATM   27  C5  UNL     1       9.710  25.309  22.252  1.00  0.00     0.022 C
BRANCH  25  28
HETATM   28  C2  UNL     1       9.517  23.379  23.614  1.00  0.00    -0.025 C
HETATM   29  C1  UNL     1       9.350  23.850  24.801  1.00  0.00     0.008 C
ENDBRANCH  25  28
ENDBRANCH   1  25
BRANCH   1  30
HETATM   30  O1  UNL     1      11.655  22.228  21.942  1.00  0.00    -0.387 OA
ATOM     31  H1  UNL     1      11.281  21.647  22.595  1.00  0.00     0.210 HD
ENDBRANCH   1  30
BRANCH   3  32
HETATM   32  O4  UNL     1       8.827  22.675  18.355  1.00  0.00    -0.392 OA
ATOM     33  H4  UNL     1       7.918  22.720  18.083  1.00  0.00     0.210 HD
ENDBRANCH   3  32
BRANCH   4  34
HETATM   34  O5  UNL     1       7.139  22.098  20.746  1.00  0.00    -0.386 OA
ATOM     35  H5  UNL     1       6.948  22.621  21.515  1.00  0.00     0.210 HD
ENDBRANCH   4  34
TORSDOF 11
ENDMDL