MODEL 1
REMARK VINA RESULT: -6.910733571      0.000      0.000
REMARK  11 active torsions:
REMARK  status: ('A' for Active; 'I' for Inactive)
REMARK       I    between atoms: C2_2  and  N1_4
REMARK    1  A    between atoms: N1_4  and  C3_6
REMARK    2  A    between atoms: C3_6  and  C4_7
REMARK    3  A    between atoms: C3_6  and  C13_16
REMARK    4  A    between atoms: C5_8  and  C6_9
REMARK    5  A    between atoms: C6_9  and  C8_11
REMARK    6  A    between atoms: C8_11  and  C9_12
REMARK    7  A    between atoms: C9_12  and  C10_13
REMARK    8  A    between atoms: C19_23  and  O3_25
REMARK    9  A    between atoms: C21_27  and  O4_28
REMARK   10  A    between atoms: C23_31  and  O5_32
REMARK   11  A    between atoms: C24_34  and  O6_35
ROOT
HETATM    1  C13 UNL     1      12.517  25.694  20.951  1.00  0.00     0.051 C
HETATM    2  C14 UNL     1      11.045  25.392  20.797  1.00  0.00     0.012 C
HETATM    3  C15 UNL     1      10.133  26.485  21.210  1.00  0.00     0.012 C
HETATM    4  C16 UNL     1      10.763  24.063  21.437  1.00  0.00     0.078 C
HETATM    5  C17 UNL     1      11.471  23.972  22.769  1.00  0.00     0.144 C
HETATM    6  O2  UNL     1      11.628  22.897  23.287  1.00  0.00    -0.297 OA
HETATM    7  C18 UNL     1      11.924  25.244  23.348  1.00  0.00     0.117 C
HETATM    8  C19 UNL     1      12.921  25.865  22.386  1.00  0.00     0.067 C
HETATM    9  C20 UNL     1      14.262  25.233  22.712  1.00  0.00     0.047 C
HETATM   10  C21 UNL     1      11.173  22.894  20.560  1.00  0.00     0.139 C
HETATM   11  C22 UNL     1      10.424  21.728  21.114  1.00  0.00     0.067 C
HETATM   12  C23 UNL     1       9.234  22.286  21.838  1.00  0.00     0.150 C
HETATM   13  C24 UNL     1       9.321  23.804  21.706  1.00  0.00     0.165 C
ENDROOT
BRANCH   1  14
HETATM   14  C3  UNL     1      12.947  26.894  20.149  1.00  0.00     0.114 C
BRANCH  14  15
HETATM   15  N1  UNL     1      11.866  27.794  19.863  1.00  0.00    -0.353 N
HETATM   16  C2  UNL     1      11.911  29.165  20.204  1.00  0.00     0.214 C
HETATM   17  C1  UNL     1      10.797  30.100  19.910  1.00  0.00     0.117 C
HETATM   18  O1  UNL     1      12.924  29.634  20.780  1.00  0.00    -0.274 OA
ATOM     19  H1  UNL     1      11.034  27.432  19.396  1.00  0.00     0.163 HD
ENDBRANCH  14  15
BRANCH  14  20
HETATM   20  C4  UNL     1      13.549  26.373  18.864  1.00  0.00    -0.005 C
HETATM   21  C5  UNL     1      14.260  25.268  18.827  1.00  0.00    -0.024 C
BRANCH  21  22
HETATM   22  C6  UNL     1      14.844  24.770  17.554  1.00  0.00     0.004 C
HETATM   23  C7  UNL     1      13.898  25.133  16.409  1.00  0.00     0.014 C
BRANCH  22  24
HETATM   24  C8  UNL     1      16.155  25.476  17.274  1.00  0.00     0.008 C
BRANCH  24  25
HETATM   25  C9  UNL     1      17.150  24.394  16.849  1.00  0.00     0.004 C
BRANCH  25  26
HETATM   26  C10 UNL     1      17.264  24.395  15.348  1.00  0.00    -0.023 C
HETATM   27  C11 UNL     1      17.250  25.862  14.911  1.00  0.00     0.009 C
HETATM   28  C12 UNL     1      18.673  23.890  15.021  1.00  0.00     0.009 C
ENDBRANCH  25  26
ENDBRANCH  24  25
ENDBRANCH  22  24
ENDBRANCH  21  22
ENDBRANCH  14  20
ENDBRANCH   1  14
BRANCH   8  29
HETATM   29  O3  UNL     1      13.008  27.214  22.780  1.00  0.00    -0.389 OA
ATOM     30  H3  UNL     1      12.915  27.336  23.718  1.00  0.00     0.210 HD
ENDBRANCH   8  29
BRANCH  10  31
HETATM   31  O4  UNL     1      10.692  23.151  19.277  1.00  0.00    -0.394 OA
ATOM     32  H4  UNL     1      11.423  23.470  18.760  1.00  0.00     0.210 HD
ENDBRANCH  10  31
BRANCH  13  33
HETATM   33  O6  UNL     1       8.479  24.249  20.693  1.00  0.00    -0.392 OA
ATOM     34  H6  UNL     1       7.975  23.554  20.287  1.00  0.00     0.210 HD
ENDBRANCH  13  33
BRANCH  12  35
HETATM   35  O5  UNL     1       8.033  21.902  21.211  1.00  0.00    -0.393 OA
ATOM     36  H5  UNL     1       7.296  21.984  21.804  1.00  0.00     0.210 HD
ENDBRANCH  12  35
TORSDOF 11
ENDMDL