MODEL 5
REMARK VINA RESULT: -6.593059420      1.012      1.176
REMARK  10 active torsions:
REMARK  status: ('A' for Active; 'I' for Inactive)
REMARK    1  A    between atoms: C2_2  and  C4_4
REMARK    2  A    between atoms: C4_4  and  N1_5
REMARK    3  A    between atoms: C4_4  and  C21_31
REMARK    4  A    between atoms: C10_13  and  O2_14
REMARK    5  A    between atoms: C13_18  and  C14_19
REMARK    6  A    between atoms: C14_19  and  C15_20
REMARK    7  A    between atoms: C15_20  and  C16_21
REMARK    8  A    between atoms: C16_21  and  C17_22
REMARK    9  A    between atoms: C17_22  and  O3_23
REMARK   10  A    between atoms: C21_31  and  O5_34
ROOT
HETATM    1  N1  UNL     1      10.431  24.960  18.014  1.00  0.00    -0.358 N
ATOM      2  H1  UNL     1      10.359  24.444  17.138  1.00  0.00     0.162 HD
HETATM    3  C5  UNL     1      11.588  25.668  18.154  1.00  0.00     0.210 C
HETATM    4  O1  UNL     1      12.569  25.321  19.045  1.00  0.00    -0.299 OA
HETATM    5  C6  UNL     1      13.512  26.338  19.097  1.00  0.00     0.149 C
HETATM    6  C7  UNL     1      13.870  26.518  20.576  1.00  0.00     0.062 C
HETATM    7  C8  UNL     1      14.558  27.826  20.859  1.00  0.00     0.007 C
HETATM    8  C9  UNL     1      16.053  27.732  20.922  1.00  0.00     0.032 C
HETATM    9  C10 UNL     1      16.640  27.069  19.697  1.00  0.00     0.122 C
HETATM   10  C11 UNL     1      15.743  27.185  18.499  1.00  0.00     0.023 C
HETATM   11  C12 UNL     1      16.551  27.104  17.205  1.00  0.00     0.012 C
HETATM   12  C13 UNL     1      16.250  25.760  16.609  1.00  0.00    -0.014 C
HETATM   13  C18 UNL     1      14.778  25.603  17.020  1.00  0.00     0.014 C
HETATM   14  C19 UNL     1      14.805  26.021  18.435  1.00  0.00     0.049 C
HETATM   15  N2  UNL     1      12.846  27.528  18.593  1.00  0.00    -0.321 N
ATOM     16  H2  UNL     1      13.253  28.458  18.490  1.00  0.00     0.166 HD
HETATM   17  C20 UNL     1      11.528  27.146  18.277  1.00  0.00     0.294 C
HETATM   18  O4  UNL     1      10.540  27.858  18.131  1.00  0.00    -0.264 OA
ENDROOT
BRANCH   1  19
HETATM   19  C4  UNL     1       9.346  24.819  18.843  1.00  0.00     0.120 C
BRANCH  19  20
HETATM   20  C2  UNL     1       9.537  24.075  20.104  1.00  0.00     0.003 C
HETATM   21  C1  UNL     1      10.456  22.888  19.995  1.00  0.00     0.011 C
HETATM   22  C3  UNL     1       9.868  24.894  21.302  1.00  0.00     0.011 C
ENDBRANCH  19  20
BRANCH  19  23
HETATM   23  C21 UNL     1       8.123  24.327  18.058  1.00  0.00     0.071 C
HETATM   24  C22 UNL     1       7.951  25.176  16.797  1.00  0.00     0.047 C
HETATM   25  C23 UNL     1       6.864  24.442  18.840  1.00  0.00     0.047 C
BRANCH  23  26
HETATM   26  O5  UNL     1       8.266  23.009  17.642  1.00  0.00    -0.389 OA
ATOM     27  H5  UNL     1       7.496  22.694  17.183  1.00  0.00     0.210 HD
ENDBRANCH  23  26
ENDBRANCH  19  23
ENDBRANCH   1  19
BRANCH   9  28
HETATM   28  O2  UNL     1      17.855  27.662  19.362  1.00  0.00    -0.395 OA
ATOM     29  H2  UNL     1      17.823  27.999  18.474  1.00  0.00     0.210 HD
ENDBRANCH   9  28
BRANCH  12  30
HETATM   30  C14 UNL     1      17.093  24.639  17.114  1.00  0.00     0.005 C
BRANCH  30  31
HETATM   31  C15 UNL     1      17.850  23.993  15.996  1.00  0.00     0.002 C
BRANCH  31  32
HETATM   32  C16 UNL     1      18.603  24.977  15.133  1.00  0.00     0.026 C
BRANCH  32  33
HETATM   33  C17 UNL     1      19.875  24.452  14.560  1.00  0.00     0.164 C
BRANCH  33  34
HETATM   34  O3  UNL     1      19.998  23.120  15.021  1.00  0.00    -0.401 OA
ATOM     35  H3  UNL     1      19.113  22.778  15.083  1.00  0.00     0.209 HD
ENDBRANCH  33  34
ENDBRANCH  32  33
ENDBRANCH  31  32
ENDBRANCH  30  31
ENDBRANCH  12  30
TORSDOF 10
ENDMDL