MODEL 1
REMARK VINA RESULT: -7.001856650      0.000      0.000
REMARK  11 active torsions:
REMARK  status: ('A' for Active; 'I' for Inactive)
REMARK    1  A    between atoms: C2_2  and  C5_7
REMARK    2  A    between atoms: C3_3  and  C4_4
REMARK    3  A    between atoms: C5_7  and  C6_8
REMARK    4  A    between atoms: C7_9  and  C8_10
REMARK    5  A    between atoms: C7_9  and  C22_33
REMARK    6  A    between atoms: C8_10  and  C9_11
REMARK    7  A    between atoms: C9_11  and  O2_12
REMARK    8  A    between atoms: C9_11  and  C10_14
REMARK    9  A    between atoms: C10_14  and  O3_15
REMARK   10  A    between atoms: C17_24  and  O5_25
REMARK   11  A    between atoms: C18_27  and  O6_28
ROOT
HETATM    1  C10 UNL     1      11.779  24.533  22.906  1.00  0.00     0.120 C
HETATM    2  C11 UNL     1      10.923  24.643  24.121  1.00  0.00     0.188 A
HETATM    3  O4  UNL     1      10.853  23.988  25.252  1.00  0.00    -0.372 OA
HETATM    4  C12 UNL     1      10.469  23.177  24.287  1.00  0.00     0.154 A
HETATM    5  C13 UNL     1       9.310  23.159  23.366  1.00  0.00     0.040 C
HETATM    6  C14 UNL     1       9.532  23.793  22.033  1.00  0.00     0.005 C
HETATM    7  C15 UNL     1       9.125  22.750  21.010  1.00  0.00     0.018 C
HETATM    8  C16 UNL     1       9.683  21.385  21.266  1.00  0.00     0.013 C
HETATM    9  C17 UNL     1       9.349  23.138  19.593  1.00  0.00     0.151 C
HETATM   10  C18 UNL     1      10.762  23.503  19.390  1.00  0.00     0.148 C
HETATM   11  C19 UNL     1      11.580  23.677  20.631  1.00  0.00     0.047 C
HETATM   12  C20 UNL     1      10.850  24.454  21.738  1.00  0.00    -0.001 C
HETATM   13  C21 UNL     1      10.526  25.807  21.120  1.00  0.00     0.019 C
ENDROOT
BRANCH   1  14
HETATM   14  C9  UNL     1      12.802  25.611  22.975  1.00  0.00     0.160 C
BRANCH  14  15
HETATM   15  C8  UNL     1      14.123  25.295  22.397  1.00  0.00     0.069 C
BRANCH  15  16
HETATM   16  C7  UNL     1      14.584  26.235  21.269  1.00  0.00    -0.077 C
HETATM   17  C6  UNL     1      14.145  25.950  20.064  1.00  0.00    -0.019 C
BRANCH  17  18
HETATM   18  C5  UNL     1      14.291  26.509  18.749  1.00  0.00     0.061 C
BRANCH  18  19
HETATM   19  C2  UNL     1      15.588  26.103  18.084  1.00  0.00    -0.075 C
HETATM   20  C1  UNL     1      16.746  26.955  18.288  1.00  0.00     0.044 C
HETATM   21  C3  UNL     1      15.598  25.018  17.368  1.00  0.00     0.073 C
BRANCH  21  22
HETATM   22  C4  UNL     1      16.750  24.508  16.679  1.00  0.00     0.254 C
HETATM   23  N1  UNL     1      17.068  24.739  15.314  1.00  0.00    -0.058 NA
HETATM   24  O1  UNL     1      17.570  23.776  17.355  1.00  0.00    -0.272 OA
ENDBRANCH  21  22
ENDBRANCH  18  19
ENDBRANCH  17  18
BRANCH  16  25
HETATM   25  C22 UNL     1      15.507  27.294  21.692  1.00  0.00     0.006 C
HETATM   26  C23 UNL     1      14.720  28.634  21.775  1.00  0.00     0.014 C
HETATM   27  C24 UNL     1      16.191  27.092  23.033  1.00  0.00     0.014 C
ENDBRANCH  16  25
ENDBRANCH  15  16
ENDBRANCH  14  15
BRANCH  14  28
HETATM   28  O2  UNL     1      12.865  26.403  24.057  1.00  0.00    -0.392 OA
ATOM     29  H2  UNL     1      12.050  26.855  24.245  1.00  0.00     0.210 HD
ENDBRANCH  14  28
ENDBRANCH   1  14
BRANCH   1  30
HETATM   30  O3  UNL     1      12.519  23.318  22.903  1.00  0.00    -0.384 OA
ATOM     31  H3  UNL     1      11.970  22.691  23.360  1.00  0.00     0.210 HD
ENDBRANCH   1  30
BRANCH  10  32
HETATM   32  O6  UNL     1      10.822  24.614  18.534  1.00  0.00    -0.393 OA
ATOM     33  H6  UNL     1      10.534  24.348  17.668  1.00  0.00     0.210 HD
ENDBRANCH  10  32
BRANCH   9  34
HETATM   34  O5  UNL     1       9.026  21.987  18.828  1.00  0.00    -0.393 OA
ATOM     35  H5  UNL     1       8.731  22.315  17.987  1.00  0.00     0.210 HD
ENDBRANCH   9  34
TORSDOF 11
ENDMDL