MODEL 3
REMARK VINA RESULT: -6.833384469      1.374      2.056
REMARK  12 active torsions:
REMARK  status: ('A' for Active; 'I' for Inactive)
REMARK    1  A    between atoms: C2_2  and  C3_3
REMARK    2  A    between atoms: C2_2  and  C17_19
REMARK    3  A    between atoms: C3_3  and  C4_4
REMARK    4  A    between atoms: C4_4  and  C5_5
REMARK    5  A    between atoms: C11_11  and  O1_12
REMARK    6  A    between atoms: C17_19  and  N1_20
REMARK    7  A    between atoms: C20_23  and  N2_24
REMARK    8  A    between atoms: C21_28  and  O2_29
REMARK    9  A    between atoms: C21_28  and  C22_31
REMARK   10  A    between atoms: C22_31  and  O3_32
REMARK   11  A    between atoms: C24_35  and  C25_36
REMARK   12  A    between atoms: C25_36  and  O4_37
ROOT
HETATM    1  N1  UNL     1      10.887  24.903  21.542  1.00  0.00    -0.367 N
HETATM    2  C18 UNL     1      10.241  25.259  20.355  1.00  0.00     0.066 C
HETATM    3  C19 UNL     1      10.115  24.126  19.346  1.00  0.00     0.080 C
HETATM    4  C20 UNL     1       8.817  23.409  19.593  1.00  0.00     0.224 C
HETATM    5  C21 UNL     1       8.907  22.510  20.810  1.00  0.00     0.109 C
HETATM    6  C23 UNL     1       9.001  23.393  22.001  1.00  0.00     0.070 C
HETATM    7  C24 UNL     1      10.401  23.858  22.340  1.00  0.00     0.114 C
ENDROOT
BRANCH   1   8
HETATM    8  C17 UNL     1      12.007  25.595  22.002  1.00  0.00     0.068 C
BRANCH   8   9
HETATM    9  C2  UNL     1      13.358  24.923  21.872  1.00  0.00     0.020 C
HETATM   10  C1  UNL     1      14.478  25.633  22.554  1.00  0.00     0.015 C
BRANCH   9  11
HETATM   11  C3  UNL     1      13.640  24.798  20.404  1.00  0.00     0.014 C
BRANCH  11  12
HETATM   12  C4  UNL     1      14.000  26.059  19.703  1.00  0.00     0.035 C
BRANCH  12  13
HETATM   13  C5  UNL     1      14.538  25.854  18.346  1.00  0.00    -0.079 C
HETATM   14  C6  UNL     1      15.513  25.040  18.036  1.00  0.00    -0.023 C
HETATM   15  C7  UNL     1      16.050  24.839  16.665  1.00  0.00     0.033 C
HETATM   16  C8  UNL     1      15.522  25.778  15.639  1.00  0.00     0.004 C
HETATM   17  C9  UNL     1      14.462  25.036  14.847  1.00  0.00     0.015 C
HETATM   18  C14 UNL     1      15.003  27.030  16.260  1.00  0.00    -0.036 C
HETATM   19  C10 UNL     1      14.230  25.639  13.486  1.00  0.00     0.013 C
HETATM   20  C11 UNL     1      13.213  24.813  15.639  1.00  0.00     0.122 C
HETATM   21  C12 UNL     1      12.811  25.921  16.547  1.00  0.00     0.042 C
HETATM   22  C13 UNL     1      13.916  26.649  17.229  1.00  0.00     0.025 C
HETATM   23  C15 UNL     1      16.141  27.614  17.094  1.00  0.00     0.016 C
HETATM   24  C16 UNL     1      14.552  28.086  15.314  1.00  0.00     0.016 C
BRANCH  20  25
HETATM   25  O1  UNL     1      12.171  24.584  14.734  1.00  0.00    -0.395 OA
ATOM     26  H1  UNL     1      12.085  23.644  14.626  1.00  0.00     0.210 HD
ENDBRANCH  20  25
ENDBRANCH  12  13
ENDBRANCH  11  12
ENDBRANCH   9  11
ENDBRANCH   8   9
ENDBRANCH   1   8
BRANCH   7  27
HETATM   27  C25 UNL     1      10.298  24.337  23.796  1.00  0.00     0.189 C
BRANCH  27  28
HETATM   28  O4  UNL     1      11.149  23.577  24.605  1.00  0.00    -0.399 OA
ATOM     29  H4  UNL     1      11.442  24.099  25.343  1.00  0.00     0.209 HD
ENDBRANCH  27  28
ENDBRANCH   7  27
BRANCH   4  30
HETATM   30  N2  UNL     1       8.348  22.692  18.424  1.00  0.00    -0.072 N
ATOM     31  H23 UNL     1       7.334  22.763  18.332  1.00  0.00     0.274 HD
ATOM     32  H22 UNL     1       8.624  23.169  17.566  1.00  0.00     0.274 HD
ATOM     33  H21 UNL     1       8.650  21.718  18.416  1.00  0.00     0.274 HD
ENDBRANCH   4  30
BRANCH   5  34
HETATM   34  O2  UNL     1       7.689  21.820  20.900  1.00  0.00    -0.385 OA
ATOM     35  H2  UNL     1       7.481  21.743  21.824  1.00  0.00     0.210 HD
ENDBRANCH   5  34
BRANCH   5  36
HETATM   36  C22 UNL     1       9.992  21.490  20.687  1.00  0.00     0.204 C
BRANCH  36  37
HETATM   37  O3  UNL     1       9.593  20.371  19.958  1.00  0.00    -0.398 OA
ATOM     38  H3  UNL     1      10.016  20.321  19.108  1.00  0.00     0.209 HD
ENDBRANCH  36  37
ENDBRANCH   5  36
TORSDOF 12
ENDMDL