MODEL 3
REMARK VINA RESULT: -6.033633586      2.651      7.572
REMARK  11 active torsions:
REMARK  status: ('A' for Active; 'I' for Inactive)
REMARK    1  A    between atoms: C3_3  and  C4_4
REMARK    2  A    between atoms: C4_4  and  C5_5
REMARK    3  A    between atoms: C5_5  and  C6_6
REMARK    4  A    between atoms: C6_6  and  O1_7
REMARK    5  A    between atoms: O1_7  and  C7_8
REMARK    6  A    between atoms: C7_8  and  O2_9
REMARK    7  A    between atoms: C9_12  and  O3_14
REMARK    8  A    between atoms: C11_16  and  N1_17
REMARK       I    between atoms: N1_17  and  C12_19
REMARK    9  A    between atoms: C12_19  and  C13_21
REMARK   10  A    between atoms: C17_25  and  O5_26
REMARK   11  A    between atoms: C20_30  and  O6_31
ROOT
HETATM    1  C1  UNL     1       8.915  18.527  18.981  1.00  0.00     0.012 C
HETATM    2  C2  UNL     1       9.240  18.498  20.142  1.00  0.00    -0.117 C
HETATM    3  C3  UNL     1       9.634  18.491  21.560  1.00  0.00     0.093 C
ENDROOT
BRANCH   3   4
HETATM    4  C4  UNL     1      10.386  19.747  21.850  1.00  0.00     0.014 C
BRANCH   4   5
HETATM    5  C5  UNL     1       9.500  20.943  22.099  1.00  0.00     0.027 C
BRANCH   5   6
HETATM    6  C6  UNL     1      10.340  22.155  22.159  1.00  0.00     0.171 C
BRANCH   6   7
HETATM    7  O1  UNL     1       9.779  23.238  21.434  1.00  0.00    -0.354 OA
BRANCH   7   8
HETATM    8  C7  UNL     1      10.668  23.705  20.474  1.00  0.00     0.173 C
HETATM    9  C8  UNL     1      12.022  24.017  20.849  1.00  0.00     0.108 C
HETATM   10  C9  UNL     1      12.502  24.989  21.811  1.00  0.00     0.082 C
HETATM   11  C10 UNL     1      11.648  25.508  22.913  1.00  0.00     0.048 C
HETATM   12  C11 UNL     1      13.459  26.022  21.253  1.00  0.00     0.147 C
HETATM   13  C17 UNL     1      12.982  27.133  20.450  1.00  0.00     0.144 C
HETATM   14  C18 UNL     1      12.616  26.874  19.009  1.00  0.00     0.036 C
HETATM   15  C19 UNL     1      11.118  26.708  18.907  1.00  0.00     0.035 C
HETATM   16  C20 UNL     1      10.715  25.304  18.505  1.00  0.00     0.131 C
HETATM   17  C21 UNL     1       9.905  24.579  19.513  1.00  0.00     0.035 C
HETATM   18  C22 UNL     1       8.945  25.546  20.157  1.00  0.00     0.023 C
HETATM   19  C23 UNL     1       8.925  23.693  18.682  1.00  0.00     0.023 C
BRANCH   8  20
HETATM   20  O2  UNL     1      10.787  22.501  19.644  1.00  0.00    -0.364 OA
ATOM     21  H2  UNL     1      11.296  21.955  20.231  1.00  0.00     0.213 HD
ENDBRANCH   8  20
BRANCH  10  22
HETATM   22  O3  UNL     1      13.466  24.258  22.643  1.00  0.00    -0.388 OA
ATOM     23  H3  UNL     1      13.266  24.514  23.537  1.00  0.00     0.210 HD
ENDBRANCH  10  22
BRANCH  12  24
HETATM   24  N1  UNL     1      14.127  26.632  22.432  1.00  0.00    -0.347 N
HETATM   25  C12 UNL     1      15.448  27.079  22.381  1.00  0.00     0.247 C
HETATM   26  O4  UNL     1      16.101  26.970  21.324  1.00  0.00    -0.268 OA
ATOM     27  H1  UNL     1      13.605  26.727  23.304  1.00  0.00     0.163 HD
BRANCH  25  28
HETATM   28  C13 UNL     1      16.086  27.671  23.536  1.00  0.00     0.002 C
HETATM   29  C14 UNL     1      15.318  27.819  24.840  1.00  0.00     0.054 C
HETATM   30  C15 UNL     1      17.320  28.115  23.580  1.00  0.00    -0.019 C
HETATM   31  C16 UNL     1      17.905  28.710  24.799  1.00  0.00     0.036 C
ENDBRANCH  25  28
ENDBRANCH  12  24
BRANCH  13  32
HETATM   32  O5  UNL     1      12.015  27.963  20.965  1.00  0.00    -0.393 OA
ATOM     33  H5  UNL     1      12.260  28.835  21.251  1.00  0.00     0.210 HD
ENDBRANCH  13  32
BRANCH  16  34
HETATM   34  O6  UNL     1       9.936  25.449  17.350  1.00  0.00    -0.395 OA
ATOM     35  H6  UNL     1      10.444  25.061  16.646  1.00  0.00     0.210 HD
ENDBRANCH  16  34
ENDBRANCH   7   8
ENDBRANCH   6   7
ENDBRANCH   5   6
ENDBRANCH   4   5
ENDBRANCH   3   4
TORSDOF 11
ENDMDL