MODEL 2
REMARK VINA RESULT: -6.482246162      1.428      1.797
REMARK  10 active torsions:
REMARK  status: ('A' for Active; 'I' for Inactive)
REMARK    1  A    between atoms: S1_2  and  C2_3
REMARK       I    between atoms: C2_3  and  N1_5
REMARK    2  A    between atoms: N1_5  and  C3_7
REMARK    3  A    between atoms: C11_16  and  C12_17
REMARK    4  A    between atoms: C12_17  and  O2_18
REMARK    5  A    between atoms: C12_17  and  N2_20
REMARK    6  A    between atoms: N2_20  and  C13_22
REMARK    7  A    between atoms: C13_22  and  C14_23
REMARK       I    between atoms: C14_23  and  N3_25
REMARK    8  A    between atoms: N3_25  and  C15_27
REMARK    9  A    between atoms: C15_27  and  C16_28
REMARK   10  A    between atoms: C19_31  and  O4_32
ROOT
HETATM    1  C3  UNL     1      11.099  22.428  21.710  1.00  0.00     0.119 C
HETATM    2  C4  UNL     1      10.652  22.774  23.079  1.00  0.00     0.028 C
HETATM    3  C5  UNL     1       9.408  23.540  23.239  1.00  0.00     0.002 C
HETATM    4  C6  UNL     1       9.231  24.263  24.536  1.00  0.00     0.000 C
HETATM    5  C7  UNL     1      10.421  24.481  25.376  1.00  0.00     0.000 C
HETATM    6  C8  UNL     1      11.463  25.425  25.023  1.00  0.00     0.001 C
HETATM    7  C9  UNL     1      11.267  26.370  23.893  1.00  0.00     0.010 C
HETATM    8  C10 UNL     1      12.469  26.421  22.948  1.00  0.00     0.079 C
HETATM    9  S2  UNL     1      13.000  24.829  22.387  1.00  0.00    -0.127 SA
HETATM   10  C11 UNL     1      12.437  24.351  20.744  1.00  0.00     0.059 C
HETATM   11  C19 UNL     1      11.207  23.521  20.691  1.00  0.00     0.184 C
ENDROOT
BRANCH  10  12
HETATM   12  C12 UNL     1      12.661  25.398  19.718  1.00  0.00     0.151 C
BRANCH  12  13
HETATM   13  O2  UNL     1      11.539  26.238  19.554  1.00  0.00    -0.345 OA
ATOM     14  H2  UNL     1      10.909  25.883  18.938  1.00  0.00     0.219 HD
ENDBRANCH  12  13
BRANCH  12  15
HETATM   15  N2  UNL     1      13.817  26.163  19.645  1.00  0.00    -0.361 N
ATOM     16  H2  UNL     1      14.329  26.301  20.517  1.00  0.00     0.162 HD
BRANCH  15  17
HETATM   17  C13 UNL     1      14.347  26.758  18.519  1.00  0.00     0.224 C
BRANCH  17  18
HETATM   18  C14 UNL     1      15.767  26.214  18.259  1.00  0.00     0.238 C
HETATM   19  O3  UNL     1      16.659  26.825  18.858  1.00  0.00    -0.271 OA
HETATM   20  N3  UNL     1      15.931  25.131  17.413  1.00  0.00    -0.339 N
ATOM     21  H3  UNL     1      15.061  24.790  17.003  1.00  0.00     0.167 HD
BRANCH  20  22
HETATM   22  C15 UNL     1      17.070  24.415  17.014  1.00  0.00     0.068 C
BRANCH  22  23
HETATM   23  C16 UNL     1      17.647  24.715  15.693  1.00  0.00     0.016 C
HETATM   24  C17 UNL     1      18.609  23.749  15.124  1.00  0.00     0.015 C
HETATM   25  C18 UNL     1      16.474  24.930  14.709  1.00  0.00     0.015 C
ENDBRANCH  22  23
ENDBRANCH  20  22
ENDBRANCH  17  18
ENDBRANCH  15  17
ENDBRANCH  12  15
ENDBRANCH  10  12
BRANCH  11  26
HETATM   26  O4  UNL     1      11.167  22.927  19.392  1.00  0.00    -0.388 OA
ATOM     27  H4  UNL     1      11.306  23.610  18.748  1.00  0.00     0.210 HD
ENDBRANCH  11  26
BRANCH   1  28
HETATM   28  N1  UNL     1      10.264  21.331  21.242  1.00  0.00    -0.344 N
HETATM   29  C2  UNL     1      10.390  20.003  21.670  1.00  0.00     0.279 C
HETATM   30  O1  UNL     1      11.267  19.709  22.512  1.00  0.00    -0.260 OA
ATOM     31  H1  UNL     1       9.540  21.544  20.557  1.00  0.00     0.163 HD
BRANCH  29  32
HETATM   32  S1  UNL     1       9.326  18.737  21.038  1.00  0.00    -0.074 SA
HETATM   33  C1  UNL     1       8.689  19.127  19.401  1.00  0.00     0.100 C
ENDBRANCH  29  32
ENDBRANCH   1  28
TORSDOF 10
ENDMDL