MODEL 1
REMARK VINA RESULT: -7.932261279      0.000      0.000
REMARK  6 active torsions:
REMARK  status: ('A' for Active; 'I' for Inactive)
REMARK    1  A    between atoms: C2_2  and  O1_3
REMARK    2  A    between atoms: C2_2  and  C3_5
REMARK    3  A    between atoms: C3_5  and  C4_6
REMARK    4  A    between atoms: C4_6  and  C5_7
REMARK    5  A    between atoms: C5_7  and  C6_9
REMARK    6  A    between atoms: C8_11  and  O3_12
ROOT
HETATM    1  C6  UNL     1      24.784   1.911  57.086  1.00  0.00     0.066 C
HETATM    2  C7  UNL     1      24.534   1.822  58.580  1.00  0.00     0.045 C
HETATM    3  C8  UNL     1      25.968   1.651  59.097  1.00  0.00     0.124 C
HETATM    4  C9  UNL     1      26.807   2.480  58.194  1.00  0.00     0.028 C
HETATM    5  C10 UNL     1      28.145   1.888  57.862  1.00  0.00     0.002 C
HETATM    6  C11 UNL     1      28.149   0.439  57.553  1.00  0.00     0.006 C
HETATM    7  C12 UNL     1      28.914   0.043  56.321  1.00  0.00     0.006 C
HETATM    8  C13 UNL     1      30.239   0.717  56.306  1.00  0.00     0.004 C
HETATM    9  C14 UNL     1      30.877   0.480  54.959  1.00  0.00     0.026 C
HETATM   10  C15 UNL     1      31.078  -0.950  54.607  1.00  0.00     0.128 C
HETATM   11  N1  UNL     1      32.270  -0.929  53.772  1.00  0.00    -0.360 N
ATOM     12  H1  UNL     1      32.614  -1.714  53.220  1.00  0.00     0.162 HD
HETATM   13  C16 UNL     1      32.892   0.371  53.845  1.00  0.00     0.226 C
HETATM   14  O4  UNL     1      33.737   0.850  53.041  1.00  0.00    -0.273 OA
HETATM   15  C17 UNL     1      32.309   0.988  55.064  1.00  0.00     0.049 C
HETATM   16  C18 UNL     1      33.031   0.405  56.250  1.00  0.00     0.026 C
HETATM   17  C19 UNL     1      32.264   2.468  55.053  1.00  0.00     0.098 C
HETATM   18  C20 UNL     1      30.927   2.950  55.513  1.00  0.00     0.133 C
HETATM   19  O5  UNL     1      30.512   3.963  54.979  1.00  0.00    -0.297 OA
HETATM   20  C21 UNL     1      30.224   2.181  56.556  1.00  0.00     0.068 C
HETATM   21  C22 UNL     1      28.855   2.760  56.852  1.00  0.00    -0.029 C
HETATM   22  C23 UNL     1      29.131   4.087  57.584  1.00  0.00     0.016 C
HETATM   23  C24 UNL     1      28.050   3.093  55.650  1.00  0.00     0.011 C
HETATM   24  C25 UNL     1      26.607   2.737  55.704  1.00  0.00     0.011 C
HETATM   25  C26 UNL     1      25.953   2.848  57.026  1.00  0.00    -0.027 C
HETATM   26  C27 UNL     1      25.379   4.264  57.187  1.00  0.00     0.016 C
ENDROOT
BRANCH   1  27
HETATM   27  C5  UNL     1      23.612   2.351  56.318  1.00  0.00     0.132 C
HETATM   28  O2  UNL     1      23.607   2.743  55.168  1.00  0.00    -0.298 OA
BRANCH  27  29
HETATM   29  C4  UNL     1      22.279   2.321  57.003  1.00  0.00     0.085 C
BRANCH  29  30
HETATM   30  C3  UNL     1      21.166   2.022  56.047  1.00  0.00     0.071 C
BRANCH  30  31
HETATM   31  C2  UNL     1      20.458   0.797  56.496  1.00  0.00     0.034 C
HETATM   32  C1  UNL     1      20.957   0.032  57.449  1.00  0.00     0.045 C
BRANCH  31  33
HETATM   33  O1  UNL     1      19.249   0.432  55.916  1.00  0.00    -0.366 OA
ATOM     34  H1  UNL     1      19.083   0.686  55.016  1.00  0.00     0.217 HD
ENDBRANCH  31  33
ENDBRANCH  30  31
ENDBRANCH  29  30
ENDBRANCH  27  29
ENDBRANCH   1  27
BRANCH   3  35
HETATM   35  O3  UNL     1      25.948   2.146  60.413  1.00  0.00    -0.395 OA
ATOM     36  H3  UNL     1      26.285   3.033  60.352  1.00  0.00     0.210 HD
ENDBRANCH   3  35
TORSDOF 6
ENDMDL