MODEL 2
REMARK VINA RESULT: -7.482645998      4.187      7.368
REMARK  5 active torsions:
REMARK  status: ('A' for Active; 'I' for Inactive)
REMARK    1  A    between atoms: C3_4  and  C4_5
REMARK       I    between atoms: N1_8  and  C5_9
REMARK    2  A    between atoms: C5_9  and  C6_11
REMARK    3  A    between atoms: C6_11  and  N2_12
REMARK    4  A    between atoms: C6_11  and  C18_28
REMARK       I    between atoms: N2_12  and  C7_14
REMARK       I    between atoms: C7_14  and  N3_16
REMARK    5  A    between atoms: N3_16  and  C8_18
ROOT
HETATM    1  C6  UNL     1      25.596   3.745  55.902  1.00  0.00     0.182 C
ENDROOT
BRANCH   1   2
HETATM    2  C5  UNL     1      25.419   4.899  55.000  1.00  0.00     0.244 C
HETATM    3  N1  UNL     1      26.262   6.043  54.921  1.00  0.00    -0.328 N
HETATM    4  C3  UNL     1      26.148   7.223  54.142  1.00  0.00     0.195 C
HETATM    5  C25 UNL     1      27.507   6.107  55.654  1.00  0.00     0.205 C
HETATM    6  C2  UNL     1      27.115   8.213  54.760  1.00  0.00     0.116 C
HETATM    7  C1  UNL     1      27.576   7.549  56.019  1.00  0.00     0.147 C
HETATM    8  O1  UNL     1      27.924   8.005  57.079  1.00  0.00    -0.296 OA
HETATM    9  O4  UNL     1      24.427   4.854  54.231  1.00  0.00    -0.271 OA
BRANCH   4  10
HETATM   10  C4  UNL     1      24.829   7.884  54.146  1.00  0.00     0.197 C
HETATM   11  O2  UNL     1      24.142   8.014  55.166  1.00  0.00    -0.646 OA
HETATM   12  O3  UNL     1      24.355   8.375  52.941  1.00  0.00    -0.646 OA
ENDBRANCH   4  10
ENDBRANCH   1   2
BRANCH   1  13
HETATM   13  N2  UNL     1      25.969   2.573  55.096  1.00  0.00    -0.329 N
HETATM   14  C7  UNL     1      27.326   2.148  55.129  1.00  0.00     0.317 C
HETATM   15  O5  UNL     1      28.125   2.779  55.831  1.00  0.00    -0.247 OA
HETATM   16  N3  UNL     1      27.712   1.028  54.363  1.00  0.00    -0.334 N
ATOM     17  H3  UNL     1      26.993   0.559  53.812  1.00  0.00     0.165 HD
ATOM     18  H2  UNL     1      25.277   2.081  54.531  1.00  0.00     0.165 HD
BRANCH  16  19
HETATM   19  C8  UNL     1      29.050   0.502  54.304  1.00  0.00     0.035 C
HETATM   20  C9  UNL     1      29.976   1.527  53.739  1.00  0.00     0.035 C
HETATM   21  C10 UNL     1      31.383   0.957  53.647  1.00  0.00    -0.012 C
HETATM   22  C11 UNL     1      31.857   0.540  55.018  1.00  0.00     0.009 C
HETATM   23  C15 UNL     1      31.377  -0.227  52.737  1.00  0.00     0.009 C
HETATM   24  C12 UNL     1      30.897  -0.501  55.563  1.00  0.00    -0.012 C
HETATM   25  C13 UNL     1      30.933  -1.706  54.667  1.00  0.00     0.009 C
HETATM   26  C17 UNL     1      29.506   0.042  55.674  1.00  0.00     0.035 C
HETATM   27  C14 UNL     1      30.441  -1.284  53.289  1.00  0.00    -0.012 C
HETATM   28  C16 UNL     1      29.046  -0.750  53.436  1.00  0.00     0.035 C
ENDBRANCH  16  19
ENDBRANCH   1  13
BRANCH   1  29
HETATM   29  C18 UNL     1      24.330   3.387  56.673  1.00  0.00     0.018 C
HETATM   30  C19 UNL     1      23.425   2.451  55.921  1.00  0.00     0.007 C
HETATM   31  C20 UNL     1      22.024   2.438  56.490  1.00  0.00     0.000 C
HETATM   32  C21 UNL     1      21.875   1.180  57.309  1.00  0.00     0.000 C
HETATM   33  C22 UNL     1      22.630   1.422  58.606  1.00  0.00     0.000 C
HETATM   34  C23 UNL     1      24.111   1.498  58.335  1.00  0.00     0.000 C
HETATM   35  C24 UNL     1      24.597   2.910  58.062  1.00  0.00     0.007 C
ENDBRANCH   1  29
TORSDOF 5
ENDMDL