MODEL 2
REMARK VINA RESULT: -7.193805394      2.762      5.743
REMARK  5 active torsions:
REMARK  status: ('A' for Active; 'I' for Inactive)
REMARK    1  A    between atoms: C2_2  and  C4_4
REMARK    2  A    between atoms: C4_4  and  C5_5
REMARK       I    between atoms: N3_15  and  C10_16
REMARK    3  A    between atoms: C10_16  and  C11_18
REMARK    4  A    between atoms: C18_26  and  C19_27
REMARK    5  A    between atoms: C19_27  and  C20_28
ROOT
HETATM    1  C5  UNL     1      26.891   2.831  59.684  1.00  0.00     0.075 C
HETATM    2  N1  UNL     1      25.718   2.768  58.945  1.00  0.00    -0.360 N
ATOM      3  H1  UNL     1      25.121   3.594  58.915  1.00  0.00     0.161 HD
HETATM    4  C6  UNL     1      25.310   1.628  58.240  1.00  0.00     0.307 C
HETATM    5  N2  UNL     1      23.993   1.193  58.738  1.00  0.00    -0.052 N
ATOM      6  H21 UNL     1      23.974   1.053  59.749  1.00  0.00     0.279 HD
ATOM      7  H22 UNL     1      23.760   0.237  58.469  1.00  0.00     0.279 HD
HETATM    8  C7  UNL     1      23.040   2.144  58.292  1.00  0.00     0.237 C
HETATM    9  C8  UNL     1      23.630   2.723  57.013  1.00  0.00     0.057 C
HETATM   10  C9  UNL     1      24.934   2.011  56.815  1.00  0.00     0.147 C
HETATM   11  N3  UNL     1      25.895   2.911  56.220  1.00  0.00    -0.278 N
HETATM   12  C10 UNL     1      25.411   3.807  55.210  1.00  0.00     0.231 C
HETATM   13  O1  UNL     1      24.218   3.766  54.843  1.00  0.00    -0.273 OA
HETATM   14  C17 UNL     1      27.286   2.921  56.567  1.00  0.00     0.249 C
HETATM   15  O2  UNL     1      27.813   4.044  56.747  1.00  0.00    -0.271 OA
HETATM   16  C18 UNL     1      28.154   1.719  56.729  1.00  0.00     0.178 C
HETATM   17  N4  UNL     1      28.258   1.290  58.093  1.00  0.00    -0.343 N
ATOM     18  H4  UNL     1      28.504   0.311  58.231  1.00  0.00     0.163 HD
HETATM   19  C26 UNL     1      28.063   2.043  59.266  1.00  0.00     0.264 C
HETATM   20  O3  UNL     1      29.034   2.058  60.109  1.00  0.00    -0.266 OA
ENDROOT
BRANCH  12  21
HETATM   21  C11 UNL     1      26.245   4.826  54.528  1.00  0.00     0.078 C
HETATM   22  C12 UNL     1      26.856   4.205  53.309  1.00  0.00     0.014 C
HETATM   23  C13 UNL     1      26.487   4.938  52.028  1.00  0.00     0.001 C
HETATM   24  C14 UNL     1      26.817   6.409  52.168  1.00  0.00     0.000 C
HETATM   25  C15 UNL     1      26.158   6.997  53.380  1.00  0.00     0.001 C
HETATM   26  C16 UNL     1      25.325   5.926  54.040  1.00  0.00     0.014 C
ENDBRANCH  12  21
BRANCH  16  27
HETATM   27  C19 UNL     1      29.472   2.010  56.107  1.00  0.00     0.039 C
BRANCH  27  28
HETATM   28  C20 UNL     1      29.758   1.628  54.714  1.00  0.00    -0.012 C
HETATM   29  C21 UNL     1      30.845   0.519  54.830  1.00  0.00     0.005 C
HETATM   30  C22 UNL     1      30.224  -0.819  55.144  1.00  0.00     0.000 C
HETATM   31  C23 UNL     1      29.449  -1.350  53.936  1.00  0.00     0.000 C
HETATM   32  C24 UNL     1      29.148  -0.128  53.099  1.00  0.00     0.000 C
HETATM   33  C25 UNL     1      28.605   0.932  54.065  1.00  0.00     0.005 C
ENDBRANCH  27  28
ENDBRANCH  16  27
BRANCH   1  34
HETATM   34  C4  UNL     1      26.790   2.722  61.188  1.00  0.00     0.066 C
BRANCH  34  35
HETATM   35  C2  UNL     1      26.229   3.932  61.868  1.00  0.00    -0.017 C
HETATM   36  C1  UNL     1      27.345   4.949  62.057  1.00  0.00     0.010 C
HETATM   37  C3  UNL     1      25.520   3.652  63.158  1.00  0.00     0.010 C
ENDBRANCH  34  35
ENDBRANCH   1  34
TORSDOF 5
ENDMDL