MODEL 3
REMARK VINA RESULT: -6.715560562      1.525      2.448
REMARK  7 active torsions:
REMARK  status: ('A' for Active; 'I' for Inactive)
REMARK    1  A    between atoms: C3_3  and  N1_4
REMARK       I    between atoms: N1_4  and  C4_6
REMARK    2  A    between atoms: C4_6  and  C5_8
REMARK    3  A    between atoms: C7_10  and  O2_11
REMARK    4  A    between atoms: C16_21  and  C17_22
REMARK    5  A    between atoms: C17_22  and  C19_24
REMARK    6  A    between atoms: C19_24  and  C20_25
REMARK    7  A    between atoms: C26_31  and  O3_32
ROOT
HETATM    1  C1  UNL     1      20.565   0.663  57.202  1.00  0.00     0.014 C
HETATM    2  C2  UNL     1      21.354   1.357  56.619  1.00  0.00    -0.098 C
HETATM    3  C3  UNL     1      22.299   2.224  55.906  1.00  0.00     0.216 C
ENDROOT
BRANCH   3   4
HETATM    4  N1  UNL     1      23.539   2.335  56.629  1.00  0.00    -0.349 N
HETATM    5  C4  UNL     1      24.586   3.128  56.140  1.00  0.00     0.241 C
HETATM    6  O1  UNL     1      24.427   3.748  55.052  1.00  0.00    -0.271 OA
ATOM      7  H1  UNL     1      23.656   1.830  57.508  1.00  0.00     0.163 HD
BRANCH   5   8
HETATM    8  C5  UNL     1      25.890   3.287  56.834  1.00  0.00     0.179 C
HETATM    9  C6  UNL     1      25.726   2.987  58.303  1.00  0.00     0.066 C
HETATM   10  C7  UNL     1      26.295   1.630  58.573  1.00  0.00     0.121 C
HETATM   11  C8  UNL     1      27.724   1.681  59.099  1.00  0.00     0.054 C
HETATM   12  C9  UNL     1      28.705   2.021  57.995  1.00  0.00     0.074 C
HETATM   13  C10 UNL     1      29.012   3.526  58.008  1.00  0.00     0.023 C
HETATM   14  C26 UNL     1      30.017   1.345  58.130  1.00  0.00     0.078 C
HETATM   15  C27 UNL     1      28.014   1.756  56.708  1.00  0.00     0.230 C
HETATM   16  C11 UNL     1      30.547   3.611  57.998  1.00  0.00     0.009 C
HETATM   17  C12 UNL     1      30.874   2.417  58.810  1.00  0.00     0.026 C
HETATM   18  C13 UNL     1      32.285   2.052  58.934  1.00  0.00     0.001 C
HETATM   19  C14 UNL     1      32.864   2.851  60.096  1.00  0.00     0.006 C
HETATM   20  C22 UNL     1      32.606   0.606  59.189  1.00  0.00    -0.036 C
HETATM   21  C15 UNL     1      33.963   1.964  60.621  1.00  0.00     0.006 C
HETATM   22  C16 UNL     1      33.300   0.587  60.510  1.00  0.00    -0.002 C
HETATM   23  C23 UNL     1      33.650   0.228  58.134  1.00  0.00     0.016 C
HETATM   24  C24 UNL     1      31.469  -0.326  59.180  1.00  0.00     0.013 C
HETATM   25  C25 UNL     1      30.082   0.225  59.107  1.00  0.00     0.040 C
HETATM   26  O4  UNL     1      28.417   0.854  55.939  1.00  0.00    -0.273 OA
HETATM   27  N2  UNL     1      26.880   2.437  56.203  1.00  0.00    -0.347 N
ATOM     28  H2  UNL     1      26.733   2.305  55.202  1.00  0.00     0.163 HD
BRANCH  10  29
HETATM   29  O2  UNL     1      25.531   1.042  59.593  1.00  0.00    -0.395 OA
ATOM     30  H2  UNL     1      25.330   1.718  60.229  1.00  0.00     0.210 HD
ENDBRANCH  10  29
BRANCH  22  31
HETATM   31  C17 UNL     1      34.373  -0.408  60.728  1.00  0.00    -0.014 C
HETATM   32  C18 UNL     1      35.522   0.411  61.353  1.00  0.00     0.010 C
BRANCH  31  33
HETATM   33  C19 UNL     1      34.043  -1.490  61.712  1.00  0.00     0.004 C
BRANCH  33  34
HETATM   34  C20 UNL     1      33.383  -0.904  62.939  1.00  0.00    -0.004 C
HETATM   35  C21 UNL     1      33.740  -1.705  64.182  1.00  0.00     0.005 C
ENDBRANCH  33  34
ENDBRANCH  31  33
ENDBRANCH  22  31
BRANCH  14  36
HETATM   36  O3  UNL     1      30.570   0.927  56.934  1.00  0.00    -0.388 OA
ATOM     37  H3  UNL     1      31.119   1.575  56.508  1.00  0.00     0.210 HD
ENDBRANCH  14  36
ENDBRANCH   5   8
ENDBRANCH   3   4
TORSDOF 7
ENDMDL