MODEL 5
REMARK VINA RESULT: -7.381751378      1.753      2.333
REMARK  5 active torsions:
REMARK  status: ('A' for Active; 'I' for Inactive)
REMARK    1  A    between atoms: C2_2  and  C3_3
REMARK       I    between atoms: C3_3  and  N1_5
REMARK    2  A    between atoms: N1_5  and  S1_7
REMARK    3  A    between atoms: C14_21  and  C15_22
REMARK       I    between atoms: C15_22  and  N2_24
REMARK    4  A    between atoms: N2_24  and  C16_26
REMARK    5  A    between atoms: C16_26  and  C17_27
ROOT
HETATM    1  C1  UNL     1      24.637   3.234  58.714  1.00  0.00     0.026 C
HETATM    2  C2  UNL     1      24.656   1.925  58.010  1.00  0.00     0.042 C
HETATM    3  C4  UNL     1      25.699   1.064  58.754  1.00  0.00     0.020 C
HETATM    4  C5  UNL     1      26.951   1.751  58.151  1.00  0.00     0.007 C
HETATM    5  C6  UNL     1      26.597   1.559  56.709  1.00  0.00    -0.004 C
HETATM    6  C7  UNL     1      25.166   1.968  56.582  1.00  0.00     0.007 C
HETATM    7  C8  UNL     1      24.807   3.155  55.818  1.00  0.00     0.007 C
HETATM    8  C9  UNL     1      25.827   3.790  54.939  1.00  0.00     0.010 C
HETATM    9  C10 UNL     1      27.233   3.573  55.315  1.00  0.00    -0.036 C
HETATM   10  C11 UNL     1      27.705   4.523  56.416  1.00  0.00     0.016 C
HETATM   11  C12 UNL     1      28.278   3.733  54.263  1.00  0.00    -0.001 C
HETATM   12  C13 UNL     1      28.192   3.009  53.005  1.00  0.00     0.020 C
HETATM   13  C14 UNL     1      29.641   2.726  52.637  1.00  0.00     0.078 C
HETATM   14  C20 UNL     1      30.428   2.777  53.941  1.00  0.00     0.019 C
HETATM   15  C21 UNL     1      29.487   3.139  55.029  1.00  0.00    -0.009 C
HETATM   16  C22 UNL     1      28.916   2.010  55.824  1.00  0.00     0.011 C
HETATM   17  C23 UNL     1      27.453   2.134  55.680  1.00  0.00    -0.001 C
ENDROOT
BRANCH   2  18
HETATM   18  C3  UNL     1      23.361   1.207  58.140  1.00  0.00     0.241 C
HETATM   19  O1  UNL     1      23.028   0.597  59.204  1.00  0.00    -0.272 OA
HETATM   20  N1  UNL     1      22.446   1.180  57.065  1.00  0.00    -0.235 N
ATOM     21  H1  UNL     1      22.695   1.663  56.202  1.00  0.00     0.184 HD
BRANCH  20  22
HETATM   22  S1  UNL     1      20.933   0.371  57.145  1.00  0.00     0.211 S
HETATM   23  O2  UNL     1      20.129   0.990  58.265  1.00  0.00    -0.578 OA
HETATM   24  O3  UNL     1      20.175   0.598  55.861  1.00  0.00    -0.578 OA
HETATM   25  O4  UNL     1      21.102  -1.295  57.355  1.00  0.00    -0.578 OA
ENDBRANCH  20  22
ENDBRANCH   2  18
BRANCH  13  26
HETATM   26  C15 UNL     1      29.838   1.415  51.987  1.00  0.00     0.221 C
HETATM   27  O5  UNL     1      29.453   1.194  50.786  1.00  0.00    -0.273 OA
HETATM   28  N2  UNL     1      30.467   0.368  52.711  1.00  0.00    -0.360 N
ATOM     29  H2  UNL     1      30.786   0.525  53.666  1.00  0.00     0.162 HD
BRANCH  28  30
HETATM   30  C16 UNL     1      30.649  -0.904  52.092  1.00  0.00     0.127 C
BRANCH  30  31
HETATM   31  C17 UNL     1      29.637  -1.933  52.430  1.00  0.00     0.003 A
HETATM   32  C18 UNL     1      29.691  -2.675  53.717  1.00  0.00     0.007 A
HETATM   33  C19 UNL     1      29.911  -3.410  52.413  1.00  0.00     0.007 A
ENDBRANCH  30  31
ENDBRANCH  28  30
ENDBRANCH  13  26
TORSDOF 5
ENDMDL