MODEL 2
REMARK VINA RESULT: -7.997094485      5.033      8.021
REMARK  6 active torsions:
REMARK  status: ('A' for Active; 'I' for Inactive)
REMARK    1  A    between atoms: O1_2  and  N1_3
REMARK       I    between atoms: N1_3  and  C3_5
REMARK    2  A    between atoms: C3_5  and  C4_7
REMARK    3  A    between atoms: C10_13  and  N2_14
REMARK       I    between atoms: N2_14  and  C11_16
REMARK       I    between atoms: C11_16  and  N3_18
REMARK    4  A    between atoms: N3_18  and  C12_20
REMARK    5  A    between atoms: C16_24  and  C17_25
REMARK       I    between atoms: C17_25  and  N4_27
REMARK    6  A    between atoms: N4_27  and  C18_29
ROOT
HETATM    1  N2  UNL     1      28.806   0.751  57.032  1.00  0.00    -0.334 N
ATOM      2  H2  UNL     1      29.546   0.305  57.576  1.00  0.00     0.165 HD
HETATM    3  C11 UNL     1      28.676   0.327  55.698  1.00  0.00     0.317 C
HETATM    4  O3  UNL     1      27.798   0.829  54.965  1.00  0.00    -0.247 OA
HETATM    5  N3  UNL     1      29.520  -0.668  55.146  1.00  0.00    -0.338 N
ATOM      6  H3  UNL     1      30.241  -1.087  55.733  1.00  0.00     0.164 HD
ENDROOT
BRANCH   1   7
HETATM    7  C10 UNL     1      28.026   1.729  57.716  1.00  0.00     0.036 C
HETATM    8  C9  UNL     1      28.457   1.834  59.142  1.00  0.00     0.035 C
HETATM    9  C8  UNL     1      27.587   2.816  59.934  1.00  0.00    -0.011 C
HETATM   10  C7  UNL     1      27.765   4.167  59.329  1.00  0.00     0.009 C
HETATM   11  C25 UNL     1      26.174   2.270  59.819  1.00  0.00     0.024 C
HETATM   12  C6  UNL     1      27.382   4.103  57.868  1.00  0.00    -0.011 C
HETATM   13  C5  UNL     1      25.925   3.745  57.815  1.00  0.00     0.024 C
HETATM   14  C23 UNL     1      28.184   3.114  57.097  1.00  0.00     0.035 C
HETATM   15  C4  UNL     1      25.708   2.353  58.391  1.00  0.00     0.046 C
HETATM   16  C24 UNL     1      26.541   1.405  57.565  1.00  0.00     0.050 C
BRANCH  15  17
HETATM   17  C3  UNL     1      24.277   2.057  58.282  1.00  0.00     0.251 C
HETATM   18  N1  UNL     1      23.584   1.968  57.058  1.00  0.00    -0.231 N
HETATM   19  C2  UNL     1      22.145   1.665  57.010  1.00  0.00     0.189 C
HETATM   20  O2  UNL     1      23.594   1.866  59.332  1.00  0.00    -0.270 OA
BRANCH  18  21
HETATM   21  O1  UNL     1      24.230   2.161  55.898  1.00  0.00    -0.281 OA
HETATM   22  C1  UNL     1      23.647   3.245  55.210  1.00  0.00     0.238 C
ENDBRANCH  18  21
ENDBRANCH  15  17
ENDBRANCH   1   7
BRANCH   5  23
HETATM   23  C12 UNL     1      29.393  -1.105  53.784  1.00  0.00     0.087 C
HETATM   24  C13 UNL     1      29.988  -2.491  53.705  1.00  0.00     0.025 C
HETATM   25  C14 UNL     1      29.734  -3.092  52.358  1.00  0.00     0.003 C
HETATM   26  C15 UNL     1      29.666  -2.038  51.277  1.00  0.00     0.014 C
HETATM   27  C16 UNL     1      30.631  -0.931  51.683  1.00  0.00     0.080 C
HETATM   28  C22 UNL     1      29.984  -0.148  52.796  1.00  0.00     0.039 C
BRANCH  27  29
HETATM   29  C17 UNL     1      30.869  -0.116  50.474  1.00  0.00     0.222 C
HETATM   30  O4  UNL     1      31.988   0.410  50.303  1.00  0.00    -0.273 OA
HETATM   31  N4  UNL     1      29.857   0.078  49.512  1.00  0.00    -0.353 N
ATOM     32  H4  UNL     1      28.945  -0.355  49.660  1.00  0.00     0.163 HD
BRANCH  31  33
HETATM   33  C18 UNL     1      30.071   0.873  48.321  1.00  0.00     0.022 C
HETATM   34  C19 UNL     1      31.225   0.354  47.494  1.00  0.00     0.037 C
HETATM   35  C20 UNL     1      28.846   0.830  47.415  1.00  0.00     0.037 C
HETATM   36  C21 UNL     1      30.289   2.299  48.715  1.00  0.00     0.037 C
ENDBRANCH  31  33
ENDBRANCH  27  29
ENDBRANCH   5  23
TORSDOF 6
ENDMDL