MODEL 4
REMARK VINA RESULT: -6.903083024      1.471      1.972
REMARK  7 active torsions:
REMARK  status: ('A' for Active; 'I' for Inactive)
REMARK    1  A    between atoms: C2_2  and  C4_4
REMARK    2  A    between atoms: C4_4  and  N1_5
REMARK       I    between atoms: N1_5  and  C5_7
REMARK    3  A    between atoms: C5_7  and  C6_9
REMARK    4  A    between atoms: C6_9  and  N2_10
REMARK    5  A    between atoms: N2_10  and  C7_12
REMARK    6  A    between atoms: C7_12  and  C9_17
REMARK    7  A    between atoms: C18_26  and  O2_27
ROOT
HETATM    1  C7  UNL     1      24.995   3.227  57.776  1.00  0.00     0.091 C
HETATM    2  N3  UNL     1      23.730   3.022  58.059  1.00  0.00    -0.283 N
ATOM      3  H3  UNL     1      23.062   3.786  57.950  1.00  0.00     0.179 HD
HETATM    4  C8  UNL     1      23.283   1.780  58.505  1.00  0.00     0.183 C
HETATM    5  N4  UNL     1      22.891   0.738  58.867  1.00  0.00    -0.172 NA
ENDROOT
BRANCH   1   6
HETATM    6  N2  UNL     1      25.373   4.493  57.334  1.00  0.00    -0.370 N
ATOM      7  H2  UNL     1      26.156   4.948  57.804  1.00  0.00     0.161 HD
BRANCH   6   8
HETATM    8  C6  UNL     1      24.739   5.191  56.276  1.00  0.00     0.223 C
BRANCH   8   9
HETATM    9  C5  UNL     1      24.909   4.665  54.912  1.00  0.00     0.235 C
HETATM   10  N1  UNL     1      26.123   4.964  54.216  1.00  0.00    -0.359 N
ATOM     11  H1  UNL     1      26.831   5.529  54.685  1.00  0.00     0.162 HD
HETATM   12  O1  UNL     1      24.012   3.975  54.379  1.00  0.00    -0.272 OA
BRANCH  10  13
HETATM   13  C4  UNL     1      26.384   4.500  52.883  1.00  0.00     0.126 C
BRANCH  13  14
HETATM   14  C2  UNL     1      27.843   4.742  52.555  1.00  0.00    -0.005 C
HETATM   15  C1  UNL     1      28.685   4.865  53.808  1.00  0.00     0.011 C
HETATM   16  C3  UNL     1      28.397   3.605  51.722  1.00  0.00     0.011 C
ENDBRANCH  13  14
ENDBRANCH  10  13
ENDBRANCH   8   9
ENDBRANCH   6   8
ENDBRANCH   1   6
BRANCH   1  17
HETATM   17  C9  UNL     1      25.911   2.100  57.926  1.00  0.00     0.062 C
HETATM   18  C10 UNL     1      26.772   2.114  59.167  1.00  0.00     0.013 C
HETATM   19  C11 UNL     1      27.977   1.213  58.813  1.00  0.00     0.010 C
HETATM   20  C12 UNL     1      27.665   0.726  57.439  1.00  0.00     0.023 C
HETATM   21  C13 UNL     1      28.798   0.417  56.573  1.00  0.00    -0.074 C
HETATM   22  C26 UNL     1      26.970   1.970  56.857  1.00  0.00    -0.026 C
HETATM   23  C14 UNL     1      30.000   0.249  57.099  1.00  0.00    -0.023 C
HETATM   24  C23 UNL     1      28.516   0.299  55.120  1.00  0.00     0.023 C
HETATM   25  C15 UNL     1      31.199  -0.068  56.269  1.00  0.00     0.033 C
HETATM   26  C16 UNL     1      30.671  -0.805  55.045  1.00  0.00     0.000 C
HETATM   27  C17 UNL     1      31.705  -1.486  54.241  1.00  0.00     0.037 C
HETATM   28  C21 UNL     1      29.725   0.091  54.276  1.00  0.00    -0.033 C
HETATM   29  C18 UNL     1      31.779  -1.136  52.796  1.00  0.00     0.118 C
HETATM   30  C19 UNL     1      30.465  -0.941  52.110  1.00  0.00     0.032 C
HETATM   31  C20 UNL     1      29.317  -0.627  53.012  1.00  0.00     0.012 C
HETATM   32  C22 UNL     1      30.362   1.427  53.956  1.00  0.00     0.016 C
HETATM   33  C24 UNL     1      27.595   1.370  54.592  1.00  0.00     0.010 C
HETATM   34  C25 UNL     1      26.443   1.572  55.522  1.00  0.00     0.011 C
HETATM   35  C27 UNL     1      27.968   3.076  56.840  1.00  0.00     0.016 C
BRANCH  29  36
HETATM   36  O2  UNL     1      32.421  -2.211  52.135  1.00  0.00    -0.396 OA
ATOM     37  H2  UNL     1      33.110  -1.840  51.596  1.00  0.00     0.210 HD
ENDBRANCH  29  36
ENDBRANCH   1  17
TORSDOF 7
ENDMDL