MODEL 5
REMARK VINA RESULT: -5.602163182      5.193      7.756
REMARK  6 active torsions:
REMARK  status: ('A' for Active; 'I' for Inactive)
REMARK    1  A    between atoms: C2_2  and  C3_3
REMARK    2  A    between atoms: C3_3  and  N1_4
REMARK    3  A    between atoms: C10_11  and  C11_12
REMARK       I    between atoms: C11_12  and  N2_14
REMARK    4  A    between atoms: N2_14  and  C12_16
REMARK    5  A    between atoms: C12_16  and  C13_17
REMARK    6  A    between atoms: C17_23  and  C18_24
ROOT
HETATM    1  N1  UNL     1      30.414   1.085  51.519  1.00  0.00    -0.053 N
HETATM    2  C4  UNL     1      31.352   0.527  50.528  1.00  0.00     0.265 C
HETATM    3  C5  UNL     1      30.707   0.172  49.241  1.00  0.00    -0.003 C
HETATM    4  C6  UNL     1      29.547   0.888  48.723  1.00  0.00    -0.029 C
HETATM    5  C7  UNL     1      28.213   0.807  49.325  1.00  0.00     0.029 C
HETATM    6  C8  UNL     1      28.075   0.858  50.822  1.00  0.00     0.038 C
HETATM    7  C9  UNL     1      29.272   0.221  51.387  1.00  0.00     0.211 A
HETATM    8  C10 UNL     1      29.324  -0.253  52.810  1.00  0.00     0.099 A
HETATM    9  C14 UNL     1      28.207   0.086  53.701  1.00  0.00     0.028 C
HETATM   10  C15 UNL     1      28.492   0.808  54.956  1.00  0.00    -0.012 C
HETATM   11  C16 UNL     1      29.209   0.108  56.042  1.00  0.00     0.010 C
HETATM   12  C17 UNL     1      30.574   0.685  56.337  1.00  0.00     0.002 C
HETATM   13  C20 UNL     1      31.391   0.952  55.130  1.00  0.00     0.012 C
HETATM   14  C21 UNL     1      30.591   1.567  53.986  1.00  0.00     0.019 C
HETATM   15  C22 UNL     1      29.326   2.016  54.554  1.00  0.00     0.011 C
HETATM   16  C23 UNL     1      30.552   0.584  52.871  1.00  0.00     0.215 A
ENDROOT
BRANCH   8  17
HETATM   17  C11 UNL     1      29.582  -1.746  52.917  1.00  0.00     0.231 C
HETATM   18  O1  UNL     1      29.689  -2.273  54.028  1.00  0.00    -0.273 OA
HETATM   19  N2  UNL     1      29.697  -2.512  51.740  1.00  0.00    -0.352 N
ATOM     20  H2  UNL     1      29.605  -2.060  50.831  1.00  0.00     0.162 HD
BRANCH  19  21
HETATM   21  C12 UNL     1      29.943  -3.924  51.809  1.00  0.00     0.222 C
BRANCH  21  22
HETATM   22  C13 UNL     1      31.194  -4.289  51.072  1.00  0.00     0.248 C
HETATM   23  N3  UNL     1      31.401  -5.634  50.689  1.00  0.00    -0.061 NA
HETATM   24  O2  UNL     1      32.053  -3.436  50.790  1.00  0.00    -0.275 OA
ENDBRANCH  21  22
ENDBRANCH  19  21
ENDBRANCH   8  17
BRANCH   1  25
HETATM   25  C3  UNL     1      30.289   2.465  51.297  1.00  0.00     0.238 C
BRANCH  25  26
HETATM   26  C2  UNL     1      31.611   3.176  50.946  1.00  0.00     0.023 C
HETATM   27  C1  UNL     1      31.199   4.179  49.853  1.00  0.00     0.007 C
ENDBRANCH  25  26
ENDBRANCH   1  25
BRANCH  12  28
HETATM   28  C18 UNL     1      31.242  -0.200  57.355  1.00  0.00     0.072 C
HETATM   29  C19 UNL     1      30.673  -0.066  58.764  1.00  0.00     0.102 C
HETATM   30  S1  UNL     1      32.025   0.869  59.582  1.00  0.00    -0.096 SA
HETATM   31  S2  UNL     1      32.941   0.135  57.783  1.00  0.00    -0.092 SA
ENDBRANCH  12  28
TORSDOF 6
ENDMDL