MODEL 1
REMARK VINA RESULT: -7.736210284      0.000      0.000
REMARK  9 active torsions:
REMARK  status: ('A' for Active; 'I' for Inactive)
REMARK    1  A    between atoms: O1_1  and  C1_3
REMARK    2  A    between atoms: C4_6  and  C5_7
REMARK    3  A    between atoms: C5_7  and  N1_8
REMARK    4  A    between atoms: N1_8  and  C6_11
REMARK    5  A    between atoms: C6_11  and  C7_12
REMARK    6  A    between atoms: C7_12  and  C8_13
REMARK    7  A    between atoms: C8_13  and  C9_14
REMARK    8  A    between atoms: C9_14  and  N2_15
REMARK    9  A    between atoms: N2_15  and  C10_17
ROOT
HETATM    1  C8  UNL     1     186.240 127.544  32.363  1.00  0.00     0.021 C
ENDROOT
BRANCH   1   2
HETATM    2  C7  UNL     1     186.251 128.152  30.974  1.00  0.00     0.029 C
BRANCH   2   3
HETATM    3  C6  UNL     1     186.021 129.625  31.099  1.00  0.00     0.232 C
BRANCH   3   4
HETATM    4  N1  UNL     1     185.689 130.238  29.822  1.00  0.00    -0.071 N
ATOM      5  H12 UNL     1     184.996 130.982  29.900  1.00  0.00     0.277 HD
ATOM      6  H11 UNL     1     185.151 129.627  29.208  1.00  0.00     0.277 HD
BRANCH   4   7
HETATM    7  C5  UNL     1     186.940 130.679  29.238  1.00  0.00     0.270 C
BRANCH   7   8
HETATM    8  C4  UNL     1     187.152 130.007  27.906  1.00  0.00    -0.033 A
HETATM    9  C3  UNL     1     186.198 129.171  27.366  1.00  0.00     0.011 A
HETATM   10  C2  UNL     1     186.387 128.550  26.140  1.00  0.00     0.037 A
HETATM   11  C1  UNL     1     187.544 128.752  25.417  1.00  0.00     0.065 A
HETATM   12  C18 UNL     1     188.494 129.591  25.967  1.00  0.00     0.037 A
HETATM   13  C17 UNL     1     188.307 130.209  27.186  1.00  0.00     0.011 A
BRANCH  11  14
HETATM   14  O1  UNL     1     187.747 128.132  24.180  1.00  0.00    -0.361 OA
ATOM     15  H1  UNL     1     188.566 128.228  23.707  1.00  0.00     0.217 HD
ENDBRANCH  11  14
ENDBRANCH   7   8
ENDBRANCH   4   7
ENDBRANCH   3   4
ENDBRANCH   2   3
ENDBRANCH   1   2
BRANCH   1  16
HETATM   16  C9  UNL     1     187.575 126.993  32.757  1.00  0.00     0.120 C
BRANCH  16  17
HETATM   17  N2  UNL     1     188.206 126.146  31.801  1.00  0.00    -0.389 N
ATOM     18  H2  UNL     1     188.618 126.581  30.976  1.00  0.00     0.159 HD
BRANCH  17  19
HETATM   19  C10 UNL     1     188.296 124.754  31.922  1.00  0.00     0.042 A
HETATM   20  C11 UNL     1     189.261 124.168  32.688  1.00  0.00     0.030 A
HETATM   21  C12 UNL     1     189.338 122.783  32.822  1.00  0.00     0.005 A
HETATM   22  C13 UNL     1     188.406 122.010  32.159  1.00  0.00     0.032 A
HETATM   23  C14 UNL     1     187.430 122.598  31.387  1.00  0.00     0.061 A
HETATM   24  N3  UNL     1     186.425 122.103  30.651  1.00  0.00    -0.300 N
HETATM   25  C16 UNL     1     187.361 123.964  31.257  1.00  0.00     0.035 A
HETATM   26  N4  UNL     1     185.758 123.094  30.090  1.00  0.00    -0.310 N
ATOM     27  H3  UNL     1     186.208 121.112  30.541  1.00  0.00     0.187 HD
HETATM   28  C15 UNL     1     186.303 124.274  30.438  1.00  0.00     0.123 A
ATOM     29  H4  UNL     1     184.947 122.982  29.482  1.00  0.00     0.186 HD
ENDBRANCH  17  19
ENDBRANCH  16  17
ENDBRANCH   1  16
TORSDOF 9
ENDMDL