MODEL 2
REMARK VINA RESULT: -7.704689457      1.493      1.554
REMARK  8 active torsions:
REMARK  status: ('A' for Active; 'I' for Inactive)
REMARK    1  A    between atoms: C5_5  and  N1_6
REMARK    2  A    between atoms: N1_6  and  C6_8
REMARK    3  A    between atoms: C6_8  and  C7_9
REMARK    4  A    between atoms: C7_9  and  N2_10
REMARK    5  A    between atoms: N2_10  and  C8_13
REMARK    6  A    between atoms: C8_13  and  C9_14
REMARK    7  A    between atoms: C9_14  and  C10_15
REMARK    8  A    between atoms: C10_15  and  C11_16
ROOT
HETATM    1  C7  UNL     1     186.666 122.205  31.019  1.00  0.00     0.251 C
ENDROOT
BRANCH   1   2
HETATM    2  C6  UNL     1     186.074 123.380  30.323  1.00  0.00     0.147 C
BRANCH   2   3
HETATM    3  N1  UNL     1     186.885 124.588  30.384  1.00  0.00    -0.388 N
ATOM      4  H1  UNL     1     187.656 124.677  29.723  1.00  0.00     0.159 HD
BRANCH   3   5
HETATM    5  C5  UNL     1     186.674 125.638  31.291  1.00  0.00     0.039 A
HETATM    6  C4  UNL     1     186.427 126.931  30.835  1.00  0.00     0.001 A
HETATM    7  C3  UNL     1     186.410 127.239  29.495  1.00  0.00     0.014 A
HETATM    8  C17 UNL     1     186.187 127.961  31.745  1.00  0.00    -0.024 A
HETATM    9  C2  UNL     1     186.165 128.533  29.038  1.00  0.00     0.001 A
HETATM   10  C1  UNL     1     185.936 129.506  29.974  1.00  0.00     0.001 A
HETATM   11  C18 UNL     1     185.941 129.252  31.315  1.00  0.00     0.012 A
HETATM   12  C16 UNL     1     186.202 127.672  33.103  1.00  0.00     0.012 A
HETATM   13  C15 UNL     1     186.446 126.399  33.545  1.00  0.00     0.003 A
HETATM   14  C14 UNL     1     186.682 125.372  32.664  1.00  0.00     0.030 A
ENDBRANCH   3   5
ENDBRANCH   2   3
ENDBRANCH   1   2
BRANCH   1  15
HETATM   15  N2  UNL     1     188.107 122.295  31.136  1.00  0.00    -0.074 N
ATOM     16  H22 UNL     1     188.569 121.788  30.381  1.00  0.00     0.277 HD
ATOM     17  H21 UNL     1     188.434 123.238  30.925  1.00  0.00     0.277 HD
BRANCH  15  18
HETATM   18  C8  UNL     1     188.586 121.857  32.423  1.00  0.00     0.232 C
BRANCH  18  19
HETATM   19  C9  UNL     1     189.757 122.629  32.922  1.00  0.00     0.033 C
BRANCH  19  20
HETATM   20  C10 UNL     1     189.974 123.940  32.233  1.00  0.00     0.060 C
BRANCH  20  21
HETATM   21  C11 UNL     1     191.339 123.964  31.641  1.00  0.00     0.025 A
HETATM   22  C12 UNL     1     191.886 123.076  30.729  1.00  0.00     0.113 A
HETATM   23  N3  UNL     1     193.148 123.448  30.444  1.00  0.00    -0.360 N
HETATM   24  C13 UNL     1     193.410 124.551  31.155  1.00  0.00     0.180 A
ATOM     25  H3  UNL     1     193.787 122.976  29.805  1.00  0.00     0.166 HD
HETATM   26  N4  UNL     1     192.316 124.873  31.885  1.00  0.00    -0.355 N
ATOM     27  H4  UNL     1     192.238 125.670  32.516  1.00  0.00     0.166 HD
ENDBRANCH  20  21
ENDBRANCH  19  20
ENDBRANCH  18  19
ENDBRANCH  15  18
ENDBRANCH   1  15
TORSDOF 8
ENDMDL