MODEL 5
REMARK VINA RESULT: -7.173829554      1.036      2.507
REMARK  10 active torsions:
REMARK  status: ('A' for Active; 'I' for Inactive)
REMARK    1  A    between atoms: C3_4  and  S1_5
REMARK    2  A    between atoms: S1_5  and  C4_6
REMARK    3  A    between atoms: C4_6  and  C5_7
REMARK    4  A    between atoms: C5_7  and  C6_8
REMARK    5  A    between atoms: C6_8  and  C7_9
REMARK    6  A    between atoms: C7_9  and  C8_10
REMARK    7  A    between atoms: C8_10  and  C9_11
REMARK    8  A    between atoms: C9_11  and  C10_12
REMARK    9  A    between atoms: C14_18  and  N3_19
REMARK   10  A    between atoms: C15_24  and  N5_25
ROOT
HETATM    1  N1  UNL     1     189.873 129.673  28.590  1.00  0.00    -0.191 NA
HETATM    2  C1  UNL     1     189.002 130.166  28.008  1.00  0.00     0.106 C
HETATM    3  C2  UNL     1     187.908 130.763  27.300  1.00  0.00     0.122 A
HETATM    4  C3  UNL     1     186.608 130.455  27.640  1.00  0.00     0.110 A
HETATM    5  N2  UNL     1     185.639 131.055  26.929  1.00  0.00    -0.184 N
ATOM      6  H2  UNL     1     184.666 130.848  27.156  1.00  0.00     0.185 HD
HETATM    7  C14 UNL     1     185.898 131.921  25.930  1.00  0.00     0.678 A
HETATM    8  N4  UNL     1     187.156 132.238  25.578  1.00  0.00    -0.176 N
ATOM      9  H4  UNL     1     187.348 132.893  24.820  1.00  0.00     0.186 HD
HETATM   10  C15 UNL     1     188.163 131.645  26.280  1.00  0.00     0.138 A
ENDROOT
BRANCH   4  11
HETATM   11  S1  UNL     1     186.183 129.326  28.942  1.00  0.00    -0.110 SA
BRANCH  11  12
HETATM   12  C4  UNL     1     186.365 130.025  30.580  1.00  0.00     0.081 C
BRANCH  12  13
HETATM   13  C5  UNL     1     185.843 129.126  31.671  1.00  0.00     0.010 C
BRANCH  13  14
HETATM   14  C6  UNL     1     186.376 127.743  31.616  1.00  0.00     0.001 C
BRANCH  14  15
HETATM   15  C7  UNL     1     186.336 127.004  32.927  1.00  0.00     0.000 C
BRANCH  15  16
HETATM   16  C8  UNL     1     186.730 125.549  32.774  1.00  0.00     0.000 C
BRANCH  16  17
HETATM   17  C9  UNL     1     186.976 125.303  31.322  1.00  0.00     0.004 C
BRANCH  17  18
HETATM   18  C10 UNL     1     186.748 123.902  30.884  1.00  0.00    -0.014 C
HETATM   19  C11 UNL     1     185.727 123.734  29.763  1.00  0.00     0.004 C
HETATM   20  C12 UNL     1     185.366 122.398  30.427  1.00  0.00     0.001 C
HETATM   21  C13 UNL     1     185.902 123.013  31.726  1.00  0.00     0.004 C
ENDBRANCH  17  18
ENDBRANCH  16  17
ENDBRANCH  15  16
ENDBRANCH  14  15
ENDBRANCH  13  14
ENDBRANCH  12  13
ENDBRANCH  11  12
ENDBRANCH   4  11
BRANCH  10  22
HETATM   22  N5  UNL     1     189.358 131.974  25.914  1.00  0.00    -0.384 N
ATOM     23  H52 UNL     1     189.784 132.732  26.447  1.00  0.00     0.157 HD
ATOM     24  H51 UNL     1     189.852 131.516  25.148  1.00  0.00     0.157 HD
ENDBRANCH  10  22
BRANCH   7  25
HETATM   25  N3  UNL     1     184.924 132.476  25.271  1.00  0.00    -0.234 N
ATOM     26  H32 UNL     1     184.179 132.922  25.806  1.00  0.00     0.174 HD
ATOM     27  H31 UNL     1     184.916 132.461  24.251  1.00  0.00     0.174 HD
ENDBRANCH   7  25
TORSDOF 10
ENDMDL