MODEL 4
REMARK VINA RESULT: -7.487841294      2.877      7.999
REMARK  7 active torsions:
REMARK  status: ('A' for Active; 'I' for Inactive)
REMARK    1  A    between atoms: O1_2  and  C2_3
REMARK    2  A    between atoms: C4_5  and  N1_6
REMARK    3  A    between atoms: N1_6  and  C5_8
REMARK    4  A    between atoms: C13_16  and  N2_17
REMARK    5  A    between atoms: N2_17  and  C14_19
REMARK    6  A    between atoms: C14_19  and  C15_20
REMARK    7  A    between atoms: C15_20  and  N3_21
REMARK       I    between atoms: N3_21  and  C16_23
ROOT
HETATM    1  C2  UNL     1     186.628 126.791  30.080  1.00  0.00     0.096 A
HETATM    2  C3  UNL     1     186.283 127.831  29.242  1.00  0.00     0.068 A
HETATM    3  C4  UNL     1     185.900 129.087  29.710  1.00  0.00     0.031 A
HETATM    4  C11 UNL     1     185.870 129.274  31.065  1.00  0.00     0.031 A
HETATM    5  C12 UNL     1     186.217 128.225  31.920  1.00  0.00     0.034 A
HETATM    6  C13 UNL     1     186.593 126.990  31.420  1.00  0.00     0.061 A
ENDROOT
BRANCH   6   7
HETATM    7  N2  UNL     1     186.946 125.937  32.330  1.00  0.00    -0.386 N
ATOM      8  H2  UNL     1     186.362 125.101  32.370  1.00  0.00     0.159 HD
BRANCH   7   9
HETATM    9  C14 UNL     1     188.080 126.025  33.174  1.00  0.00     0.139 C
BRANCH   9  10
HETATM   10  C15 UNL     1     189.136 125.009  33.029  1.00  0.00     0.143 C
BRANCH  10  11
HETATM   11  N3  UNL     1     190.181 124.903  33.975  1.00  0.00    -0.344 N
HETATM   12  C16 UNL     1     191.342 124.139  33.983  1.00  0.00     0.328 C
HETATM   13  N4  UNL     1     192.226 124.259  35.139  1.00  0.00    -0.040 NA
HETATM   14  O2  UNL     1     191.766 123.336  33.132  1.00  0.00    -0.251 OA
ATOM     15  H3  UNL     1     190.061 125.493  34.798  1.00  0.00     0.163 HD
ENDBRANCH  10  11
ENDBRANCH   9  10
ENDBRANCH   7   9
ENDBRANCH   6   7
BRANCH   1  16
HETATM   16  O1  UNL     1     187.007 125.546  29.582  1.00  0.00    -0.354 OA
HETATM   17  C1  UNL     1     185.976 124.659  29.195  1.00  0.00     0.210 C
ENDBRANCH   1  16
BRANCH   3  18
HETATM   18  N1  UNL     1     185.567 130.103  28.800  1.00  0.00    -0.385 N
ATOM     19  H1  UNL     1     185.194 130.965  29.198  1.00  0.00     0.160 HD
BRANCH  18  20
HETATM   20  C5  UNL     1     185.694 130.063  27.358  1.00  0.00     0.081 C
HETATM   21  C6  UNL     1     184.389 129.752  26.722  1.00  0.00     0.025 C
HETATM   22  C7  UNL     1     184.197 130.407  25.378  1.00  0.00     0.002 C
HETATM   23  C8  UNL     1     185.531 130.479  24.696  1.00  0.00     0.000 C
HETATM   24  C9  UNL     1     186.416 131.489  25.402  1.00  0.00     0.002 C
HETATM   25  C10 UNL     1     186.406 131.287  26.894  1.00  0.00     0.025 C
ENDBRANCH  18  20
ENDBRANCH   3  18
TORSDOF 7
ENDMDL