MODEL 2
REMARK VINA RESULT: -8.030971981      2.847      8.634
REMARK  8 active torsions:
REMARK  status: ('A' for Active; 'I' for Inactive)
REMARK    1  A    between atoms: N1_1  and  C1_4
REMARK    2  A    between atoms: C2_7  and  C3_8
REMARK    3  A    between atoms: C3_8  and  C4_9
REMARK    4  A    between atoms: C4_9  and  C5_10
REMARK    5  A    between atoms: C5_10  and  O1_11
REMARK    6  A    between atoms: O1_11  and  C6_12
REMARK    7  A    between atoms: C9_15  and  N3_16
REMARK    8  A    between atoms: N3_16  and  C10_18
ROOT
HETATM    1  O1  UNL     1     186.242 130.437  29.270  1.00  0.00    -0.351 OA
ENDROOT
BRANCH   1   2
HETATM    2  C5  UNL     1     187.236 131.423  29.224  1.00  0.00     0.176 C
BRANCH   2   3
HETATM    3  C4  UNL     1     188.216 131.089  28.128  1.00  0.00     0.034 C
BRANCH   3   4
HETATM    4  C3  UNL     1     188.056 132.004  26.932  1.00  0.00     0.080 C
BRANCH   4   5
HETATM    5  C2  UNL     1     186.678 131.825  26.421  1.00  0.00     0.112 A
HETATM    6  N2  UNL     1     186.119 130.662  26.108  1.00  0.00    -0.178 N
HETATM    7  C1  UNL     1     184.871 130.942  25.689  1.00  0.00     0.691 A
ATOM      8  H2  UNL     1     186.549 129.740  26.172  1.00  0.00     0.185 HD
HETATM    9  N5  UNL     1     184.696 132.271  25.754  1.00  0.00    -0.131 N
HETATM   10  N4  UNL     1     185.811 132.812  26.205  1.00  0.00    -0.274 N
ATOM     11  H5  UNL     1     183.847 132.775  25.499  1.00  0.00     0.205 HD
ATOM     12  H4  UNL     1     185.978 133.806  26.360  1.00  0.00     0.189 HD
BRANCH   7  13
HETATM   13  N1  UNL     1     183.964 130.097  25.281  1.00  0.00    -0.233 N
ATOM     14  H12 UNL     1     184.016 129.087  25.413  1.00  0.00     0.174 HD
ATOM     15  H11 UNL     1     183.097 130.310  24.788  1.00  0.00     0.174 HD
ENDBRANCH   7  13
ENDBRANCH   4   5
ENDBRANCH   3   4
ENDBRANCH   2   3
ENDBRANCH   1   2
BRANCH   1  16
HETATM   16  C6  UNL     1     186.306 129.316  30.086  1.00  0.00     0.068 A
HETATM   17  C7  UNL     1     186.110 129.346  31.446  1.00  0.00     0.039 A
HETATM   18  C8  UNL     1     186.188 128.195  32.200  1.00  0.00     0.032 A
HETATM   19  C9  UNL     1     186.467 126.942  31.639  1.00  0.00     0.032 A
HETATM   20  C16 UNL     1     186.660 126.920  30.281  1.00  0.00     0.032 A
HETATM   21  C17 UNL     1     186.580 128.095  29.515  1.00  0.00     0.039 A
BRANCH  19  22
HETATM   22  N3  UNL     1     186.502 125.794  32.472  1.00  0.00    -0.356 N
ATOM     23  H3  UNL     1     185.965 125.858  33.337  1.00  0.00     0.166 HD
BRANCH  22  24
HETATM   24  C10 UNL     1     187.172 124.595  32.266  1.00  0.00     0.032 A
HETATM   25  C11 UNL     1     186.510 123.490  31.738  1.00  0.00     0.029 A
HETATM   26  C12 UNL     1     187.142 122.282  31.551  1.00  0.00     0.002 A
HETATM   27  C13 UNL     1     188.469 122.115  31.884  1.00  0.00     0.000 A
HETATM   28  C14 UNL     1     189.139 123.193  32.409  1.00  0.00     0.002 A
HETATM   29  C15 UNL     1     188.485 124.411  32.592  1.00  0.00     0.029 A
ENDBRANCH  22  24
ENDBRANCH  19  22
ENDBRANCH   1  16
TORSDOF 8
ENDMDL