MODEL 1
REMARK VINA RESULT: -6.646233438      0.000      0.000
REMARK  9 active torsions:
REMARK  status: ('A' for Active; 'I' for Inactive)
REMARK    1  A    between atoms: N1_1  and  C1_5
REMARK    2  A    between atoms: C1_5  and  C2_6
REMARK    3  A    between atoms: C2_6  and  C3_7
REMARK    4  A    between atoms: C3_7  and  C4_8
REMARK    5  A    between atoms: C9_13  and  S1_14
REMARK    6  A    between atoms: S1_14  and  C10_15
REMARK    7  A    between atoms: C10_15  and  C11_16
REMARK    8  A    between atoms: C11_16  and  N2_17
REMARK    9  A    between atoms: N2_17  and  C12_19
ROOT
HETATM    1  C4  UNL     1     186.770 125.194  31.566  1.00  0.00    -0.041 A
HETATM    2  C5  UNL     1     186.532 124.926  32.917  1.00  0.00     0.008 A
HETATM    3  C6  UNL     1     186.269 126.007  33.734  1.00  0.00     0.001 A
HETATM    4  C7  UNL     1     186.237 127.297  33.258  1.00  0.00     0.001 A
HETATM    5  C8  UNL     1     186.480 127.524  31.906  1.00  0.00     0.019 A
HETATM    6  C9  UNL     1     186.745 126.471  31.082  1.00  0.00     0.006 A
ENDROOT
BRANCH   6   7
HETATM    7  S1  UNL     1     187.149 126.805  29.385  1.00  0.00    -0.128 SA
BRANCH   7   8
HETATM    8  C10 UNL     1     188.863 126.393  29.062  1.00  0.00     0.099 C
BRANCH   8   9
HETATM    9  C11 UNL     1     189.855 127.054  29.994  1.00  0.00     0.130 C
BRANCH   9  10
HETATM   10  N2  UNL     1     190.816 126.084  30.422  1.00  0.00    -0.388 N
ATOM     11  H2  UNL     1     191.727 126.079  29.964  1.00  0.00     0.159 HD
BRANCH  10  12
HETATM   12  C12 UNL     1     190.578 125.126  31.447  1.00  0.00     0.052 A
HETATM   13  C13 UNL     1     190.207 125.464  32.727  1.00  0.00     0.031 A
HETATM   14  C14 UNL     1     190.008 124.512  33.720  1.00  0.00     0.002 A
HETATM   15  C15 UNL     1     190.183 123.178  33.436  1.00  0.00     0.002 A
HETATM   16  C16 UNL     1     190.555 122.816  32.161  1.00  0.00     0.029 A
HETATM   17  C17 UNL     1     190.744 123.782  31.199  1.00  0.00     0.072 A
HETATM   18  N3  UNL     1     191.128 123.392  29.876  1.00  0.00    -0.100 NA
ENDBRANCH  10  12
ENDBRANCH   9  10
ENDBRANCH   8   9
ENDBRANCH   7   8
ENDBRANCH   6   7
BRANCH   1  19
HETATM   19  C3  UNL     1     186.906 124.007  30.695  1.00  0.00     0.041 C
BRANCH  19  20
HETATM   20  C2  UNL     1     186.639 122.745  31.444  1.00  0.00     0.032 C
BRANCH  20  21
HETATM   21  C1  UNL     1     185.570 121.872  30.891  1.00  0.00     0.230 C
BRANCH  21  22
HETATM   22  N1  UNL     1     184.462 121.886  31.874  1.00  0.00    -0.079 N
ATOM     23  H13 UNL     1     183.628 122.366  31.534  1.00  0.00     0.274 HD
ATOM     24  H12 UNL     1     184.035 120.971  32.013  1.00  0.00     0.274 HD
ATOM     25  H11 UNL     1     184.839 122.291  32.731  1.00  0.00     0.274 HD
ENDBRANCH  21  22
ENDBRANCH  20  21
ENDBRANCH  19  20
ENDBRANCH   1  19
TORSDOF 9
ENDMDL