MODEL 1
REMARK VINA RESULT: -7.813156505      0.000      0.000
REMARK  8 active torsions:
REMARK  status: ('A' for Active; 'I' for Inactive)
REMARK       I    between atoms: C1_4  and  N3_6
REMARK    1  A    between atoms: N3_6  and  C2_8
REMARK    2  A    between atoms: C4_10  and  C5_11
REMARK    3  A    between atoms: C5_11  and  C6_12
REMARK    4  A    between atoms: C6_12  and  N4_13
REMARK    5  A    between atoms: N4_13  and  C7_16
REMARK    6  A    between atoms: C7_16  and  C8_17
REMARK    7  A    between atoms: C13_22  and  N5_23
REMARK    8  A    between atoms: N5_23  and  O1_25
ROOT
HETATM    1  C6  UNL     1     187.879 128.414  28.996  1.00  0.00     0.236 C
ENDROOT
BRANCH   1   2
HETATM    2  C5  UNL     1     186.543 127.762  29.261  1.00  0.00     0.061 C
BRANCH   2   3
HETATM    3  C4  UNL     1     186.534 127.130  30.595  1.00  0.00    -0.080 C
HETATM    4  C3  UNL     1     186.781 125.837  30.680  1.00  0.00     0.001 C
HETATM    5  C2  UNL     1     186.803 125.089  31.941  1.00  0.00     0.107 C
HETATM    6  C16 UNL     1     186.976 125.965  33.157  1.00  0.00     0.029 C
HETATM    7  C15 UNL     1     186.182 127.235  33.077  1.00  0.00     0.007 C
HETATM    8  C14 UNL     1     186.257 127.935  31.774  1.00  0.00     0.034 C
BRANCH   5   9
HETATM    9  N3  UNL     1     187.903 124.155  31.924  1.00  0.00    -0.357 N
HETATM   10  C1  UNL     1     187.715 122.759  31.769  1.00  0.00     0.182 C
HETATM   11  N1  UNL     1     188.547 121.913  32.316  1.00  0.00    -0.374 N
HETATM   12  N2  UNL     1     186.648 122.198  31.033  1.00  0.00    -0.064 NA
ATOM     13  H12 UNL     1     188.411 120.908  32.204  1.00  0.00     0.158 HD
ATOM     14  H11 UNL     1     189.318 122.318  32.847  1.00  0.00     0.158 HD
ATOM     15  H3  UNL     1     188.853 124.513  32.029  1.00  0.00     0.162 HD
ENDBRANCH   5   9
ENDBRANCH   2   3
ENDBRANCH   1   2
BRANCH   1  16
HETATM   16  N4  UNL     1     187.727 129.774  28.512  1.00  0.00    -0.074 N
ATOM     17  H42 UNL     1     186.754 130.066  28.424  1.00  0.00     0.277 HD
ATOM     18  H41 UNL     1     188.009 130.480  29.193  1.00  0.00     0.277 HD
BRANCH  16  19
HETATM   19  C7  UNL     1     188.466 129.850  27.268  1.00  0.00     0.239 C
BRANCH  19  20
HETATM   20  C8  UNL     1     187.688 130.631  26.209  1.00  0.00     0.036 C
HETATM   21  C9  UNL     1     187.027 131.780  26.906  1.00  0.00     0.008 C
HETATM   22  C10 UNL     1     185.875 132.375  26.160  1.00  0.00     0.001 C
HETATM   23  C11 UNL     1     185.012 131.387  25.456  1.00  0.00     0.002 C
HETATM   24  C12 UNL     1     185.837 130.402  24.642  1.00  0.00     0.027 C
HETATM   25  C13 UNL     1     186.689 129.653  25.629  1.00  0.00     0.111 C
BRANCH  25  26
HETATM   26  N5  UNL     1     187.333 128.519  25.102  1.00  0.00    -0.300 N
ATOM     27  H5  UNL     1     187.523 127.757  25.752  1.00  0.00     0.187 HD
BRANCH  26  28
HETATM   28  O1  UNL     1     187.678 128.359  23.979  1.00  0.00    -0.294 OA
ATOM     29  H1  UNL     1     187.242 127.829  23.321  1.00  0.00     0.244 HD
ENDBRANCH  26  28
ENDBRANCH  25  26
ENDBRANCH  19  20
ENDBRANCH  16  19
ENDBRANCH   1  16
TORSDOF 8
ENDMDL