MODEL 1
REMARK VINA RESULT: -7.677721857      0.000      0.000
REMARK  9 active torsions:
REMARK  status: ('A' for Active; 'I' for Inactive)
REMARK    1  A    between atoms: C2_2  and  C3_3
REMARK    2  A    between atoms: C3_3  and  C4_4
REMARK    3  A    between atoms: C4_4  and  O1_5
REMARK    4  A    between atoms: O1_5  and  C5_6
REMARK    5  A    between atoms: C5_6  and  C6_7
REMARK    6  A    between atoms: C6_7  and  C7_8
REMARK    7  A    between atoms: C7_8  and  N1_9
REMARK    8  A    between atoms: N1_9  and  C8_11
REMARK    9  A    between atoms: C9_14  and  N3_15
ROOT
HETATM    1  C8  UNL     1     194.247 125.188  32.048  1.00  0.00     0.146 A
HETATM    2  N2  UNL     1     194.957 125.127  30.893  1.00  0.00    -0.175 N
ATOM      3  H2  UNL     1     195.825 125.660  30.834  1.00  0.00     0.186 HD
HETATM    4  C9  UNL     1     194.585 124.405  29.823  1.00  0.00     0.678 A
HETATM    5  N4  UNL     1     193.431 123.709  29.927  1.00  0.00    -0.189 N
ATOM      6  H4  UNL     1     193.121 123.152  29.129  1.00  0.00     0.184 HD
HETATM    7  C10 UNL     1     192.673 123.722  31.039  1.00  0.00     0.092 A
HETATM    8  C11 UNL     1     193.073 124.469  32.128  1.00  0.00     0.106 A
HETATM    9  N5  UNL     1     192.159 124.325  33.116  1.00  0.00    -0.351 N
ATOM     10  H5  UNL     1     192.214 124.773  34.031  1.00  0.00     0.166 HD
HETATM   11  C12 UNL     1     191.164 123.505  32.716  1.00  0.00     0.045 A
HETATM   12  C13 UNL     1     190.026 123.058  33.353  1.00  0.00     0.030 A
HETATM   13  C14 UNL     1     189.190 122.209  32.661  1.00  0.00     0.002 A
HETATM   14  C15 UNL     1     189.494 121.816  31.353  1.00  0.00     0.001 A
HETATM   15  C16 UNL     1     190.649 122.287  30.746  1.00  0.00     0.016 A
HETATM   16  C17 UNL     1     191.486 123.131  31.423  1.00  0.00     0.020 A
ENDROOT
BRANCH   1  17
HETATM   17  N1  UNL     1     194.681 125.963  33.151  1.00  0.00    -0.374 N
ATOM     18  H1  UNL     1     194.166 125.898  34.028  1.00  0.00     0.161 HD
BRANCH  17  19
HETATM   19  C7  UNL     1     195.827 126.844  33.084  1.00  0.00     0.123 C
BRANCH  19  20
HETATM   20  C6  UNL     1     197.035 126.258  33.769  1.00  0.00     0.046 C
BRANCH  20  21
HETATM   21  C5  UNL     1     197.955 125.559  32.780  1.00  0.00     0.169 C
BRANCH  21  22
HETATM   22  O1  UNL     1     198.513 124.459  33.407  1.00  0.00    -0.391 OA
BRANCH  22  23
HETATM   23  C4  UNL     1     198.486 124.632  34.773  1.00  0.00     0.167 C
BRANCH  23  24
HETATM   24  C3  UNL     1     198.920 123.423  35.527  1.00  0.00     0.026 C
BRANCH  24  25
HETATM   25  C2  UNL     1     199.304 123.833  36.946  1.00  0.00    -0.002 C
HETATM   26  C1  UNL     1     199.226 125.322  37.144  1.00  0.00     0.005 C
ENDBRANCH  24  25
ENDBRANCH  23  24
ENDBRANCH  22  23
ENDBRANCH  21  22
ENDBRANCH  20  21
ENDBRANCH  19  20
ENDBRANCH  17  19
ENDBRANCH   1  17
BRANCH   4  27
HETATM   27  N3  UNL     1     195.297 124.373  28.732  1.00  0.00    -0.234 N
ATOM     28  H32 UNL     1     194.855 124.412  27.813  1.00  0.00     0.174 HD
ATOM     29  H31 UNL     1     196.314 124.310  28.753  1.00  0.00     0.174 HD
ENDBRANCH   4  27
TORSDOF 9
ENDMDL