MODEL 3
REMARK VINA RESULT: -6.467198346      3.411      6.699
REMARK  9 active torsions:
REMARK  status: ('A' for Active; 'I' for Inactive)
REMARK    1  A    between atoms: N1_1  and  C1_5
REMARK    2  A    between atoms: C1_5  and  C2_6
REMARK    3  A    between atoms: C2_6  and  C3_7
REMARK    4  A    between atoms: C3_7  and  C4_8
REMARK    5  A    between atoms: C4_8  and  C5_9
REMARK    6  A    between atoms: C5_9  and  C6_10
REMARK    7  A    between atoms: C6_10  and  C7_11
REMARK    8  A    between atoms: C7_11  and  C8_12
REMARK    9  A    between atoms: C10_19  and  C11_20
ROOT
HETATM    1  C8  UNL     1     188.198 122.776  31.864  1.00  0.00     0.039 A
HETATM    2  N2  UNL     1     187.089 121.992  31.703  1.00  0.00    -0.335 N
ATOM      3  H2  UNL     1     187.073 120.975  31.790  1.00  0.00     0.168 HD
HETATM    4  C9  UNL     1     186.047 122.739  31.421  1.00  0.00     0.176 A
HETATM    5  S1  UNL     1     184.527 122.184  31.154  1.00  0.00    -0.041 SA
HETATM    6  N3  UNL     1     186.455 124.023  31.391  1.00  0.00    -0.331 N
ATOM      7  H3  UNL     1     185.861 124.829  31.197  1.00  0.00     0.168 HD
HETATM    8  C10 UNL     1     187.789 124.071  31.664  1.00  0.00     0.069 A
ENDROOT
BRANCH   1   9
HETATM    9  C7  UNL     1     189.493 122.217  32.213  1.00  0.00     0.059 C
BRANCH   9  10
HETATM   10  C6  UNL     1     190.354 121.834  31.038  1.00  0.00     0.006 C
BRANCH  10  11
HETATM   11  C5  UNL     1     191.086 122.973  30.406  1.00  0.00     0.000 C
BRANCH  11  12
HETATM   12  C4  UNL     1     192.371 123.352  31.064  1.00  0.00     0.000 C
BRANCH  12  13
HETATM   13  C3  UNL     1     192.386 124.823  31.463  1.00  0.00     0.002 C
BRANCH  13  14
HETATM   14  C2  UNL     1     192.985 124.975  32.852  1.00  0.00     0.027 C
BRANCH  14  15
HETATM   15  C1  UNL     1     192.297 124.076  33.824  1.00  0.00     0.229 C
BRANCH  15  16
HETATM   16  N1  UNL     1     192.299 124.559  35.174  1.00  0.00    -0.079 N
ATOM     17  H13 UNL     1     191.856 125.476  35.226  1.00  0.00     0.274 HD
ATOM     18  H12 UNL     1     191.651 124.019  35.747  1.00  0.00     0.274 HD
ATOM     19  H11 UNL     1     193.223 124.584  35.607  1.00  0.00     0.274 HD
ENDBRANCH  15  16
ENDBRANCH  14  15
ENDBRANCH  13  14
ENDBRANCH  12  13
ENDBRANCH  11  12
ENDBRANCH  10  11
ENDBRANCH   9  10
ENDBRANCH   1   9
BRANCH   8  20
HETATM   20  C11 UNL     1     188.542 125.335  31.792  1.00  0.00     0.019 A
HETATM   21  C12 UNL     1     189.094 125.745  33.012  1.00  0.00     0.032 A
HETATM   22  C13 UNL     1     189.720 126.976  33.066  1.00  0.00     0.088 A
HETATM   23  N4  UNL     1     189.816 127.784  31.997  1.00  0.00    -0.373 N
HETATM   24  C14 UNL     1     189.283 127.378  30.837  1.00  0.00     0.115 A
ATOM     25  H4  UNL     1     190.284 128.688  32.067  1.00  0.00     0.164 HD
HETATM   26  C15 UNL     1     188.629 126.148  30.689  1.00  0.00     0.074 A
HETATM   27  N5  UNL     1     188.071 125.838  29.437  1.00  0.00    -0.100 NA
ENDBRANCH   8  20
TORSDOF 9
ENDMDL