MODEL 3
REMARK VINA RESULT: -6.964528339      3.620      5.488
REMARK  9 active torsions:
REMARK  status: ('A' for Active; 'I' for Inactive)
REMARK    1  A    between atoms: N1_1  and  C1_5
REMARK    2  A    between atoms: C1_5  and  C2_6
REMARK    3  A    between atoms: C2_6  and  C3_7
REMARK    4  A    between atoms: C3_7  and  N2_8
REMARK    5  A    between atoms: N2_8  and  C4_11
REMARK    6  A    between atoms: C4_11  and  C5_12
REMARK    7  A    between atoms: C5_12  and  C6_13
REMARK    8  A    between atoms: C6_13  and  N3_14
REMARK    9  A    between atoms: N3_14  and  C7_16
ROOT
HETATM    1  C7  UNL     1     188.085 125.132  31.225  1.00  0.00     0.068 A
HETATM    2  C8  UNL     1     187.225 124.135  30.862  1.00  0.00     0.003 A
HETATM    3  C9  UNL     1     186.218 124.420  29.976  1.00  0.00     0.014 A
HETATM    4  C10 UNL     1     185.335 123.450  29.587  1.00  0.00     0.001 A
HETATM    5  C11 UNL     1     185.480 122.165  30.107  1.00  0.00     0.001 A
HETATM    6  C12 UNL     1     186.479 121.852  30.996  1.00  0.00     0.012 A
HETATM    7  C13 UNL     1     187.360 122.836  31.378  1.00  0.00    -0.021 A
HETATM    8  C14 UNL     1     188.371 122.542  32.269  1.00  0.00     0.044 A
HETATM    9  C15 UNL     1     189.237 123.549  32.636  1.00  0.00     0.063 A
HETATM   10  N4  UNL     1     190.298 123.599  33.457  1.00  0.00    -0.350 N
ATOM     11  H4  UNL     1     190.674 122.821  34.000  1.00  0.00     0.166 HD
HETATM   12  C16 UNL     1     190.778 124.854  33.438  1.00  0.00     0.181 A
HETATM   13  N5  UNL     1     190.045 125.616  32.620  1.00  0.00    -0.349 N
ATOM     14  H5  UNL     1     190.187 126.606  32.418  1.00  0.00     0.167 HD
HETATM   15  C17 UNL     1     189.093 124.828  32.118  1.00  0.00     0.087 A
ENDROOT
BRANCH   1  16
HETATM   16  N3  UNL     1     187.952 126.439  30.693  1.00  0.00    -0.387 N
ATOM     17  H3  UNL     1     188.357 126.642  29.778  1.00  0.00     0.159 HD
BRANCH  16  18
HETATM   18  C6  UNL     1     187.261 127.497  31.403  1.00  0.00     0.121 C
BRANCH  18  19
HETATM   19  C5  UNL     1     186.222 128.118  30.499  1.00  0.00     0.047 C
BRANCH  19  20
HETATM   20  C4  UNL     1     185.917 129.526  30.956  1.00  0.00     0.234 C
BRANCH  20  21
HETATM   21  N2  UNL     1     185.792 130.468  29.866  1.00  0.00    -0.075 N
ATOM     22  H22 UNL     1     185.931 131.427  30.184  1.00  0.00     0.277 HD
ATOM     23  H21 UNL     1     184.826 130.545  29.549  1.00  0.00     0.277 HD
BRANCH  21  24
HETATM   24  C3  UNL     1     186.683 130.141  28.770  1.00  0.00     0.233 C
BRANCH  24  25
HETATM   25  C2  UNL     1     185.998 130.475  27.468  1.00  0.00     0.055 C
BRANCH  25  26
HETATM   26  C1  UNL     1     184.630 129.828  27.365  1.00  0.00     0.231 C
BRANCH  26  27
HETATM   27  N1  UNL     1     183.575 130.755  27.084  1.00  0.00    -0.079 N
ATOM     28  H13 UNL     1     182.857 130.714  27.807  1.00  0.00     0.274 HD
ATOM     29  H12 UNL     1     183.895 131.715  27.215  1.00  0.00     0.274 HD
ATOM     30  H11 UNL     1     183.162 130.636  26.159  1.00  0.00     0.274 HD
ENDBRANCH  26  27
ENDBRANCH  25  26
ENDBRANCH  24  25
ENDBRANCH  21  24
ENDBRANCH  20  21
ENDBRANCH  19  20
ENDBRANCH  18  19
ENDBRANCH  16  18
ENDBRANCH   1  16
TORSDOF 9
ENDMDL