MODEL 4
REMARK VINA RESULT: -8.682867968      3.262      9.112
REMARK  11 active torsions:
REMARK  status: ('A' for Active; 'I' for Inactive)
REMARK    1  A    between atoms: C2_2  and  N1_3
REMARK    2  A    between atoms: C2_2  and  C16_24
REMARK    3  A    between atoms: N1_3  and  C3_5
REMARK    4  A    between atoms: C3_5  and  C4_6
REMARK    5  A    between atoms: C3_5  and  C8_14
REMARK    6  A    between atoms: C4_6  and  C5_7
REMARK       I    between atoms: C8_14  and  N4_16
REMARK    7  A    between atoms: N4_16  and  C10_18
REMARK    8  A    between atoms: C16_24  and  N5_25
REMARK    9  A    between atoms: C16_24  and  C28_43
REMARK       I    between atoms: N5_25  and  C17_27
REMARK   10  A    between atoms: C17_27  and  C18_29
REMARK   11  A    between atoms: C18_29  and  N6_30
ROOT
HETATM    1  C16 UNL     1     -10.074  15.300  26.931  1.00  0.00     0.110 C
ENDROOT
BRANCH   1   2
HETATM    2  C2  UNL     1      -8.897  14.490  27.473  1.00  0.00     0.096 C
HETATM    3  C1  UNL     1      -7.678  14.553  26.615  1.00  0.00     0.034 C
BRANCH   2   4
HETATM    4  N1  UNL     1      -8.588  14.891  28.810  1.00  0.00    -0.403 N
ATOM      5  H1  UNL     1      -8.470  14.216  29.566  1.00  0.00     0.154 HD
BRANCH   4   6
HETATM    6  C3  UNL     1      -8.455  16.301  29.018  1.00  0.00     0.175 C
BRANCH   6   7
HETATM    7  C4  UNL     1      -7.003  16.738  28.977  1.00  0.00     0.093 C
BRANCH   7   8
HETATM    8  C5  UNL     1      -6.818  17.879  28.036  1.00  0.00     0.028 A
HETATM    9  C6  UNL     1      -5.834  17.965  27.079  1.00  0.00     0.114 A
HETATM   10  N2  UNL     1      -6.001  19.147  26.433  1.00  0.00    -0.360 N
HETATM   11  C7  UNL     1      -7.051  19.789  26.958  1.00  0.00     0.180 A
ATOM     12  H2  UNL     1      -5.419  19.491  25.670  1.00  0.00     0.166 HD
HETATM   13  N3  UNL     1      -7.541  19.005  27.935  1.00  0.00    -0.354 N
ATOM     14  H3  UNL     1      -8.347  19.235  28.517  1.00  0.00     0.166 HD
ENDBRANCH   7   8
ENDBRANCH   6   7
BRANCH   6  15
HETATM   15  C8  UNL     1      -9.142  16.714  30.281  1.00  0.00     0.242 C
HETATM   16  O1  UNL     1      -9.573  17.931  30.338  1.00  0.00    -0.271 OA
HETATM   17  N4  UNL     1      -9.378  15.949  31.419  1.00  0.00    -0.350 N
HETATM   18  C9  UNL     1      -8.939  14.587  31.549  1.00  0.00     0.153 C
BRANCH  17  19
HETATM   19  C10 UNL     1     -10.095  16.498  32.573  1.00  0.00     0.086 C
HETATM   20  C11 UNL     1     -10.904  15.375  33.175  1.00  0.00     0.025 C
HETATM   21  C12 UNL     1     -11.702  15.779  34.372  1.00  0.00     0.002 C
HETATM   22  C13 UNL     1     -10.826  16.568  35.310  1.00  0.00     0.000 C
HETATM   23  C14 UNL     1      -9.390  16.413  34.913  1.00  0.00     0.002 C
HETATM   24  C15 UNL     1      -9.187  17.118  33.582  1.00  0.00     0.025 C
ENDBRANCH  17  19
ENDBRANCH   6  15
ENDBRANCH   4   6
ENDBRANCH   2   4
ENDBRANCH   1   2
BRANCH   1  25
HETATM   25  N5  UNL     1     -10.030  15.401  25.500  1.00  0.00    -0.352 N
HETATM   26  C17 UNL     1      -9.572  16.542  24.786  1.00  0.00     0.255 C
HETATM   27  O2  UNL     1      -9.184  17.520  25.481  1.00  0.00    -0.271 OA
ATOM     28  H5  UNL     1     -10.351  14.599  24.958  1.00  0.00     0.163 HD
BRANCH  26  29
HETATM   29  C18 UNL     1      -9.548  16.592  23.323  1.00  0.00     0.210 C
HETATM   30  C19 UNL     1      -8.627  17.673  22.794  1.00  0.00     0.032 C
HETATM   31  C20 UNL     1      -8.963  17.877  21.348  1.00  0.00     0.012 C
HETATM   32  C24 UNL     1      -7.179  17.339  22.934  1.00  0.00     0.012 C
HETATM   33  C21 UNL     1      -8.676  16.595  20.601  1.00  0.00    -0.013 C
HETATM   34  C22 UNL     1      -7.192  16.279  20.709  1.00  0.00     0.009 C
HETATM   35  C27 UNL     1      -9.509  15.466  21.155  1.00  0.00     0.012 C
HETATM   36  C23 UNL     1      -6.868  16.071  22.157  1.00  0.00    -0.013 C
HETATM   37  C25 UNL     1      -7.724  14.972  22.724  1.00  0.00     0.012 C
HETATM   38  C26 UNL     1      -9.198  15.309  22.646  1.00  0.00     0.032 C
BRANCH  29  39
HETATM   39  N6  UNL     1     -10.891  16.983  22.863  1.00  0.00    -0.061 N
ATOM     40  H63 UNL     1     -10.961  17.041  21.847  1.00  0.00     0.275 HD
ATOM     41  H62 UNL     1     -11.587  16.250  23.005  1.00  0.00     0.275 HD
ATOM     42  H61 UNL     1     -11.137  17.858  23.327  1.00  0.00     0.275 HD
ENDBRANCH  29  39
ENDBRANCH  26  29
ENDBRANCH   1  25
BRANCH   1  43
HETATM   43  C28 UNL     1     -11.397  14.956  27.476  1.00  0.00     0.010 C
HETATM   44  C29 UNL     1     -12.073  16.090  28.222  1.00  0.00     0.007 C
HETATM   45  C30 UNL     1     -13.536  15.656  28.416  1.00  0.00     0.000 C
HETATM   46  C31 UNL     1     -13.501  14.477  29.362  1.00  0.00     0.000 C
HETATM   47  C32 UNL     1     -12.898  13.307  28.578  1.00  0.00     0.000 C
HETATM   48  C33 UNL     1     -11.456  13.668  28.214  1.00  0.00     0.007 C
ENDBRANCH   1  43
TORSDOF 11
ENDMDL