MODEL 5
REMARK VINA RESULT: -9.285059131      1.178      1.863
REMARK  11 active torsions:
REMARK  status: ('A' for Active; 'I' for Inactive)
REMARK    1  A    between atoms: C2_2  and  N1_3
REMARK       I    between atoms: N1_3  and  C3_5
REMARK    2  A    between atoms: C3_5  and  C4_7
REMARK    3  A    between atoms: C6_9  and  C7_10
REMARK       I    between atoms: C7_10  and  N2_12
REMARK    4  A    between atoms: N2_12  and  C8_14
REMARK    5  A    between atoms: C8_14  and  C9_15
REMARK    6  A    between atoms: C8_14  and  C16_22
REMARK    7  A    between atoms: C9_15  and  C10_16
REMARK    8  A    between atoms: C16_22  and  O3_23
REMARK    9  A    between atoms: C16_22  and  C17_25
REMARK   10  A    between atoms: C25_36  and  C26_37
REMARK   11  A    between atoms: C26_37  and  C27_38
ROOT
HETATM    1  C4  UNL     1     -11.905  12.853  30.129  1.00  0.00     0.179 C
HETATM    2  C5  UNL     1     -11.589  13.521  28.841  1.00  0.00     0.077 C
HETATM    3  C6  UNL     1     -10.696  14.693  28.847  1.00  0.00     0.280 C
HETATM    4  N3  UNL     1      -9.971  14.990  30.028  1.00  0.00    -0.049 N
ATOM      5  H31 UNL     1      -9.060  15.395  29.815  1.00  0.00     0.279 HD
ATOM      6  H32 UNL     1      -9.660  14.142  30.499  1.00  0.00     0.279 HD
HETATM    7  C25 UNL     1     -10.739  15.845  30.919  1.00  0.00     0.278 C
HETATM    8  C33 UNL     1     -11.920  15.138  31.397  1.00  0.00     0.249 C
HETATM    9  O4  UNL     1     -12.746  15.789  32.059  1.00  0.00    -0.271 OA
HETATM   10  N4  UNL     1     -12.262  13.782  31.207  1.00  0.00    -0.346 N
ATOM     11  H4  UNL     1     -12.852  13.383  31.937  1.00  0.00     0.163 HD
ENDROOT
BRANCH   3  12
HETATM   12  C7  UNL     1      -9.727  14.703  27.713  1.00  0.00     0.249 C
HETATM   13  O2  UNL     1      -8.673  13.975  27.800  1.00  0.00    -0.271 OA
HETATM   14  N2  UNL     1      -9.890  15.456  26.551  1.00  0.00    -0.352 N
ATOM     15  H2  UNL     1     -10.715  16.045  26.437  1.00  0.00     0.163 HD
BRANCH  14  16
HETATM   16  C8  UNL     1      -8.834  15.398  25.449  1.00  0.00     0.114 C
BRANCH  16  17
HETATM   17  C9  UNL     1      -7.558  15.752  26.073  1.00  0.00     0.032 C
BRANCH  17  18
HETATM   18  C10 UNL     1      -7.314  17.176  26.348  1.00  0.00    -0.013 C
HETATM   19  C11 UNL     1      -7.497  17.522  27.830  1.00  0.00     0.005 C
HETATM   20  C12 UNL     1      -6.505  16.833  28.715  1.00  0.00     0.000 C
HETATM   21  C13 UNL     1      -5.128  17.344  28.345  1.00  0.00     0.000 C
HETATM   22  C14 UNL     1      -4.858  16.931  26.914  1.00  0.00     0.000 C
HETATM   23  C15 UNL     1      -5.857  17.561  26.007  1.00  0.00     0.005 C
ENDBRANCH  17  18
ENDBRANCH  16  17
BRANCH  16  24
HETATM   24  C16 UNL     1      -9.391  16.155  24.325  1.00  0.00     0.149 C
BRANCH  24  25
HETATM   25  O3  UNL     1     -10.615  16.524  24.595  1.00  0.00    -0.393 OA
ATOM     26  H3  UNL     1     -11.132  16.549  23.799  1.00  0.00     0.210 HD
ENDBRANCH  24  25
BRANCH  24  27
HETATM   27  C17 UNL     1      -9.053  16.642  23.018  1.00  0.00    -0.016 C
HETATM   28  C18 UNL     1      -8.250  17.913  23.122  1.00  0.00     0.018 C
HETATM   29  C19 UNL     1      -8.035  15.607  22.427  1.00  0.00     0.012 C
HETATM   30  C20 UNL     1      -6.988  16.159  21.561  1.00  0.00     0.001 C
HETATM   31  C21 UNL     1      -7.350  16.600  20.191  1.00  0.00     0.000 C
HETATM   32  C22 UNL     1      -8.805  16.567  19.843  1.00  0.00     0.000 C
HETATM   33  C23 UNL     1      -9.669  17.414  20.746  1.00  0.00     0.001 C
HETATM   34  C24 UNL     1     -10.127  16.666  21.969  1.00  0.00     0.012 C
ENDBRANCH  24  27
ENDBRANCH  16  24
ENDBRANCH  14  16
ENDBRANCH   3  12
BRANCH   1  35
HETATM   35  C3  UNL     1     -13.100  12.004  29.903  1.00  0.00     0.240 C
HETATM   36  N1  UNL     1     -13.811  11.371  30.956  1.00  0.00    -0.360 N
ATOM     37  H1  UNL     1     -13.499  11.499  31.918  1.00  0.00     0.162 HD
HETATM   38  O1  UNL     1     -13.496  11.840  28.726  1.00  0.00    -0.271 OA
BRANCH  36  39
HETATM   39  C2  UNL     1     -14.960  10.553  30.691  1.00  0.00     0.118 C
HETATM   40  C1  UNL     1     -15.003   9.281  31.521  1.00  0.00     0.026 C
ENDBRANCH  36  39
ENDBRANCH   1  35
BRANCH   7  41
HETATM   41  C26 UNL     1      -9.777  16.257  31.993  1.00  0.00     0.047 C
BRANCH  41  42
HETATM   42  C27 UNL     1     -10.274  16.264  33.383  1.00  0.00    -0.012 C
HETATM   43  C28 UNL     1      -9.985  14.861  33.944  1.00  0.00     0.005 C
HETATM   44  C29 UNL     1     -10.947  14.642  35.112  1.00  0.00     0.000 C
HETATM   45  C30 UNL     1     -10.927  15.929  35.910  1.00  0.00     0.000 C
HETATM   46  C31 UNL     1      -9.585  16.644  35.710  1.00  0.00     0.000 C
HETATM   47  C32 UNL     1      -9.497  17.211  34.303  1.00  0.00     0.005 C
ENDBRANCH  41  42
ENDBRANCH   7  41
TORSDOF 11
ENDMDL