MODEL 1
REMARK VINA RESULT: -7.690477947      0.000      0.000
REMARK  13 active torsions:
REMARK  status: ('A' for Active; 'I' for Inactive)
REMARK    1  A    between atoms: C2_2  and  C3_3
REMARK    2  A    between atoms: C3_3  and  C5_5
REMARK    3  A    between atoms: C5_5  and  N1_6
REMARK    4  A    between atoms: C5_5  and  C32_41
REMARK       I    between atoms: N1_6  and  C6_8
REMARK    5  A    between atoms: C6_8  and  C7_10
REMARK    6  A    between atoms: C7_10  and  C8_11
REMARK    7  A    between atoms: C7_10  and  N2_15
REMARK    8  A    between atoms: C8_11  and  C9_12
REMARK       I    between atoms: N2_15  and  C12_17
REMARK    9  A    between atoms: C12_17  and  C13_19
REMARK   10  A    between atoms: N3_23  and  C18_25
REMARK   11  A    between atoms: C18_25  and  C19_26
REMARK   12  A    between atoms: C19_26  and  O3_27
REMARK   13  A    between atoms: C19_26  and  C20_29
ROOT
HETATM    1  C13 UNL     1      -9.891  16.026  26.549  1.00  0.00     0.027 C
HETATM    2  C14 UNL     1      -9.013  14.886  26.967  1.00  0.00     0.078 C
HETATM    3  C15 UNL     1      -9.267  14.658  28.460  1.00  0.00    -0.052 C
HETATM    4  C16 UNL     1     -10.529  14.589  28.799  1.00  0.00     0.206 C
HETATM    5  N3  UNL     1     -11.533  14.734  27.787  1.00  0.00    -0.037 N
HETATM    6  C17 UNL     1     -11.606  13.666  26.813  1.00  0.00     0.279 C
HETATM    7  C24 UNL     1     -11.314  15.972  27.140  1.00  0.00     0.253 C
HETATM    8  C25 UNL     1     -11.509  17.285  27.689  1.00  0.00     0.011 C
HETATM    9  C26 UNL     1     -11.847  17.776  28.990  1.00  0.00    -0.006 C
HETATM   10  C27 UNL     1     -10.967  17.668  30.180  1.00  0.00    -0.027 C
HETATM   11  C28 UNL     1      -9.509  17.689  30.113  1.00  0.00     0.027 C
HETATM   12  C29 UNL     1      -8.750  16.538  30.726  1.00  0.00     0.004 C
HETATM   13  C30 UNL     1      -7.657  15.942  29.900  1.00  0.00     0.005 C
HETATM   14  C31 UNL     1      -8.013  14.628  29.236  1.00  0.00     0.036 C
ENDROOT
BRANCH   1  15
HETATM   15  C12 UNL     1      -9.762  16.531  25.215  1.00  0.00     0.250 C
HETATM   16  N2  UNL     1      -8.553  16.773  24.551  1.00  0.00    -0.322 N
ATOM     17  H2  UNL     1      -7.694  16.582  25.068  1.00  0.00     0.169 HD
HETATM   18  O2  UNL     1     -10.799  16.805  24.509  1.00  0.00    -0.268 OA
BRANCH  16  19
HETATM   19  C7  UNL     1      -8.409  17.266  23.210  1.00  0.00     0.080 C
BRANCH  19  20
HETATM   20  C6  UNL     1      -7.294  18.186  23.100  1.00  0.00     0.264 C
HETATM   21  N1  UNL     1      -5.988  17.983  23.509  1.00  0.00    -0.341 N
ATOM     22  H1  UNL     1      -5.729  17.100  23.949  1.00  0.00     0.163 HD
HETATM   23  O1  UNL     1      -7.561  19.326  22.564  1.00  0.00    -0.266 OA
BRANCH  21  24
HETATM   24  C5  UNL     1      -4.959  19.036  23.316  1.00  0.00     0.189 C
BRANCH  24  25
HETATM   25  C3  UNL     1      -4.329  19.267  24.631  1.00  0.00     0.014 C
HETATM   26  C4  UNL     1      -5.247  20.018  25.551  1.00  0.00     0.012 C
BRANCH  25  27
HETATM   27  C2  UNL     1      -3.553  18.193  25.283  1.00  0.00     0.002 C
HETATM   28  C1  UNL     1      -4.207  17.469  26.408  1.00  0.00     0.005 C
ENDBRANCH  25  27
ENDBRANCH  24  25
BRANCH  24  29
HETATM   29  C32 UNL     1      -4.109  18.661  22.189  1.00  0.00     0.197 C
HETATM   30  O4  UNL     1      -3.106  19.384  21.915  1.00  0.00    -0.646 OA
HETATM   31  O5  UNL     1      -4.294  17.566  21.377  1.00  0.00    -0.646 OA
ENDBRANCH  24  29
ENDBRANCH  21  24
ENDBRANCH  19  20
BRANCH  19  32
HETATM   32  C8  UNL     1      -8.600  16.336  22.093  1.00  0.00     0.067 C
BRANCH  32  33
HETATM   33  C9  UNL     1      -8.714  17.046  20.765  1.00  0.00    -0.017 C
HETATM   34  C10 UNL     1      -7.543  16.711  19.860  1.00  0.00     0.010 C
HETATM   35  C11 UNL     1      -9.965  16.503  20.016  1.00  0.00     0.010 C
ENDBRANCH  32  33
ENDBRANCH  19  32
ENDBRANCH  16  19
ENDBRANCH   1  15
BRANCH   5  36
HETATM   36  C18 UNL     1     -12.792  14.583  28.485  1.00  0.00     0.276 C
BRANCH  36  37
HETATM   37  C19 UNL     1     -12.815  13.564  29.581  1.00  0.00     0.152 C
BRANCH  37  38
HETATM   38  O3  UNL     1     -13.348  12.340  29.319  1.00  0.00    -0.393 OA
ATOM     39  H3  UNL     1     -12.835  11.568  29.525  1.00  0.00     0.210 HD
ENDBRANCH  37  38
BRANCH  37  40
HETATM   40  C20 UNL     1     -13.791  14.155  30.648  1.00  0.00    -0.024 C
HETATM   41  C21 UNL     1     -14.551  12.992  31.240  1.00  0.00     0.017 C
HETATM   42  C22 UNL     1     -13.051  14.905  31.698  1.00  0.00     0.017 C
HETATM   43  C23 UNL     1     -14.800  15.049  29.962  1.00  0.00     0.017 C
ENDBRANCH  37  40
ENDBRANCH  36  37
ENDBRANCH   5  36
TORSDOF 13
ENDMDL