MODEL 2
REMARK VINA RESULT: -8.009130807      3.257     10.014
REMARK  10 active torsions:
REMARK  status: ('A' for Active; 'I' for Inactive)
REMARK    1  A    between atoms: C2_2  and  C3_3
REMARK    2  A    between atoms: C3_3  and  C4_4
REMARK       I    between atoms: C4_4  and  N1_6
REMARK    3  A    between atoms: N1_6  and  C5_8
REMARK       I    between atoms: N2_20  and  C17_21
REMARK       I    between atoms: C17_21  and  N3_23
REMARK    4  A    between atoms: N3_23  and  C18_25
REMARK    5  A    between atoms: C18_25  and  C19_26
REMARK    6  A    between atoms: C18_25  and  C22_30
REMARK    7  A    between atoms: C19_26  and  C20_27
REMARK    8  A    between atoms: C20_27  and  S1_28
REMARK       I    between atoms: C22_30  and  N4_32
REMARK    9  A    between atoms: N4_32  and  C23_34
REMARK   10  A    between atoms: C23_34  and  C24_35
ROOT
HETATM    1  C5  UNL     1     -11.477  16.614  27.404  1.00  0.00     0.178 C
HETATM    2  C6  UNL     1     -12.674  16.031  28.198  1.00  0.00     0.035 C
HETATM    3  C7  UNL     1     -12.256  15.316  29.432  1.00  0.00     0.002 C
HETATM    4  C8  UNL     1     -13.421  15.394  30.434  1.00  0.00     0.000 C
HETATM    5  C9  UNL     1     -12.768  15.442  31.825  1.00  0.00     0.000 C
HETATM    6  C10 UNL     1     -12.252  14.065  32.110  1.00  0.00     0.000 C
HETATM    7  C11 UNL     1     -11.130  13.984  33.085  1.00  0.00     0.000 C
HETATM    8  C12 UNL     1     -10.687  15.293  33.648  1.00  0.00     0.000 C
HETATM    9  C13 UNL     1      -9.481  15.896  33.008  1.00  0.00     0.000 C
HETATM   10  C14 UNL     1      -8.940  15.191  31.816  1.00  0.00     0.002 C
HETATM   11  C15 UNL     1      -8.269  16.238  30.921  1.00  0.00     0.022 C
HETATM   12  C16 UNL     1      -8.279  15.818  29.464  1.00  0.00     0.154 C
HETATM   13  N2  UNL     1      -8.277  16.980  28.579  1.00  0.00    -0.240 N
HETATM   14  C17 UNL     1      -7.072  17.302  27.882  1.00  0.00     0.337 C
HETATM   15  O2  UNL     1      -6.076  16.563  28.064  1.00  0.00    -0.245 OA
HETATM   16  N3  UNL     1      -6.914  18.398  27.002  1.00  0.00    -0.328 N
ATOM     17  H3  UNL     1      -7.711  19.011  26.831  1.00  0.00     0.165 HD
HETATM   18  N5  UNL     1      -9.372  17.823  28.379  1.00  0.00    -0.262 N
ATOM     19  H5  UNL     1      -9.147  18.814  28.288  1.00  0.00     0.190 HD
HETATM   20  C29 UNL     1     -10.733  17.510  28.283  1.00  0.00     0.259 C
HETATM   21  O4  UNL     1     -11.487  18.135  29.133  1.00  0.00    -0.269 OA
ENDROOT
BRANCH  16  22
HETATM   22  C18 UNL     1      -5.658  18.680  26.333  1.00  0.00     0.179 C
BRANCH  22  23
HETATM   23  C19 UNL     1      -4.843  17.434  26.055  1.00  0.00     0.045 C
BRANCH  23  24
HETATM   24  C20 UNL     1      -3.378  17.818  25.915  1.00  0.00     0.076 C
BRANCH  24  25
HETATM   25  S1  UNL     1      -2.886  17.376  24.224  1.00  0.00    -0.173 SA
HETATM   26  C21 UNL     1      -2.828  18.842  23.173  1.00  0.00     0.089 C
ENDBRANCH  24  25
ENDBRANCH  23  24
ENDBRANCH  22  23
BRANCH  22  27
HETATM   27  C22 UNL     1      -5.980  19.273  24.983  1.00  0.00     0.240 C
HETATM   28  O3  UNL     1      -5.573  20.459  24.747  1.00  0.00    -0.271 OA
HETATM   29  N4  UNL     1      -6.692  18.595  23.984  1.00  0.00    -0.359 N
ATOM     30  H4  UNL     1      -7.023  17.645  24.153  1.00  0.00     0.162 HD
BRANCH  29  31
HETATM   31  C23 UNL     1      -6.959  19.228  22.727  1.00  0.00     0.127 C
BRANCH  31  32
HETATM   32  C24 UNL     1      -6.279  18.558  21.545  1.00  0.00     0.003 C
HETATM   33  C25 UNL     1      -7.250  18.377  20.396  1.00  0.00     0.006 C
HETATM   34  C26 UNL     1      -7.365  16.872  20.163  1.00  0.00     0.000 C
HETATM   35  C27 UNL     1      -6.093  16.302  20.766  1.00  0.00     0.000 C
HETATM   36  C28 UNL     1      -5.948  17.155  21.993  1.00  0.00     0.006 C
ENDBRANCH  31  32
ENDBRANCH  29  31
ENDBRANCH  22  27
ENDBRANCH  16  22
BRANCH   1  37
HETATM   37  N1  UNL     1     -10.780  15.596  26.711  1.00  0.00    -0.348 N
HETATM   38  C4  UNL     1      -9.818  15.942  25.699  1.00  0.00     0.218 C
HETATM   39  O1  UNL     1      -9.629  17.177  25.466  1.00  0.00    -0.274 OA
ATOM     40  H1  UNL     1     -10.959  14.616  26.930  1.00  0.00     0.163 HD
BRANCH  38  41
HETATM   41  C3  UNL     1      -9.043  14.983  24.915  1.00  0.00     0.102 C
BRANCH  41  42
HETATM   42  C2  UNL     1      -8.653  15.477  23.561  1.00  0.00     0.005 C
HETATM   43  C1  UNL     1      -9.757  15.596  22.571  1.00  0.00     0.005 C
ENDBRANCH  41  42
ENDBRANCH  38  41
ENDBRANCH   1  37
TORSDOF 10
ENDMDL