MODEL 5
REMARK VINA RESULT: -8.585916844      2.854      9.678
REMARK  10 active torsions:
REMARK  status: ('A' for Active; 'I' for Inactive)
REMARK    1  A    between atoms: C3_3  and  N1_4
REMARK       I    between atoms: N1_4  and  C4_6
REMARK    2  A    between atoms: C4_6  and  C5_8
REMARK    3  A    between atoms: C5_8  and  C6_9
REMARK    4  A    between atoms: C8_11  and  C10_13
REMARK    5  A    between atoms: C19_24  and  C20_25
REMARK       I    between atoms: C20_25  and  N2_27
REMARK    6  A    between atoms: N2_27  and  C21_29
REMARK    7  A    between atoms: C21_29  and  C22_30
REMARK    8  A    between atoms: C22_30  and  C23_31
REMARK    9  A    between atoms: C23_31  and  C24_32
REMARK   10  A    between atoms: C24_32  and  C25_33
ROOT
HETATM    1  C1  UNL     1     -12.386  12.797  27.492  1.00  0.00     0.014 C
HETATM    2  C2  UNL     1     -12.546  12.086  28.446  1.00  0.00    -0.098 C
HETATM    3  C3  UNL     1     -12.769  11.221  29.628  1.00  0.00     0.216 C
ENDROOT
BRANCH   3   4
HETATM    4  N1  UNL     1     -13.902  11.690  30.388  1.00  0.00    -0.351 N
HETATM    5  C4  UNL     1     -14.247  11.099  31.635  1.00  0.00     0.220 C
HETATM    6  O1  UNL     1     -13.543  10.156  32.062  1.00  0.00    -0.274 OA
ATOM      7  H1  UNL     1     -14.466  12.458  30.025  1.00  0.00     0.163 HD
BRANCH   5   8
HETATM    8  C5  UNL     1     -15.402  11.561  32.436  1.00  0.00     0.134 C
BRANCH   8   9
HETATM    9  C6  UNL     1     -14.913  12.618  33.433  1.00  0.00     0.132 C
HETATM   10  C7  UNL     1     -14.801  12.111  34.824  1.00  0.00     0.053 C
HETATM   11  C8  UNL     1     -13.439  12.440  35.398  1.00  0.00     0.053 C
HETATM   12  C9  UNL     1     -12.533  11.319  34.951  1.00  0.00     0.027 C
HETATM   13  C11 UNL     1     -12.917  13.802  34.999  1.00  0.00     0.039 C
HETATM   14  C12 UNL     1     -11.470  13.857  35.401  1.00  0.00     0.009 C
HETATM   15  C31 UNL     1     -13.231  14.225  33.619  1.00  0.00     0.066 C
HETATM   16  C13 UNL     1     -10.979  15.251  35.698  1.00  0.00     0.001 C
HETATM   17  C14 UNL     1     -11.093  16.176  34.508  1.00  0.00     0.005 C
HETATM   18  C15 UNL     1     -10.984  15.407  33.239  1.00  0.00    -0.003 C
HETATM   19  C16 UNL     1     -10.439  16.249  32.146  1.00  0.00    -0.001 C
HETATM   20  C30 UNL     1     -12.226  14.782  32.731  1.00  0.00     0.025 C
HETATM   21  C17 UNL     1      -9.257  17.076  32.381  1.00  0.00     0.007 C
HETATM   22  C26 UNL     1      -9.948  15.382  30.974  1.00  0.00    -0.028 C
HETATM   23  C18 UNL     1      -8.939  17.534  30.945  1.00  0.00     0.015 C
HETATM   24  C19 UNL     1      -9.555  16.473  30.047  1.00  0.00     0.086 C
HETATM   25  C27 UNL     1      -8.783  14.532  31.301  1.00  0.00     0.016 C
HETATM   26  C28 UNL     1     -11.143  14.588  30.504  1.00  0.00     0.011 C
HETATM   27  C29 UNL     1     -11.722  13.785  31.657  1.00  0.00     0.009 C
HETATM   28  C32 UNL     1     -14.470  15.149  33.652  1.00  0.00     0.047 C
HETATM   29  O7  UNL     1     -13.714  13.073  32.959  1.00  0.00    -0.374 OA
BRANCH  11  30
HETATM   30  C10 UNL     1     -13.603  12.395  36.869  1.00  0.00     0.182 C
HETATM   31  O2  UNL     1     -14.293  13.252  37.449  1.00  0.00    -0.647 OA
HETATM   32  O3  UNL     1     -12.990  11.398  37.588  1.00  0.00    -0.647 OA
ENDBRANCH  11  30
BRANCH  24  33
HETATM   33  C20 UNL     1      -8.692  16.094  28.918  1.00  0.00     0.222 C
HETATM   34  O4  UNL     1      -7.500  16.560  28.923  1.00  0.00    -0.273 OA
HETATM   35  N2  UNL     1      -9.064  15.266  27.834  1.00  0.00    -0.361 N
ATOM     36  H2  UNL     1     -10.003  14.871  27.801  1.00  0.00     0.162 HD
BRANCH  35  37
HETATM   37  C21 UNL     1      -8.115  14.967  26.758  1.00  0.00     0.122 C
BRANCH  37  38
HETATM   38  C22 UNL     1      -8.775  15.258  25.448  1.00  0.00     0.020 C
BRANCH  38  39
HETATM   39  C23 UNL     1     -10.145  15.836  25.689  1.00  0.00     0.012 C
BRANCH  39  40
HETATM   40  C24 UNL     1     -10.278  17.205  25.065  1.00  0.00     0.113 C
BRANCH  40  41
HETATM   41  C25 UNL     1      -9.651  18.245  25.941  1.00  0.00     0.172 C
HETATM   42  O5  UNL     1      -8.517  18.695  25.606  1.00  0.00    -0.648 OA
HETATM   43  O6  UNL     1     -10.273  18.710  27.077  1.00  0.00    -0.648 OA
ENDBRANCH  40  41
ENDBRANCH  39  40
ENDBRANCH  38  39
ENDBRANCH  37  38
ENDBRANCH  35  37
ENDBRANCH  24  33
ENDBRANCH   8   9
ENDBRANCH   5   8
ENDBRANCH   3   4
TORSDOF 10
ENDMDL