MODEL 4
REMARK VINA RESULT: -8.840440690      0.722      1.124
REMARK  13 active torsions:
REMARK  status: ('A' for Active; 'I' for Inactive)
REMARK    1  A    between atoms: C2_2  and  C5_5
REMARK    2  A    between atoms: C5_5  and  N1_6
REMARK    3  A    between atoms: C5_5  and  C12_17
REMARK       I    between atoms: N1_6  and  C6_8
REMARK       I    between atoms: C6_8  and  N2_10
REMARK    4  A    between atoms: N2_10  and  C7_12
REMARK       I    between atoms: C12_17  and  N3_19
REMARK    5  A    between atoms: N3_19  and  C13_20
REMARK    6  A    between atoms: C13_20  and  C14_21
REMARK    7  A    between atoms: C13_20  and  C18_29
REMARK    8  A    between atoms: C14_21  and  C15_22
REMARK    9  A    between atoms: C18_29  and  O3_30
REMARK   10  A    between atoms: C18_29  and  N6_32
REMARK   11  A    between atoms: C23_37  and  C24_38
REMARK   12  A    between atoms: C24_38  and  C25_40
REMARK   13  A    between atoms: C25_40  and  C26_41
ROOT
HETATM    1  C13 UNL     1     -11.250  14.209  30.019  1.00  0.00     0.144 C
ENDROOT
BRANCH   1   2
HETATM    2  N3  UNL     1     -10.414  14.664  28.964  1.00  0.00    -0.369 NA
HETATM    3  C12 UNL     1      -9.635  15.088  27.981  1.00  0.00     0.315 C
HETATM    4  O2  UNL     1      -8.907  14.322  27.236  1.00  0.00    -0.255 OA
BRANCH   3   5
HETATM    5  C5  UNL     1      -9.447  16.532  27.540  1.00  0.00     0.201 C
BRANCH   5   6
HETATM    6  C2  UNL     1      -8.562  17.232  28.564  1.00  0.00    -0.021 C
HETATM    7  C1  UNL     1      -7.581  16.295  29.200  1.00  0.00     0.017 C
HETATM    8  C3  UNL     1      -7.724  18.309  27.870  1.00  0.00     0.017 C
HETATM    9  C4  UNL     1      -9.339  17.896  29.646  1.00  0.00     0.017 C
ENDBRANCH   5   6
BRANCH   5  10
HETATM   10  N1  UNL     1      -8.817  16.572  26.243  1.00  0.00    -0.328 N
HETATM   11  C6  UNL     1      -9.382  16.905  25.012  1.00  0.00     0.317 C
HETATM   12  O1  UNL     1     -10.590  17.222  24.937  1.00  0.00    -0.247 OA
HETATM   13  N2  UNL     1      -8.616  16.903  23.842  1.00  0.00    -0.339 N
ATOM     14  H2  UNL     1      -7.643  16.606  23.912  1.00  0.00     0.164 HD
ATOM     15  H1  UNL     1      -7.827  16.325  26.225  1.00  0.00     0.165 HD
BRANCH  13  16
HETATM   16  C7  UNL     1      -9.114  17.297  22.532  1.00  0.00     0.086 C
HETATM   17  C8  UNL     1      -9.614  16.114  21.787  1.00  0.00     0.025 C
HETATM   18  C9  UNL     1      -9.603  16.626  20.339  1.00  0.00     0.002 C
HETATM   19  C10 UNL     1      -8.485  17.644  20.281  1.00  0.00     0.002 C
HETATM   20  C11 UNL     1      -7.984  17.824  21.673  1.00  0.00     0.025 C
ENDBRANCH  13  16
ENDBRANCH   5  10
ENDBRANCH   3   5
ENDBRANCH   1   2
BRANCH   1  21
HETATM   21  C14 UNL     1     -12.469  13.464  29.644  1.00  0.00     0.136 C
BRANCH  21  22
HETATM   22  C15 UNL     1     -13.214  12.810  30.720  1.00  0.00     0.032 A
HETATM   23  C16 UNL     1     -14.473  13.219  31.115  1.00  0.00     0.114 A
HETATM   24  N4  UNL     1     -14.857  12.419  32.128  1.00  0.00    -0.360 N
HETATM   25  C17 UNL     1     -13.887  11.529  32.377  1.00  0.00     0.180 A
ATOM     26  H4  UNL     1     -15.745  12.480  32.625  1.00  0.00     0.166 HD
HETATM   27  N5  UNL     1     -12.900  11.788  31.508  1.00  0.00    -0.354 N
ATOM     28  H5  UNL     1     -12.024  11.268  31.457  1.00  0.00     0.166 HD
ENDBRANCH  21  22
ENDBRANCH   1  21
BRANCH   1  29
HETATM   29  C18 UNL     1     -11.368  15.189  31.113  1.00  0.00     0.176 C
BRANCH  29  30
HETATM   30  O3  UNL     1     -12.157  16.194  30.763  1.00  0.00    -0.344 OA
ATOM     31  H3  UNL     1     -12.352  16.748  31.510  1.00  0.00     0.219 HD
ENDBRANCH  29  30
BRANCH  29  32
HETATM   32  N6  UNL     1     -10.863  15.308  32.383  1.00  0.00    -0.348 N
HETATM   33  C19 UNL     1      -9.381  15.112  32.520  1.00  0.00     0.126 C
HETATM   34  C20 UNL     1      -8.689  16.358  32.950  1.00  0.00     0.020 C
HETATM   35  C21 UNL     1      -9.616  17.098  33.922  1.00  0.00     0.004 C
HETATM   36  C22 UNL     1     -10.379  15.998  34.625  1.00  0.00     0.033 C
HETATM   37  C23 UNL     1     -11.500  15.569  33.640  1.00  0.00     0.156 C
BRANCH  37  38
HETATM   38  C24 UNL     1     -12.202  14.395  34.219  1.00  0.00     0.149 C
HETATM   39  O4  UNL     1     -13.426  14.404  34.257  1.00  0.00    -0.296 OA
BRANCH  38  40
HETATM   40  C25 UNL     1     -11.439  13.262  34.718  1.00  0.00     0.085 C
BRANCH  40  41
HETATM   41  C26 UNL     1     -11.752  12.787  36.099  1.00  0.00    -0.007 C
HETATM   42  C27 UNL     1     -12.828  11.758  36.213  1.00  0.00     0.005 C
HETATM   43  C28 UNL     1     -13.000  11.387  37.685  1.00  0.00     0.000 C
HETATM   44  C29 UNL     1     -11.822  11.793  38.508  1.00  0.00     0.000 C
HETATM   45  C30 UNL     1     -11.531  13.273  38.466  1.00  0.00     0.000 C
HETATM   46  C31 UNL     1     -11.910  13.875  37.120  1.00  0.00     0.005 C
ENDBRANCH  40  41
ENDBRANCH  38  40
ENDBRANCH  37  38
ENDBRANCH  29  32
ENDBRANCH   1  29
TORSDOF 13
ENDMDL