MODEL 2
REMARK VINA RESULT: -8.205548557      2.386     10.075
REMARK  14 active torsions:
REMARK  status: ('A' for Active; 'I' for Inactive)
REMARK    1  A    between atoms: C2_2  and  C4_4
REMARK    2  A    between atoms: C4_4  and  C5_5
REMARK    3  A    between atoms: C4_4  and  C23_34
REMARK    4  A    between atoms: C5_5  and  C6_6
REMARK    5  A    between atoms: C6_6  and  O1_7
REMARK    6  A    between atoms: C6_6  and  C7_9
REMARK    7  A    between atoms: C7_9  and  N1_10
REMARK    8  A    between atoms: C7_9  and  S1_30
REMARK       I    between atoms: N1_10  and  C8_12
REMARK    9  A    between atoms: C8_12  and  C9_14
REMARK   10  A    between atoms: C9_14  and  N2_15
REMARK   11  A    between atoms: C9_14  and  C15_23
REMARK       I    between atoms: N2_15  and  C10_17
REMARK   12  A    between atoms: C10_17  and  C11_19
REMARK   13  A    between atoms: C15_23  and  C18_26
REMARK       I    between atoms: C23_34  and  N3_36
REMARK   14  A    between atoms: N3_36  and  C24_38
ROOT
HETATM    1  C7  UNL     1      -9.389  15.304  28.882  1.00  0.00     0.235 C
ENDROOT
BRANCH   1   2
HETATM    2  C6  UNL     1      -7.909  15.094  28.634  1.00  0.00     0.156 C
BRANCH   2   3
HETATM    3  C5  UNL     1      -7.335  15.962  27.579  1.00  0.00     0.049 C
BRANCH   3   4
HETATM    4  C4  UNL     1      -7.778  17.393  27.606  1.00  0.00     0.083 C
BRANCH   4   5
HETATM    5  C2  UNL     1      -6.580  18.266  27.918  1.00  0.00    -0.010 C
HETATM    6  C1  UNL     1      -5.296  17.482  27.934  1.00  0.00     0.010 C
HETATM    7  C3  UNL     1      -6.510  19.546  27.173  1.00  0.00     0.010 C
ENDBRANCH   4   5
BRANCH   4   8
HETATM    8  C23 UNL     1      -8.466  17.853  26.414  1.00  0.00     0.222 C
HETATM    9  O6  UNL     1      -9.325  18.797  26.387  1.00  0.00    -0.273 OA
HETATM   10  N3  UNL     1      -8.213  17.253  25.163  1.00  0.00    -0.356 N
ATOM     11  H3  UNL     1      -7.528  16.498  25.128  1.00  0.00     0.162 HD
BRANCH  10  12
HETATM   12  C24 UNL     1      -8.863  17.639  23.915  1.00  0.00     0.084 C
HETATM   13  C25 UNL     1      -9.979  16.692  23.563  1.00  0.00     0.025 C
HETATM   14  C26 UNL     1      -9.563  15.636  22.577  1.00  0.00     0.002 C
HETATM   15  C27 UNL     1      -9.003  16.181  21.304  1.00  0.00     0.000 C
HETATM   16  C28 UNL     1      -8.723  17.639  21.492  1.00  0.00     0.002 C
HETATM   17  C29 UNL     1      -7.916  17.838  22.781  1.00  0.00     0.025 C
ENDBRANCH  10  12
ENDBRANCH   4   8
ENDBRANCH   3   4
ENDBRANCH   2   3
BRANCH   2  18
HETATM   18  O1  UNL     1      -7.869  13.739  28.178  1.00  0.00    -0.392 OA
ATOM     19  H1  UNL     1      -8.713  13.338  28.350  1.00  0.00     0.210 HD
ENDBRANCH   2  18
ENDBRANCH   1   2
BRANCH   1  20
HETATM   20  N1  UNL     1      -9.840  14.756  30.147  1.00  0.00    -0.339 N
HETATM   21  C8  UNL     1     -10.789  15.352  30.973  1.00  0.00     0.242 C
HETATM   22  O2  UNL     1     -11.258  16.466  30.497  1.00  0.00    -0.271 OA
ATOM     23  H1  UNL     1      -9.433  13.872  30.452  1.00  0.00     0.164 HD
BRANCH  21  24
HETATM   24  C9  UNL     1     -11.330  14.905  32.282  1.00  0.00     0.185 C
BRANCH  24  25
HETATM   25  N2  UNL     1     -11.907  13.593  32.096  1.00  0.00    -0.346 N
HETATM   26  C10 UNL     1     -13.270  13.332  31.817  1.00  0.00     0.226 C
HETATM   27  O3  UNL     1     -14.038  14.353  31.737  1.00  0.00    -0.273 OA
ATOM     28  H2  UNL     1     -11.282  12.791  32.173  1.00  0.00     0.163 HD
BRANCH  26  29
HETATM   29  C11 UNL     1     -13.876  12.019  31.608  1.00  0.00     0.030 C
HETATM   30  C12 UNL     1     -13.758  11.277  32.950  1.00  0.00     0.024 C
HETATM   31  C13 UNL     1     -13.160  11.234  30.515  1.00  0.00     0.024 C
HETATM   32  C14 UNL     1     -15.330  12.012  31.265  1.00  0.00     0.024 C
ENDBRANCH  26  29
ENDBRANCH  24  25
BRANCH  24  33
HETATM   33  C15 UNL     1     -10.515  15.134  33.473  1.00  0.00    -0.012 C
HETATM   34  C16 UNL     1      -9.319  14.213  33.473  1.00  0.00     0.018 C
HETATM   35  C17 UNL     1      -9.930  16.575  33.478  1.00  0.00     0.018 C
BRANCH  33  36
HETATM   36  C18 UNL     1     -11.198  14.931  34.814  1.00  0.00    -0.042 C
HETATM   37  C19 UNL     1     -12.655  15.349  34.786  1.00  0.00     0.015 C
HETATM   38  C20 UNL     1     -10.559  15.860  35.855  1.00  0.00     0.015 C
HETATM   39  C21 UNL     1     -11.113  13.547  35.350  1.00  0.00     0.015 C
ENDBRANCH  33  36
ENDBRANCH  24  33
ENDBRANCH  21  24
ENDBRANCH   1  20
BRANCH   1  40
HETATM   40  S1  UNL     1     -10.340  14.769  27.508  1.00  0.00     0.164 S
HETATM   41  C22 UNL     1     -11.646  15.962  27.148  1.00  0.00     0.163 C
HETATM   42  O4  UNL     1      -9.528  14.653  26.256  1.00  0.00    -0.226 OA
HETATM   43  O5  UNL     1     -10.970  13.442  27.847  1.00  0.00    -0.226 OA
ENDBRANCH   1  40
TORSDOF 14
ENDMDL