MODEL 4
REMARK VINA RESULT: -8.473614514      2.520      5.504
REMARK  12 active torsions:
REMARK  status: ('A' for Active; 'I' for Inactive)
REMARK    1  A    between atoms: C2_2  and  C4_4
REMARK    2  A    between atoms: C4_4  and  C5_5
REMARK    3  A    between atoms: C5_5  and  C6_6
REMARK    4  A    between atoms: C6_6  and  N1_7
REMARK    5  A    between atoms: C6_6  and  C22_26
REMARK    6  A    between atoms: C6_6  and  C28_38
REMARK    7  A    between atoms: N1_7  and  C7_9
REMARK    8  A    between atoms: C7_9  and  C8_10
REMARK    9  A    between atoms: C7_9  and  C12_14
REMARK   10  A    between atoms: C8_10  and  C9_11
REMARK       I    between atoms: C12_14  and  N2_16
REMARK       I    between atoms: C22_26  and  N3_28
REMARK   11  A    between atoms: N3_28  and  C23_30
REMARK       I    between atoms: C28_38  and  N6_40
REMARK   12  A    between atoms: N6_40  and  C29_42
ROOT
HETATM    1  C6  UNL     1     -10.310  14.672  29.537  1.00  0.00     0.190 C
ENDROOT
BRANCH   1   2
HETATM    2  C5  UNL     1     -11.170  15.894  29.123  1.00  0.00     0.051 C
BRANCH   2   3
HETATM    3  C4  UNL     1     -11.433  16.840  30.228  1.00  0.00     0.007 C
BRANCH   3   4
HETATM    4  C2  UNL     1     -10.796  18.180  29.819  1.00  0.00    -0.023 C
HETATM    5  C1  UNL     1     -10.711  18.295  28.322  1.00  0.00     0.009 C
HETATM    6  C3  UNL     1      -9.443  18.341  30.448  1.00  0.00     0.009 C
ENDBRANCH   3   4
ENDBRANCH   2   3
ENDBRANCH   1   2
BRANCH   1   7
HETATM    7  N1  UNL     1      -9.258  14.614  28.638  1.00  0.00    -0.385 N
ATOM      8  H1  UNL     1      -8.889  13.692  28.408  1.00  0.00     0.155 HD
BRANCH   7   9
HETATM    9  C7  UNL     1      -8.650  15.733  28.009  1.00  0.00     0.171 C
BRANCH   9  10
HETATM   10  C8  UNL     1      -7.384  16.147  28.653  1.00  0.00     0.038 C
BRANCH  10  11
HETATM   11  C9  UNL     1      -6.434  17.064  28.042  1.00  0.00    -0.020 C
HETATM   12  C10 UNL     1      -6.686  18.506  27.949  1.00  0.00     0.009 C
HETATM   13  C11 UNL     1      -5.020  16.923  28.670  1.00  0.00     0.009 C
ENDBRANCH  10  11
ENDBRANCH   9  10
BRANCH   9  14
HETATM   14  C12 UNL     1      -8.295  15.227  26.633  1.00  0.00     0.242 C
HETATM   15  O1  UNL     1      -7.899  14.011  26.635  1.00  0.00    -0.271 OA
HETATM   16  N2  UNL     1      -8.359  15.914  25.435  1.00  0.00    -0.350 N
HETATM   17  C13 UNL     1      -8.850  17.254  25.205  1.00  0.00     0.126 C
HETATM   18  C21 UNL     1      -7.870  15.240  24.226  1.00  0.00     0.126 C
HETATM   19  C14 UNL     1      -9.882  17.245  24.093  1.00  0.00     0.029 C
HETATM   20  C15 UNL     1      -9.332  16.609  22.837  1.00  0.00    -0.037 C
HETATM   21  C16 UNL     1     -10.384  16.531  21.750  1.00  0.00     0.010 C
HETATM   22  C19 UNL     1      -8.266  17.459  22.177  1.00  0.00     0.010 C
HETATM   23  C20 UNL     1      -8.892  15.216  23.140  1.00  0.00     0.029 C
HETATM   24  C17 UNL     1      -9.605  16.507  20.437  1.00  0.00     0.001 C
HETATM   25  C18 UNL     1      -8.228  17.001  20.734  1.00  0.00     0.001 C
ENDBRANCH   9  14
ENDBRANCH   7   9
ENDBRANCH   1   7
BRANCH   1  26
HETATM   26  C22 UNL     1     -11.266  13.551  29.197  1.00  0.00     0.261 C
HETATM   27  O2  UNL     1     -11.780  13.677  28.035  1.00  0.00    -0.270 OA
HETATM   28  N3  UNL     1     -11.618  12.477  29.948  1.00  0.00    -0.310 N
ATOM     29  H3  UNL     1     -10.866  11.821  30.162  1.00  0.00     0.170 HD
BRANCH  28  30
HETATM   30  C23 UNL     1     -12.752  12.179  30.419  1.00  0.00     0.107 A
HETATM   31  C24 UNL     1     -13.730  13.139  30.562  1.00  0.00     0.050 A
HETATM   32  C25 UNL     1     -14.996  12.880  31.074  1.00  0.00     0.032 A
HETATM   33  C26 UNL     1     -15.302  11.597  31.467  1.00  0.00     0.061 A
HETATM   34  N4  UNL     1     -16.559  11.249  31.998  1.00  0.00    -0.101 NA
HETATM   35  C27 UNL     1     -14.308  10.640  31.318  1.00  0.00     0.116 A
HETATM   36  N5  UNL     1     -13.097  10.934  30.817  1.00  0.00    -0.350 N
ATOM     37  H5  UNL     1     -12.409  10.185  30.732  1.00  0.00     0.166 HD
ENDBRANCH  28  30
ENDBRANCH   1  26
BRANCH   1  38
HETATM   38  C28 UNL     1     -10.072  14.866  30.951  1.00  0.00     0.256 C
HETATM   39  O3  UNL     1      -8.900  14.882  31.399  1.00  0.00    -0.270 OA
HETATM   40  N6  UNL     1     -11.077  15.050  31.930  1.00  0.00    -0.350 N
ATOM     41  H6  UNL     1     -12.049  15.050  31.621  1.00  0.00     0.163 HD
BRANCH  40  42
HETATM   42  C29 UNL     1     -10.818  15.239  33.340  1.00  0.00     0.022 C
HETATM   43  C30 UNL     1      -9.861  16.373  33.602  1.00  0.00     0.037 C
HETATM   44  C31 UNL     1     -12.131  15.632  34.036  1.00  0.00     0.037 C
HETATM   45  C32 UNL     1     -10.395  13.943  33.948  1.00  0.00     0.037 C
ENDBRANCH  40  42
ENDBRANCH   1  38
TORSDOF 12
ENDMDL