MODEL 4
REMARK VINA RESULT: -7.583640467      2.581      4.776
REMARK  10 active torsions:
REMARK  status: ('A' for Active; 'I' for Inactive)
REMARK    1  A    between atoms: N1_2  and  C2_5
REMARK    2  A    between atoms: C2_5  and  C4_7
REMARK       I    between atoms: C4_7  and  N2_9
REMARK    3  A    between atoms: N2_9  and  C5_11
REMARK    4  A    between atoms: C18_24  and  C19_25
REMARK    5  A    between atoms: C19_25  and  C20_26
REMARK    6  A    between atoms: C20_26  and  N3_27
REMARK    7  A    between atoms: C21_31  and  C22_32
REMARK       I    between atoms: C22_32  and  N4_34
REMARK    8  A    between atoms: N4_34  and  C23_36
REMARK    9  A    between atoms: C23_36  and  C24_37
REMARK   10  A    between atoms: N5_40  and  C27_41
ROOT
HETATM    1  C5  UNL     1     -13.219  13.294  34.618  1.00  0.00     0.176 C
HETATM    2  C6  UNL     1     -14.597  12.661  34.825  1.00  0.00     0.035 C
HETATM    3  C7  UNL     1     -14.357  11.303  35.379  1.00  0.00     0.002 C
HETATM    4  C8  UNL     1     -15.526  10.438  35.633  1.00  0.00     0.000 C
HETATM    5  C9  UNL     1     -16.630  10.436  34.657  1.00  0.00     0.000 C
HETATM    6  C10 UNL     1     -16.679   9.196  33.756  1.00  0.00     0.000 C
HETATM    7  C11 UNL     1     -15.522   9.081  32.830  1.00  0.00     0.000 C
HETATM    8  C12 UNL     1     -15.822   8.794  31.420  1.00  0.00     0.000 C
HETATM    9  C13 UNL     1     -16.049   9.940  30.514  1.00  0.00     0.000 C
HETATM   10  C14 UNL     1     -15.284  11.180  30.795  1.00  0.00     0.000 C
HETATM   11  C15 UNL     1     -13.829  11.156  30.498  1.00  0.00     0.002 C
HETATM   12  C16 UNL     1     -13.001  12.010  31.486  1.00  0.00     0.026 C
HETATM   13  C17 UNL     1     -13.636  13.374  31.483  1.00  0.00     0.095 C
HETATM   14  C18 UNL     1     -13.155  14.150  30.310  1.00  0.00     0.042 C
HETATM   15  C21 UNL     1     -12.315  15.014  31.217  1.00  0.00     0.185 C
HETATM   16  N6  UNL     1     -13.017  14.361  32.321  1.00  0.00    -0.331 N
HETATM   17  C32 UNL     1     -13.231  14.453  33.713  1.00  0.00     0.243 C
HETATM   18  O3  UNL     1     -13.454  15.591  34.275  1.00  0.00    -0.271 OA
ENDROOT
BRANCH  15  19
HETATM   19  C22 UNL     1     -10.878  14.809  31.077  1.00  0.00     0.241 C
HETATM   20  O2  UNL     1     -10.242  14.339  32.079  1.00  0.00    -0.271 OA
HETATM   21  N4  UNL     1     -10.238  15.129  29.864  1.00  0.00    -0.359 N
ATOM     22  H4  UNL     1     -10.762  15.503  29.073  1.00  0.00     0.162 HD
BRANCH  21  23
HETATM   23  C23 UNL     1      -8.807  14.906  29.780  1.00  0.00     0.127 C
BRANCH  23  24
HETATM   24  C24 UNL     1      -8.385  14.877  28.350  1.00  0.00     0.006 C
HETATM   25  C25 UNL     1      -9.464  14.526  27.389  1.00  0.00     0.026 C
HETATM   26  C26 UNL     1      -9.822  15.586  26.407  1.00  0.00     0.117 C
HETATM   27  N5  UNL     1      -8.736  16.320  25.867  1.00  0.00    -0.409 N
HETATM   28  C30 UNL     1      -7.460  16.053  26.445  1.00  0.00     0.117 C
HETATM   29  C31 UNL     1      -7.642  16.154  27.966  1.00  0.00     0.026 C
BRANCH  27  30
HETATM   30  C27 UNL     1      -8.751  16.512  24.454  1.00  0.00     0.070 C
HETATM   31  C28 UNL     1     -10.208  16.403  23.996  1.00  0.00     0.031 C
HETATM   32  C29 UNL     1      -7.967  15.410  23.753  1.00  0.00     0.031 C
ENDBRANCH  27  30
ENDBRANCH  23  24
ENDBRANCH  21  23
ENDBRANCH  15  19
BRANCH  14  33
HETATM   33  C19 UNL     1     -14.142  14.874  29.469  1.00  0.00     0.036 C
BRANCH  33  34
HETATM   34  C20 UNL     1     -13.646  15.627  28.295  1.00  0.00     0.230 C
BRANCH  34  35
HETATM   35  N3  UNL     1     -13.159  16.944  28.506  1.00  0.00    -0.079 N
ATOM     36  H33 UNL     1     -13.225  17.170  29.499  1.00  0.00     0.274 HD
ATOM     37  H32 UNL     1     -12.148  16.952  28.373  1.00  0.00     0.274 HD
ATOM     38  H31 UNL     1     -13.575  17.701  27.963  1.00  0.00     0.274 HD
ENDBRANCH  34  35
ENDBRANCH  33  34
ENDBRANCH  14  33
BRANCH   1  39
HETATM   39  N2  UNL     1     -12.834  13.746  35.975  1.00  0.00    -0.346 N
HETATM   40  C4  UNL     1     -11.856  13.130  36.752  1.00  0.00     0.248 C
HETATM   41  O1  UNL     1     -11.230  12.130  36.336  1.00  0.00    -0.271 OA
ATOM     42  H2  UNL     1     -13.313  14.558  36.364  1.00  0.00     0.163 HD
BRANCH  40  43
HETATM   43  C2  UNL     1     -11.534  13.651  38.099  1.00  0.00     0.272 C
HETATM   44  C3  UNL     1     -10.428  14.686  38.075  1.00  0.00     0.050 C
BRANCH  43  45
HETATM   45  N1  UNL     1     -12.685  14.272  38.729  1.00  0.00    -0.067 N
HETATM   46  C1  UNL     1     -13.389  13.243  39.465  1.00  0.00     0.267 C
ATOM     47  H12 UNL     1     -13.283  14.766  38.067  1.00  0.00     0.277 HD
ATOM     48  H11 UNL     1     -12.435  15.075  39.308  1.00  0.00     0.277 HD
ENDBRANCH  43  45
ENDBRANCH  40  43
ENDBRANCH   1  39
TORSDOF 10
ENDMDL