MODEL 3
REMARK VINA RESULT: -8.663527919      2.572      5.517
REMARK  13 active torsions:
REMARK  status: ('A' for Active; 'I' for Inactive)
REMARK    1  A    between atoms: C2_2  and  C4_4
REMARK    2  A    between atoms: C4_4  and  N1_5
REMARK    3  A    between atoms: C4_4  and  C23_34
REMARK       I    between atoms: N1_5  and  C5_7
REMARK    4  A    between atoms: C5_7  and  C6_9
REMARK    5  A    between atoms: C6_9  and  C7_10
REMARK    6  A    between atoms: C6_9  and  N2_15
REMARK    7  A    between atoms: C7_10  and  C8_11
REMARK    8  A    between atoms: C8_11  and  C9_12
REMARK       I    between atoms: N2_15  and  C10_17
REMARK    9  A    between atoms: C10_17  and  C11_19
REMARK       I    between atoms: N3_24  and  C16_25
REMARK   10  A    between atoms: C16_25  and  O6_27
REMARK   11  A    between atoms: O6_27  and  C17_28
REMARK   12  A    between atoms: C17_28  and  C19_30
REMARK       I    between atoms: C23_34  and  N4_36
REMARK   13  A    between atoms: N4_36  and  C24_38
ROOT
HETATM    1  C6  UNL     1     -10.571  16.095  26.951  1.00  0.00     0.177 C
ENDROOT
BRANCH   1   2
HETATM    2  C5  UNL     1     -10.625  14.999  27.955  1.00  0.00     0.241 C
HETATM    3  N1  UNL     1     -11.384  15.090  29.139  1.00  0.00    -0.346 N
ATOM      4  H1  UNL     1     -11.894  15.960  29.289  1.00  0.00     0.163 HD
HETATM    5  O1  UNL     1      -9.969  13.962  27.730  1.00  0.00    -0.271 OA
BRANCH   3   6
HETATM    6  C4  UNL     1     -11.515  14.085  30.156  1.00  0.00     0.180 C
BRANCH   6   7
HETATM    7  C2  UNL     1     -13.015  13.932  30.452  1.00  0.00     0.009 C
HETATM    8  C1  UNL     1     -13.514  12.572  30.033  1.00  0.00     0.012 C
HETATM    9  C3  UNL     1     -13.791  15.022  29.714  1.00  0.00     0.012 C
ENDBRANCH   6   7
BRANCH   6  10
HETATM   10  C23 UNL     1     -10.891  14.464  31.450  1.00  0.00     0.241 C
HETATM   11  O7  UNL     1      -9.815  15.094  31.431  1.00  0.00    -0.271 OA
HETATM   12  N4  UNL     1     -11.518  14.113  32.663  1.00  0.00    -0.355 N
ATOM     13  H4  UNL     1     -12.397  13.598  32.635  1.00  0.00     0.162 HD
BRANCH  12  14
HETATM   14  C24 UNL     1     -10.948  14.464  33.955  1.00  0.00     0.084 C
HETATM   15  C25 UNL     1     -11.519  15.808  34.373  1.00  0.00     0.025 C
HETATM   16  C26 UNL     1     -10.570  16.428  35.370  1.00  0.00     0.002 C
HETATM   17  C27 UNL     1     -10.411  15.495  36.530  1.00  0.00     0.000 C
HETATM   18  C28 UNL     1     -11.758  14.933  36.894  1.00  0.00     0.000 C
HETATM   19  C29 UNL     1     -12.156  13.765  36.055  1.00  0.00     0.002 C
HETATM   20  C30 UNL     1     -11.145  13.410  34.983  1.00  0.00     0.025 C
ENDBRANCH  12  14
ENDBRANCH   6  10
ENDBRANCH   3   6
ENDBRANCH   1   2
BRANCH   1  21
HETATM   21  C7  UNL     1     -10.408  17.432  27.563  1.00  0.00     0.045 C
BRANCH  21  22
HETATM   22  C8  UNL     1      -9.094  17.740  28.174  1.00  0.00     0.116 C
BRANCH  22  23
HETATM   23  C9  UNL     1      -8.172  18.568  27.403  1.00  0.00     0.172 C
HETATM   24  O2  UNL     1      -8.413  18.887  26.228  1.00  0.00    -0.648 OA
HETATM   25  O3  UNL     1      -7.006  19.002  28.000  1.00  0.00    -0.648 OA
ENDBRANCH  22  23
ENDBRANCH  21  22
ENDBRANCH   1  21
BRANCH   1  26
HETATM   26  N2  UNL     1      -9.617  15.864  25.916  1.00  0.00    -0.346 N
HETATM   27  C10 UNL     1      -9.860  16.141  24.537  1.00  0.00     0.241 C
HETATM   28  O4  UNL     1     -11.002  16.606  24.274  1.00  0.00    -0.271 OA
ATOM     29  H2  UNL     1      -8.710  15.478  26.177  1.00  0.00     0.163 HD
BRANCH  27  30
HETATM   30  C11 UNL     1      -8.851  15.904  23.474  1.00  0.00     0.181 C
HETATM   31  C12 UNL     1      -9.416  15.241  22.269  1.00  0.00     0.035 C
HETATM   32  C13 UNL     1      -9.410  16.042  21.022  1.00  0.00     0.004 C
HETATM   33  C14 UNL     1      -9.314  17.519  21.205  1.00  0.00     0.020 C
HETATM   34  C15 UNL     1      -8.340  17.979  22.215  1.00  0.00     0.129 C
HETATM   35  N3  UNL     1      -7.976  17.007  23.224  1.00  0.00    -0.315 N
HETATM   36  C16 UNL     1      -6.748  17.218  23.915  1.00  0.00     0.363 C
HETATM   37  O5  UNL     1      -6.359  16.412  24.814  1.00  0.00    -0.238 OA
BRANCH  36  38
HETATM   38  O6  UNL     1      -5.921  18.285  23.663  1.00  0.00    -0.298 OA
BRANCH  38  39
HETATM   39  C17 UNL     1      -4.549  18.284  23.464  1.00  0.00     0.137 C
HETATM   40  C18 UNL     1      -4.319  18.972  22.108  1.00  0.00     0.041 C
BRANCH  39  41
HETATM   41  C19 UNL     1      -3.778  19.015  24.540  1.00  0.00    -0.025 C
HETATM   42  C20 UNL     1      -4.676  19.943  25.323  1.00  0.00     0.017 C
HETATM   43  C21 UNL     1      -2.590  19.760  23.964  1.00  0.00     0.017 C
HETATM   44  C22 UNL     1      -3.233  17.977  25.499  1.00  0.00     0.017 C
ENDBRANCH  39  41
ENDBRANCH  38  39
ENDBRANCH  36  38
ENDBRANCH  27  30
ENDBRANCH   1  26
TORSDOF 13
ENDMDL