MODEL 2
REMARK VINA RESULT: -9.145672451      2.237      8.435
REMARK  12 active torsions:
REMARK  status: ('A' for Active; 'I' for Inactive)
REMARK    1  A    between atoms: C2_2  and  N1_3
REMARK       I    between atoms: N1_3  and  C3_5
REMARK    2  A    between atoms: C3_5  and  C4_7
REMARK    3  A    between atoms: N2_13  and  C10_14
REMARK    4  A    between atoms: C10_14  and  C11_15
REMARK    5  A    between atoms: C10_14  and  C12_18
REMARK    6  A    between atoms: C11_15  and  O2_16
REMARK       I    between atoms: C12_18  and  N3_20
REMARK       I    between atoms: N3_20  and  C13_22
REMARK    7  A    between atoms: C13_22  and  O5_24
REMARK    8  A    between atoms: O5_24  and  C14_25
REMARK    9  A    between atoms: C14_25  and  C15_26
REMARK   10  A    between atoms: C15_26  and  C16_27
REMARK   11  A    between atoms: C15_26  and  C22_33
REMARK   12  A    between atoms: C25_36  and  C26_37
ROOT
HETATM    1  C12 UNL     1      -9.193  17.117  28.350  1.00  0.00     0.262 C
HETATM    2  O3  UNL     1     -10.386  16.845  28.570  1.00  0.00    -0.271 OA
HETATM    3  N3  UNL     1      -8.287  17.215  29.432  1.00  0.00    -0.271 N
ATOM      4  H3  UNL     1      -7.334  17.514  29.226  1.00  0.00     0.174 HD
HETATM    5  C13 UNL     1      -8.610  16.925  30.789  1.00  0.00     0.367 C
HETATM    6  O4  UNL     1      -7.755  17.104  31.686  1.00  0.00    -0.238 OA
ENDROOT
BRANCH   5   7
HETATM    7  O5  UNL     1      -9.851  16.438  31.171  1.00  0.00    -0.303 OA
BRANCH   7   8
HETATM    8  C14 UNL     1      -9.921  15.079  31.671  1.00  0.00     0.185 C
BRANCH   8   9
HETATM    9  C15 UNL     1     -11.347  14.750  32.065  1.00  0.00     0.018 C
BRANCH   9  10
HETATM   10  C16 UNL     1     -12.043  14.059  30.930  1.00  0.00    -0.008 C
HETATM   11  C17 UNL     1     -13.114  14.836  30.242  1.00  0.00     0.005 C
HETATM   12  C18 UNL     1     -13.982  13.871  29.449  1.00  0.00     0.000 C
HETATM   13  C19 UNL     1     -13.140  12.990  28.582  1.00  0.00     0.000 C
HETATM   14  C20 UNL     1     -11.680  13.277  28.600  1.00  0.00     0.000 C
HETATM   15  C21 UNL     1     -11.166  13.223  30.048  1.00  0.00     0.005 C
ENDBRANCH   9  10
BRANCH   9  16
HETATM   16  C22 UNL     1     -11.253  13.966  33.341  1.00  0.00    -0.008 C
HETATM   17  C23 UNL     1     -12.581  13.492  33.899  1.00  0.00     0.005 C
HETATM   18  C24 UNL     1     -12.195  12.645  35.134  1.00  0.00     0.005 C
HETATM   19  C25 UNL     1     -11.816  13.642  36.211  1.00  0.00    -0.010 C
HETATM   20  C34 UNL     1     -10.527  14.284  35.747  1.00  0.00     0.005 C
HETATM   21  C35 UNL     1     -10.787  14.966  34.428  1.00  0.00     0.005 C
BRANCH  19  22
HETATM   22  C26 UNL     1     -11.624  12.945  37.546  1.00  0.00    -0.010 C
HETATM   23  C27 UNL     1     -11.547  11.442  37.251  1.00  0.00     0.005 C
HETATM   24  C28 UNL     1     -11.961  10.702  38.530  1.00  0.00     0.009 C
HETATM   25  C29 UNL     1     -13.486  10.685  38.494  1.00  0.00    -0.048 C
HETATM   26  C30 UNL     1     -14.094  10.332  39.830  1.00  0.00     0.015 C
HETATM   27  C31 UNL     1     -13.930   9.641  37.484  1.00  0.00     0.015 C
HETATM   28  C32 UNL     1     -13.934  12.073  38.069  1.00  0.00     0.009 C
HETATM   29  C33 UNL     1     -12.897  13.123  38.347  1.00  0.00     0.005 C
ENDBRANCH  19  22
ENDBRANCH   9  16
ENDBRANCH   8   9
ENDBRANCH   7   8
ENDBRANCH   5   7
BRANCH   1  30
HETATM   30  C10 UNL     1      -8.677  17.347  26.937  1.00  0.00     0.338 C
BRANCH  30  31
HETATM   31  N2  UNL     1      -8.559  16.090  26.363  1.00  0.00     0.114 N
HETATM   32  C6  UNL     1      -9.843  15.483  25.951  1.00  0.00     0.225 C
HETATM   33  C5  UNL     1     -10.125  16.137  24.657  1.00  0.00     0.052 C
HETATM   34  C7  UNL     1      -9.346  14.078  25.711  1.00  0.00     0.038 C
HETATM   35  C4  UNL     1      -8.718  16.294  24.065  1.00  0.00     0.113 C
HETATM   36  C9  UNL     1      -7.850  15.836  25.158  1.00  0.00     0.237 C
HETATM   37  C8  UNL     1      -7.904  14.297  25.209  1.00  0.00     0.039 C
BRANCH  35  38
HETATM   38  C3  UNL     1      -8.559  15.598  22.773  1.00  0.00     0.224 C
HETATM   39  N1  UNL     1      -7.352  15.799  22.053  1.00  0.00    -0.361 N
ATOM     40  H1  UNL     1      -6.638  16.393  22.474  1.00  0.00     0.162 HD
HETATM   41  O1  UNL     1      -9.429  14.840  22.259  1.00  0.00    -0.273 OA
BRANCH  39  42
HETATM   42  C2  UNL     1      -7.072  15.215  20.760  1.00  0.00     0.118 C
HETATM   43  C1  UNL     1      -7.313  16.183  19.620  1.00  0.00     0.026 C
ENDBRANCH  39  42
ENDBRANCH  35  38
ENDBRANCH  30  31
BRANCH  30  44
HETATM   44  C11 UNL     1      -7.500  18.236  27.070  1.00  0.00     0.210 C
BRANCH  44  45
HETATM   45  O2  UNL     1      -7.830  19.547  27.417  1.00  0.00    -0.398 OA
ATOM     46  H2  UNL     1      -7.699  20.169  26.711  1.00  0.00     0.209 HD
ENDBRANCH  44  45
ENDBRANCH  30  44
ENDBRANCH   1  30
TORSDOF 12
ENDMDL