MODEL 4
REMARK VINA RESULT: -8.984742026      4.941     11.507
REMARK  13 active torsions:
REMARK  status: ('A' for Active; 'I' for Inactive)
REMARK    1  A    between atoms: C2_2  and  C4_4
REMARK    2  A    between atoms: C7_7  and  C9_9
REMARK    3  A    between atoms: C14_14  and  C16_16
REMARK    4  A    between atoms: N2_19  and  C18_20
REMARK    5  A    between atoms: C18_20  and  C19_21
REMARK    6  A    between atoms: C19_21  and  O1_22
REMARK    7  A    between atoms: C19_21  and  C20_24
REMARK    8  A    between atoms: C20_24  and  C21_26
REMARK    9  A    between atoms: C21_26  and  C22_27
REMARK   10  A    between atoms: C22_27  and  O3_28
REMARK   11  A    between atoms: C22_27  and  C23_30
REMARK   12  A    between atoms: C23_30  and  N3_31
REMARK   13  A    between atoms: C25_36  and  C26_37
ROOT
HETATM    1  C9  UNL     1      -8.685  15.115  27.778  1.00  0.00     0.031 C
HETATM    2  C10 UNL     1      -7.531  15.425  28.732  1.00  0.00     0.009 C
HETATM    3  C11 UNL     1      -7.028  16.842  28.627  1.00  0.00     0.005 C
HETATM    4  C12 UNL     1      -6.688  17.300  27.252  1.00  0.00    -0.007 C
HETATM    5  C13 UNL     1      -5.266  17.664  27.029  1.00  0.00     0.014 C
HETATM    6  C14 UNL     1      -5.136  18.148  25.598  1.00  0.00    -0.039 C
HETATM    7  C15 UNL     1      -4.967  19.652  25.651  1.00  0.00     0.015 C
HETATM    8  C29 UNL     1      -6.358  17.864  24.760  1.00  0.00     0.010 C
HETATM    9  C30 UNL     1      -6.779  16.391  24.916  1.00  0.00     0.009 C
HETATM   10  C31 UNL     1      -7.128  16.177  26.320  1.00  0.00     0.027 C
HETATM   11  C32 UNL     1      -8.630  16.034  26.640  1.00  0.00     0.090 A
HETATM   12  C33 UNL     1      -9.487  16.417  25.636  1.00  0.00     0.207 A
HETATM   13  O4  UNL     1      -9.405  17.160  26.782  1.00  0.00    -0.374 OA
ENDROOT
BRANCH   6  14
HETATM   14  C16 UNL     1      -3.888  17.549  25.027  1.00  0.00     0.010 C
HETATM   15  C17 UNL     1      -4.064  16.818  23.733  1.00  0.00     0.114 C
HETATM   16  N1  UNL     1      -2.836  16.936  23.016  1.00  0.00    -0.238 NA
HETATM   17  N2  UNL     1      -2.837  17.541  21.779  1.00  0.00    -0.244 NA
HETATM   18  C25 UNL     1      -2.100  18.049  23.528  1.00  0.00     0.041 C
HETATM   19  C24 UNL     1      -2.291  18.795  22.213  1.00  0.00     0.135 C
HETATM   20  C28 UNL     1      -2.901  18.639  24.672  1.00  0.00     0.034 C
BRANCH  17  21
HETATM   21  C18 UNL     1      -4.047  17.561  21.021  1.00  0.00     0.147 C
BRANCH  21  22
HETATM   22  C19 UNL     1      -4.109  16.331  20.150  1.00  0.00     0.202 C
BRANCH  22  23
HETATM   23  O1  UNL     1      -3.586  15.263  20.886  1.00  0.00    -0.387 OA
ATOM     24  H1  UNL     1      -4.287  14.915  21.425  1.00  0.00     0.210 HD
ENDBRANCH  22  23
BRANCH  22  25
HETATM   25  C20 UNL     1      -5.447  16.020  19.627  1.00  0.00     0.159 C
HETATM   26  O2  UNL     1      -5.667  16.114  18.439  1.00  0.00    -0.295 OA
BRANCH  25  27
HETATM   27  C21 UNL     1      -6.523  15.593  20.555  1.00  0.00     0.114 C
BRANCH  27  28
HETATM   28  C22 UNL     1      -7.368  16.811  20.936  1.00  0.00     0.150 C
BRANCH  28  29
HETATM   29  O3  UNL     1      -7.564  17.569  19.810  1.00  0.00    -0.394 OA
ATOM     30  H3  UNL     1      -7.955  17.017  19.143  1.00  0.00     0.210 HD
ENDBRANCH  28  29
BRANCH  28  31
HETATM   31  C23 UNL     1      -8.633  16.370  21.608  1.00  0.00     0.261 C
BRANCH  31  32
HETATM   32  N3  UNL     1      -9.618  16.016  20.602  1.00  0.00    -0.077 N
ATOM     33  H33 UNL     1     -10.474  15.646  21.014  1.00  0.00     0.274 HD
ATOM     34  H32 UNL     1     -10.017  16.838  20.147  1.00  0.00     0.274 HD
ATOM     35  H31 UNL     1      -9.202  15.369  19.931  1.00  0.00     0.274 HD
ENDBRANCH  31  32
ENDBRANCH  28  31
ENDBRANCH  27  28
ENDBRANCH  25  27
ENDBRANCH  22  25
ENDBRANCH  21  22
ENDBRANCH  17  21
BRANCH  18  36
HETATM   36  C26 UNL     1      -0.645  17.846  23.806  1.00  0.00     0.023 C
HETATM   37  C27 UNL     1      -0.159  18.601  25.024  1.00  0.00     0.007 C
ENDBRANCH  18  36
ENDBRANCH   6  14
BRANCH   1  38
HETATM   38  C7  UNL     1      -9.890  14.850  28.567  1.00  0.00    -0.037 C
HETATM   39  C6  UNL     1      -9.673  14.033  29.818  1.00  0.00     0.010 C
HETATM   40  C5  UNL     1     -10.945  13.697  30.517  1.00  0.00     0.010 C
HETATM   41  C4  UNL     1     -11.767  14.932  30.879  1.00  0.00     0.017 C
HETATM   42  C35 UNL     1     -11.883  15.899  29.761  1.00  0.00    -0.010 C
HETATM   43  C34 UNL     1     -10.549  16.129  29.100  1.00  0.00     0.014 C
HETATM   44  C36 UNL     1     -13.056  15.817  28.872  1.00  0.00     0.010 C
HETATM   45  C8  UNL     1     -10.847  14.135  27.621  1.00  0.00     0.015 C
BRANCH  41  46
HETATM   46  C2  UNL     1     -13.043  14.478  31.486  1.00  0.00    -0.089 C
HETATM   47  C1  UNL     1     -13.479  15.003  32.629  1.00  0.00     0.014 C
HETATM   48  C3  UNL     1     -13.914  13.403  30.920  1.00  0.00     0.043 C
ENDBRANCH  41  46
ENDBRANCH   1  38
TORSDOF 13
ENDMDL