MODEL 5
REMARK VINA RESULT: -8.817507015      1.207      1.392
REMARK  11 active torsions:
REMARK  status: ('A' for Active; 'I' for Inactive)
REMARK    1  A    between atoms: C2_2  and  C3_3
REMARK    2  A    between atoms: C3_3  and  C4_4
REMARK    3  A    between atoms: C4_4  and  N1_5
REMARK    4  A    between atoms: N1_5  and  C5_6
REMARK    5  A    between atoms: N1_5  and  C7_8
REMARK    6  A    between atoms: C16_17  and  O1_18
REMARK    7  A    between atoms: O1_18  and  C17_19
REMARK       I    between atoms: C17_19  and  N2_21
REMARK    8  A    between atoms: N2_21  and  C18_23
REMARK    9  A    between atoms: C18_23  and  C19_24
REMARK   10  A    between atoms: C20_27  and  O4_28
REMARK   11  A    between atoms: C31_39  and  O5_40
ROOT
HETATM    1  C7  UNL     1     -10.783  14.668  31.767  1.00  0.00     0.092 C
HETATM    2  C8  UNL     1     -10.704  15.393  30.476  1.00  0.00     0.014 C
HETATM    3  C9  UNL     1      -9.685  16.438  30.291  1.00  0.00     0.007 C
HETATM    4  C10 UNL     1      -9.697  16.962  28.900  1.00  0.00     0.006 C
HETATM    5  C11 UNL     1     -10.205  16.087  27.805  1.00  0.00     0.003 C
HETATM    6  C12 UNL     1      -9.560  16.590  26.507  1.00  0.00    -0.034 C
HETATM    7  C13 UNL     1      -9.469  18.133  26.590  1.00  0.00     0.016 C
HETATM    8  C14 UNL     1     -10.378  16.332  25.301  1.00  0.00     0.012 C
HETATM    9  C15 UNL     1      -9.732  15.722  24.131  1.00  0.00     0.036 C
HETATM   10  C16 UNL     1      -8.267  15.838  23.967  1.00  0.00     0.163 C
HETATM   11  C20 UNL     1      -7.558  16.511  25.107  1.00  0.00     0.155 C
HETATM   12  C22 UNL     1      -8.132  16.156  26.442  1.00  0.00     0.026 C
HETATM   13  C23 UNL     1      -7.868  14.741  26.864  1.00  0.00     0.009 C
HETATM   14  C24 UNL     1      -8.541  14.356  28.128  1.00  0.00     0.010 C
HETATM   15  C25 UNL     1     -10.048  14.672  28.112  1.00  0.00    -0.035 C
HETATM   16  C26 UNL     1     -10.523  13.636  27.139  1.00  0.00     0.016 C
HETATM   17  C27 UNL     1     -10.738  14.352  29.381  1.00  0.00     0.005 C
HETATM   18  C28 UNL     1     -12.116  13.830  29.339  1.00  0.00     0.002 C
HETATM   19  C29 UNL     1     -13.247  14.655  28.939  1.00  0.00     0.008 C
HETATM   20  C30 UNL     1     -14.459  13.892  29.487  1.00  0.00     0.033 C
HETATM   21  C31 UNL     1     -13.917  12.878  30.439  1.00  0.00     0.127 C
HETATM   22  C32 UNL     1     -12.474  13.254  30.709  1.00  0.00    -0.009 C
HETATM   23  C33 UNL     1     -11.791  11.913  30.939  1.00  0.00     0.018 C
HETATM   24  C34 UNL     1     -12.219  14.128  31.860  1.00  0.00     0.016 C
HETATM   25  C35 UNL     1     -13.218  15.153  32.222  1.00  0.00     0.013 C
ENDROOT
BRANCH  10  26
HETATM   26  O1  UNL     1      -7.937  16.568  22.802  1.00  0.00    -0.296 OA
BRANCH  26  27
HETATM   27  C17 UNL     1      -6.764  17.299  22.710  1.00  0.00     0.361 C
HETATM   28  O2  UNL     1      -6.852  18.537  22.976  1.00  0.00    -0.238 OA
HETATM   29  N2  UNL     1      -5.540  16.709  22.343  1.00  0.00    -0.329 N
ATOM     30  H2  UNL     1      -5.526  15.709  22.138  1.00  0.00     0.165 HD
BRANCH  29  31
HETATM   31  C18 UNL     1      -4.308  17.447  22.245  1.00  0.00     0.224 C
BRANCH  31  32
HETATM   32  C19 UNL     1      -3.433  17.349  23.422  1.00  0.00     0.248 C
HETATM   33  N3  UNL     1      -2.803  16.154  23.852  1.00  0.00    -0.061 NA
HETATM   34  O3  UNL     1      -3.195  18.377  24.133  1.00  0.00    -0.275 OA
ENDBRANCH  31  32
ENDBRANCH  29  31
ENDBRANCH  26  27
ENDBRANCH  10  26
BRANCH  11  35
HETATM   35  O4  UNL     1      -6.197  16.281  25.092  1.00  0.00    -0.388 OA
HETATM   36  C21 UNL     1      -5.542  16.957  26.140  1.00  0.00     0.202 C
ENDBRANCH  11  35
BRANCH   1  37
HETATM   37  N1  UNL     1     -10.242  15.194  32.927  1.00  0.00    -0.388 N
BRANCH  37  38
HETATM   38  C4  UNL     1     -10.981  15.407  34.099  1.00  0.00     0.058 C
BRANCH  38  39
HETATM   39  C3  UNL     1     -10.494  14.510  35.231  1.00  0.00     0.044 C
BRANCH  39  40
HETATM   40  C2  UNL     1     -11.678  13.656  35.720  1.00  0.00     0.001 C
HETATM   41  C1  UNL     1     -11.397  12.194  35.672  1.00  0.00     0.005 C
ENDBRANCH  39  40
ENDBRANCH  38  39
ENDBRANCH  37  38
BRANCH  37  42
HETATM   42  C5  UNL     1      -8.869  15.018  33.221  1.00  0.00     0.118 C
HETATM   43  C6  UNL     1      -8.094  14.021  32.442  1.00  0.00     0.026 C
ENDBRANCH  37  42
ENDBRANCH   1  37
BRANCH  21  44
HETATM   44  O5  UNL     1     -14.667  12.576  31.533  1.00  0.00    -0.395 OA
ATOM     45  H5  UNL     1     -14.778  13.252  32.190  1.00  0.00     0.210 HD
ENDBRANCH  21  44
TORSDOF 11
ENDMDL