MODEL 2
REMARK VINA RESULT: -8.790452177      0.901      1.173
REMARK  15 active torsions:
REMARK  status: ('A' for Active; 'I' for Inactive)
REMARK    1  A    between atoms: C2_2  and  C3_3
REMARK    2  A    between atoms: C3_3  and  N1_5
REMARK       I    between atoms: N1_5  and  C5_7
REMARK       I    between atoms: C5_7  and  N2_9
REMARK    3  A    between atoms: N2_9  and  C6_10
REMARK    4  A    between atoms: C7_11  and  C8_12
REMARK    5  A    between atoms: C12_16  and  C13_17
REMARK       I    between atoms: C13_17  and  N3_19
REMARK    6  A    between atoms: N3_19  and  C14_21
REMARK    7  A    between atoms: C14_21  and  O3_24
REMARK    8  A    between atoms: C17_26  and  N4_27
REMARK       I    between atoms: N4_27  and  C18_29
REMARK    9  A    between atoms: C18_29  and  C19_31
REMARK   10  A    between atoms: C19_31  and  C20_32
REMARK   11  A    between atoms: C20_32  and  C21_33
REMARK   12  A    between atoms: C21_33  and  C22_34
REMARK   13  A    between atoms: C22_34  and  C23_35
REMARK   14  A    between atoms: C23_35  and  O5_36
REMARK   15  A    between atoms: N6_40  and  C25_41
ROOT
HETATM    1  C6  UNL     1      -8.041  16.017  25.795  1.00  0.00     0.214 A
HETATM    2  C7  UNL     1      -8.037  15.940  27.233  1.00  0.00     0.029 A
HETATM    3  C12 UNL     1      -8.866  15.034  27.791  1.00  0.00     0.089 A
HETATM    4  C17 UNL     1      -9.708  14.199  26.999  1.00  0.00     0.139 A
HETATM    5  N5  UNL     1      -9.668  14.320  25.688  1.00  0.00    -0.276 N
ATOM      6  H5  UNL     1     -10.274  13.722  25.126  1.00  0.00     0.189 HD
HETATM    7  N6  UNL     1      -8.867  15.195  25.056  1.00  0.00    -0.234 N
ENDROOT
BRANCH   4   8
HETATM    8  N4  UNL     1     -10.483  13.360  27.597  1.00  0.00    -0.311 N
HETATM    9  C18 UNL     1     -11.833  13.484  27.878  1.00  0.00     0.223 C
HETATM   10  O4  UNL     1     -12.318  14.492  28.426  1.00  0.00    -0.273 OA
ATOM     11  H4  UNL     1     -10.044  12.493  27.903  1.00  0.00     0.170 HD
BRANCH   9  12
HETATM   12  C19 UNL     1     -12.843  12.378  27.537  1.00  0.00     0.103 C
BRANCH  12  13
HETATM   13  C20 UNL     1     -12.231  11.070  27.819  1.00  0.00     0.009 C
BRANCH  13  14
HETATM   14  C21 UNL     1     -12.140  10.564  29.177  1.00  0.00     0.002 C
BRANCH  14  15
HETATM   15  C22 UNL     1     -13.284  10.607  30.095  1.00  0.00     0.026 C
BRANCH  15  16
HETATM   16  C23 UNL     1     -13.020  11.126  31.463  1.00  0.00     0.167 C
BRANCH  16  17
HETATM   17  O5  UNL     1     -12.742  12.521  31.286  1.00  0.00    -0.396 OA
HETATM   18  C24 UNL     1     -13.985  13.156  31.162  1.00  0.00     0.201 C
ENDBRANCH  16  17
ENDBRANCH  15  16
ENDBRANCH  14  15
ENDBRANCH  13  14
ENDBRANCH  12  13
ENDBRANCH   9  12
ENDBRANCH   4   8
BRANCH   3  19
HETATM   19  C13 UNL     1      -8.924  14.703  29.196  1.00  0.00     0.258 C
HETATM   20  O2  UNL     1      -8.140  13.882  29.661  1.00  0.00    -0.267 OA
HETATM   21  N3  UNL     1      -9.866  15.300  30.068  1.00  0.00    -0.326 N
ATOM     22  H3  UNL     1     -10.509  15.976  29.655  1.00  0.00     0.165 HD
BRANCH  21  23
HETATM   23  C14 UNL     1     -10.006  15.054  31.455  1.00  0.00     0.126 C
HETATM   24  C15 UNL     1      -8.810  15.628  32.221  1.00  0.00     0.070 C
HETATM   25  C16 UNL     1     -11.243  15.513  32.122  1.00  0.00     0.070 C
BRANCH  23  26
HETATM   26  O3  UNL     1      -9.903  13.656  31.682  1.00  0.00    -0.372 OA
ATOM     27  H3  UNL     1     -10.421  13.201  31.028  1.00  0.00     0.212 HD
ENDBRANCH  23  26
ENDBRANCH  21  23
ENDBRANCH   3  19
BRANCH   2  28
HETATM   28  C8  UNL     1      -7.208  16.878  27.942  1.00  0.00    -0.018 C
HETATM   29  C9  UNL     1      -5.731  16.495  27.756  1.00  0.00     0.019 C
HETATM   30  C10 UNL     1      -7.357  17.181  29.372  1.00  0.00     0.019 C
HETATM   31  C11 UNL     1      -7.416  18.284  27.288  1.00  0.00     0.019 C
ENDBRANCH   2  28
BRANCH   7  32
HETATM   32  C25 UNL     1      -8.909  15.218  23.638  1.00  0.00     0.015 C
HETATM   33  C26 UNL     1      -8.294  14.067  22.892  1.00  0.00     0.055 C
HETATM   34  C27 UNL     1      -7.730  14.674  21.583  1.00  0.00     0.014 C
HETATM   35  C28 UNL     1      -8.719  15.494  20.839  1.00  0.00    -0.047 C
HETATM   36  C29 UNL     1      -9.601  14.665  19.920  1.00  0.00     0.015 C
HETATM   37  C30 UNL     1      -7.910  16.401  19.897  1.00  0.00     0.015 C
HETATM   38  C31 UNL     1      -9.572  16.415  21.657  1.00  0.00     0.014 C
HETATM   39  C32 UNL     1     -10.122  15.635  22.903  1.00  0.00     0.055 C
ENDBRANCH   7  32
BRANCH   1  40
HETATM   40  N2  UNL     1      -7.337  16.740  25.146  1.00  0.00    -0.331 NA
HETATM   41  C5  UNL     1      -6.557  17.525  24.399  1.00  0.00     0.396 C
HETATM   42  N1  UNL     1      -5.098  17.396  24.461  1.00  0.00    -0.327 N
HETATM   43  O1  UNL     1      -6.962  18.441  23.585  1.00  0.00    -0.230 OA
ATOM     44  H1  UNL     1      -4.702  16.692  25.084  1.00  0.00     0.165 HD
BRANCH  42  45
HETATM   45  C3  UNL     1      -4.205  18.200  23.701  1.00  0.00     0.082 C
HETATM   46  C4  UNL     1      -3.856  17.577  22.359  1.00  0.00     0.032 C
BRANCH  45  47
HETATM   47  C2  UNL     1      -2.895  18.460  24.433  1.00  0.00     0.020 C
HETATM   48  C1  UNL     1      -2.562  17.335  25.387  1.00  0.00     0.007 C
ENDBRANCH  45  47
ENDBRANCH  42  45
ENDBRANCH   1  40
TORSDOF 15
ENDMDL