MODEL 4
REMARK VINA RESULT: -8.662094196      2.282     10.600
REMARK  14 active torsions:
REMARK  status: ('A' for Active; 'I' for Inactive)
REMARK    1  A    between atoms: C4_4  and  C5_5
REMARK    2  A    between atoms: C10_10  and  C11_11
REMARK    3  A    between atoms: C12_12  and  C13_13
REMARK    4  A    between atoms: C15_15  and  O1_16
REMARK    5  A    between atoms: C17_19  and  C18_20
REMARK       I    between atoms: C18_20  and  N1_22
REMARK    6  A    between atoms: C19_24  and  C20_25
REMARK    7  A    between atoms: C19_24  and  C29_38
REMARK    8  A    between atoms: C20_25  and  C21_26
REMARK    9  A    between atoms: C21_26  and  C22_27
REMARK   10  A    between atoms: C22_27  and  C23_28
REMARK   11  A    between atoms: C23_28  and  N2_29
REMARK       I    between atoms: N2_29  and  C24_31
REMARK   12  A    between atoms: C24_31  and  O4_33
REMARK   13  A    between atoms: O4_33  and  C25_34
REMARK       I    between atoms: C29_38  and  N3_40
REMARK   14  A    between atoms: N3_40  and  C30_42
ROOT
HETATM    1  C18 UNL     1      -8.889  14.718  24.571  1.00  0.00     0.227 C
HETATM    2  O2  UNL     1      -7.947  13.919  24.324  1.00  0.00    -0.273 OA
HETATM    3  N1  UNL     1      -9.688  14.400  25.694  1.00  0.00    -0.326 N
ATOM      4  H1  UNL     1     -10.292  13.585  25.590  1.00  0.00     0.168 HD
HETATM    5  C19 UNL     1      -9.756  14.990  26.809  1.00  0.00     0.080 C
ENDROOT
BRANCH   1   6
HETATM    6  C17 UNL     1      -9.191  15.914  23.793  1.00  0.00     0.088 C
HETATM    7  C13 UNL     1      -8.134  16.398  22.870  1.00  0.00     0.023 C
HETATM    8  C14 UNL     1      -8.108  15.345  21.780  1.00  0.00     0.041 C
HETATM    9  C15 UNL     1      -9.593  15.170  21.511  1.00  0.00     0.119 C
HETATM   10  C16 UNL     1     -10.297  15.510  22.800  1.00  0.00     0.046 C
BRANCH   7  11
HETATM   11  C12 UNL     1      -6.820  16.678  23.447  1.00  0.00    -0.024 C
HETATM   12  C11 UNL     1      -5.904  17.284  22.719  1.00  0.00    -0.012 C
BRANCH  12  13
HETATM   13  C10 UNL     1      -4.601  17.571  23.262  1.00  0.00     0.045 C
HETATM   14  C5  UNL     1      -3.479  17.681  22.221  1.00  0.00     0.029 C
HETATM   15  C6  UNL     1      -2.350  18.060  23.125  1.00  0.00     0.022 C
HETATM   16  C7  UNL     1      -3.017  18.737  24.341  1.00  0.00     0.057 C
HETATM   17  C8  UNL     1      -3.273  17.596  25.317  1.00  0.00     0.013 C
HETATM   18  C34 UNL     1      -4.398  18.916  23.851  1.00  0.00     0.144 C
HETATM   19  C9  UNL     1      -4.160  16.700  24.432  1.00  0.00     0.023 C
HETATM   20  O6  UNL     1      -5.117  19.840  23.910  1.00  0.00    -0.296 OA
BRANCH  14  21
HETATM   21  C4  UNL     1      -3.366  16.581  21.313  1.00  0.00    -0.019 C
HETATM   22  C2  UNL     1      -3.760  16.325  20.108  1.00  0.00    -0.091 C
HETATM   23  C1  UNL     1      -4.533  17.243  19.267  1.00  0.00     0.042 C
HETATM   24  C3  UNL     1      -3.420  15.001  19.491  1.00  0.00     0.042 C
ENDBRANCH  14  21
ENDBRANCH  12  13
ENDBRANCH   7  11
BRANCH   9  25
HETATM   25  O1  UNL     1      -9.988  16.095  20.535  1.00  0.00    -0.396 OA
ATOM     26  H1  UNL     1     -10.114  16.941  20.948  1.00  0.00     0.210 HD
ENDBRANCH   9  25
ENDBRANCH   1   6
BRANCH   5  27
HETATM   27  C20 UNL     1      -8.991  16.191  27.218  1.00  0.00     0.063 C
BRANCH  27  28
HETATM   28  C21 UNL     1      -7.630  15.869  27.793  1.00  0.00     0.008 C
BRANCH  28  29
HETATM   29  C22 UNL     1      -7.335  16.701  29.014  1.00  0.00     0.020 C
BRANCH  29  30
HETATM   30  C23 UNL     1      -8.579  16.959  29.835  1.00  0.00     0.125 C
BRANCH  30  31
HETATM   31  N2  UNL     1      -8.823  15.892  30.779  1.00  0.00    -0.337 N
HETATM   32  C24 UNL     1      -8.474  15.992  32.153  1.00  0.00     0.361 C
HETATM   33  O3  UNL     1      -7.929  17.014  32.634  1.00  0.00    -0.238 OA
ATOM     34  H2  UNL     1      -9.262  15.034  30.446  1.00  0.00     0.164 HD
BRANCH  32  35
HETATM   35  O4  UNL     1      -8.720  14.951  33.045  1.00  0.00    -0.294 OA
BRANCH  35  36
HETATM   36  C25 UNL     1      -9.824  14.968  33.900  1.00  0.00     0.061 C
HETATM   37  C26 UNL     1      -9.861  13.647  34.675  1.00  0.00     0.046 C
HETATM   38  C27 UNL     1      -9.736  16.052  34.961  1.00  0.00     0.046 C
HETATM   39  C28 UNL     1     -11.139  15.117  33.199  1.00  0.00     0.046 C
ENDBRANCH  35  36
ENDBRANCH  32  35
ENDBRANCH  30  31
ENDBRANCH  29  30
ENDBRANCH  28  29
ENDBRANCH  27  28
ENDBRANCH   5  27
BRANCH   5  40
HETATM   40  C29 UNL     1     -10.710  14.422  27.785  1.00  0.00     0.264 C
HETATM   41  O5  UNL     1     -11.189  15.136  28.692  1.00  0.00    -0.266 OA
HETATM   42  N3  UNL     1     -11.107  13.049  27.718  1.00  0.00    -0.348 N
ATOM     43  H3  UNL     1     -10.735  12.445  26.985  1.00  0.00     0.163 HD
BRANCH  42  44
HETATM   44  C30 UNL     1     -12.030  12.524  28.685  1.00  0.00     0.022 C
HETATM   45  C31 UNL     1     -11.544  12.754  30.108  1.00  0.00     0.037 C
HETATM   46  C32 UNL     1     -13.392  13.187  28.593  1.00  0.00     0.037 C
HETATM   47  C33 UNL     1     -12.244  11.052  28.415  1.00  0.00     0.037 C
ENDBRANCH  42  44
ENDBRANCH   5  40
TORSDOF 14
ENDMDL