MODEL 3
REMARK VINA RESULT: -9.039857984      3.350      9.888
REMARK  13 active torsions:
REMARK  status: ('A' for Active; 'I' for Inactive)
REMARK    1  A    between atoms: C2_2  and  C4_4
REMARK    2  A    between atoms: C4_4  and  C5_6
REMARK    3  A    between atoms: C6_7  and  C7_8
REMARK    4  A    between atoms: C7_8  and  C9_10
REMARK    5  A    between atoms: C9_10  and  C11_12
REMARK    6  A    between atoms: C11_12  and  O2_13
REMARK    7  A    between atoms: C11_12  and  C12_15
REMARK    8  A    between atoms: C12_15  and  C14_17
REMARK    9  A    between atoms: C23_27  and  O4_28
REMARK   10  A    between atoms: C26_32  and  C27_33
REMARK   11  A    between atoms: C27_33  and  C29_35
REMARK   12  A    between atoms: C30_36  and  C31_37
REMARK       I    between atoms: C31_37  and  N1_39
REMARK   13  A    between atoms: C34_42  and  C35_43
ROOT
HETATM    1  C14 UNL     1     -11.487  13.680  29.341  1.00  0.00     0.071 C
HETATM    2  C15 UNL     1     -10.154  13.668  28.627  1.00  0.00     0.141 C
HETATM    3  O3  UNL     1      -9.114  13.035  28.697  1.00  0.00    -0.297 OA
HETATM    4  C16 UNL     1     -10.663  14.779  27.794  1.00  0.00     0.095 C
HETATM    5  C17 UNL     1      -9.775  15.940  27.595  1.00  0.00    -0.040 A
HETATM    6  C18 UNL     1     -10.011  17.079  28.136  1.00  0.00    -0.040 A
HETATM    7  C19 UNL     1     -11.205  17.354  29.015  1.00  0.00     0.038 C
HETATM    8  C20 UNL     1     -11.413  16.087  29.784  1.00  0.00     0.015 C
HETATM    9  C21 UNL     1     -11.762  14.985  28.790  1.00  0.00    -0.019 C
HETATM   10  C22 UNL     1     -13.028  15.348  28.115  1.00  0.00     0.017 C
HETATM   11  C23 UNL     1      -8.793  17.711  27.599  1.00  0.00     0.103 A
HETATM   12  C24 UNL     1      -7.819  17.829  28.764  1.00  0.00     0.045 C
HETATM   13  C25 UNL     1      -7.294  16.426  28.896  1.00  0.00     0.010 C
HETATM   14  C26 UNL     1      -7.237  15.988  27.393  1.00  0.00     0.020 C
HETATM   15  C34 UNL     1      -8.555  16.440  26.888  1.00  0.00     0.112 A
ENDROOT
BRANCH   1  16
HETATM   16  C12 UNL     1     -12.273  12.443  29.091  1.00  0.00     0.022 C
HETATM   17  C13 UNL     1     -12.762  12.216  27.725  1.00  0.00     0.013 C
BRANCH  16  18
HETATM   18  C11 UNL     1     -13.234  12.234  30.227  1.00  0.00     0.127 C
BRANCH  18  19
HETATM   19  C9  UNL     1     -12.645  12.085  31.579  1.00  0.00     0.018 C
HETATM   20  C10 UNL     1     -12.905  10.815  32.303  1.00  0.00     0.013 C
BRANCH  19  21
HETATM   21  C7  UNL     1     -13.231  13.203  32.447  1.00  0.00     0.010 C
HETATM   22  C8  UNL     1     -13.738  12.716  33.769  1.00  0.00     0.015 C
BRANCH  21  23
HETATM   23  C6  UNL     1     -12.276  14.299  32.645  1.00  0.00    -0.018 C
HETATM   24  C5  UNL     1     -11.218  14.245  33.421  1.00  0.00     0.047 C
BRANCH  24  25
HETATM   25  C4  UNL     1     -10.320  15.372  33.566  1.00  0.00     0.152 C
HETATM   26  O1  UNL     1     -10.435  16.118  34.566  1.00  0.00    -0.293 OA
BRANCH  25  27
HETATM   27  C2  UNL     1      -9.267  15.650  32.544  1.00  0.00     0.051 C
HETATM   28  C1  UNL     1      -8.685  14.387  31.992  1.00  0.00     0.018 C
HETATM   29  C3  UNL     1      -8.238  16.618  33.056  1.00  0.00     0.018 C
ENDBRANCH  25  27
ENDBRANCH  24  25
ENDBRANCH  21  23
ENDBRANCH  19  21
ENDBRANCH  18  19
BRANCH  18  30
HETATM   30  O2  UNL     1     -14.027  13.421  30.319  1.00  0.00    -0.395 OA
ATOM     31  H2  UNL     1     -14.224  13.639  29.415  1.00  0.00     0.210 HD
ENDBRANCH  18  30
ENDBRANCH  16  18
ENDBRANCH   1  16
BRANCH  15  32
HETATM   32  C35 UNL     1      -8.749  16.396  25.419  1.00  0.00     0.190 C
HETATM   33  O6  UNL     1      -8.861  17.460  24.784  1.00  0.00    -0.647 OA
HETATM   34  O7  UNL     1      -8.797  15.187  24.771  1.00  0.00    -0.647 OA
ENDBRANCH  15  32
BRANCH  11  35
HETATM   35  O4  UNL     1      -8.970  18.856  26.859  1.00  0.00    -0.384 OA
ATOM     36  H4  UNL     1      -8.406  18.965  26.103  1.00  0.00     0.211 HD
ENDBRANCH  11  35
BRANCH  14  37
HETATM   37  C27 UNL     1      -6.103  16.839  26.863  1.00  0.00     0.010 C
HETATM   38  C28 UNL     1      -4.908  16.689  27.834  1.00  0.00     0.014 C
BRANCH  37  39
HETATM   39  C29 UNL     1      -5.576  16.474  25.551  1.00  0.00    -0.017 C
HETATM   40  C30 UNL     1      -5.001  17.422  24.797  1.00  0.00     0.070 C
BRANCH  40  41
HETATM   41  C31 UNL     1      -4.461  17.107  23.482  1.00  0.00     0.242 C
HETATM   42  O5  UNL     1      -3.302  16.636  23.413  1.00  0.00    -0.268 OA
HETATM   43  N1  UNL     1      -5.217  17.323  22.314  1.00  0.00    -0.357 N
HETATM   44  C32 UNL     1      -4.637  16.994  21.029  1.00  0.00     0.152 C
HETATM   45  C33 UNL     1      -6.564  17.867  22.343  1.00  0.00     0.152 C
ENDBRANCH  40  41
ENDBRANCH  37  39
ENDBRANCH  14  37
TORSDOF 13
ENDMDL