MODEL 1
REMARK VINA RESULT: -9.198413725      0.000      0.000
REMARK  12 active torsions:
REMARK  status: ('A' for Active; 'I' for Inactive)
REMARK    1  A    between atoms: O1_2  and  C2_3
REMARK    2  A    between atoms: C11_12  and  C12_13
REMARK    3  A    between atoms: C12_13  and  C14_15
REMARK    4  A    between atoms: C14_15  and  C15_16
REMARK    5  A    between atoms: C15_16  and  C16_17
REMARK       I    between atoms: C16_17  and  N1_19
REMARK    6  A    between atoms: N1_19  and  C17_21
REMARK    7  A    between atoms: C17_21  and  C18_22
REMARK    8  A    between atoms: C18_22  and  C19_23
REMARK    9  A    between atoms: C19_23  and  N2_24
REMARK   10  A    between atoms: C31_37  and  C33_39
REMARK   11  A    between atoms: C34_42  and  C35_43
REMARK   12  A    between atoms: C35_43  and  O6_44
ROOT
HETATM    1  C2  UNL     1      -9.368  15.932  25.048  1.00  0.00     0.129 C
HETATM    2  C3  UNL     1     -10.141  14.988  25.917  1.00  0.00     0.042 C
HETATM    3  C4  UNL     1      -9.582  14.800  27.304  1.00  0.00    -0.033 C
HETATM    4  C5  UNL     1      -8.615  13.667  27.292  1.00  0.00     0.016 C
HETATM    5  C6  UNL     1     -10.810  14.434  28.166  1.00  0.00    -0.001 C
HETATM    6  C7  UNL     1     -11.606  13.316  27.599  1.00  0.00     0.006 C
HETATM    7  C8  UNL     1     -12.766  13.094  28.515  1.00  0.00     0.010 C
HETATM    8  C9  UNL     1     -12.328  12.675  29.929  1.00  0.00    -0.036 C
HETATM    9  C10 UNL     1     -11.639  11.362  29.730  1.00  0.00     0.016 C
HETATM   10  C11 UNL     1     -13.543  12.714  30.742  1.00  0.00    -0.002 C
HETATM   11  C24 UNL     1     -13.525  14.163  31.283  1.00  0.00     0.006 C
HETATM   12  C25 UNL     1     -12.095  14.547  31.385  1.00  0.00     0.006 C
HETATM   13  C26 UNL     1     -11.319  13.633  30.500  1.00  0.00    -0.002 C
HETATM   14  C27 UNL     1     -10.370  14.268  29.565  1.00  0.00    -0.005 C
HETATM   15  C28 UNL     1      -9.967  15.669  30.057  1.00  0.00     0.006 C
HETATM   16  C29 UNL     1      -8.667  15.998  29.299  1.00  0.00     0.007 C
HETATM   17  C30 UNL     1      -9.074  16.094  27.846  1.00  0.00     0.013 C
HETATM   18  C31 UNL     1      -8.062  16.813  26.987  1.00  0.00     0.057 C
HETATM   19  C32 UNL     1      -6.647  16.725  27.561  1.00  0.00     0.028 C
HETATM   20  C34 UNL     1      -8.006  16.261  25.598  1.00  0.00     0.057 C
ENDROOT
BRANCH  10  21
HETATM   21  C12 UNL     1     -13.861  11.819  31.826  1.00  0.00    -0.013 C
HETATM   22  C13 UNL     1     -15.169  11.122  31.904  1.00  0.00     0.010 C
BRANCH  21  23
HETATM   23  C14 UNL     1     -13.495  12.320  33.204  1.00  0.00     0.014 C
BRANCH  23  24
HETATM   24  C15 UNL     1     -13.049  11.180  34.095  1.00  0.00     0.103 C
BRANCH  24  25
HETATM   25  C16 UNL     1     -12.266  11.684  35.281  1.00  0.00     0.217 C
HETATM   26  O2  UNL     1     -11.430  10.914  35.779  1.00  0.00    -0.274 OA
HETATM   27  N1  UNL     1     -12.548  12.992  35.724  1.00  0.00    -0.361 N
ATOM     28  H1  UNL     1     -13.254  13.543  35.236  1.00  0.00     0.162 HD
BRANCH  27  29
HETATM   29  C17 UNL     1     -11.859  13.567  36.853  1.00  0.00     0.124 C
BRANCH  29  30
HETATM   30  C18 UNL     1     -10.714  14.412  36.381  1.00  0.00     0.050 C
BRANCH  30  31
HETATM   31  C19 UNL     1     -11.190  15.121  35.097  1.00  0.00     0.274 C
BRANCH  31  32
HETATM   32  N2  UNL     1     -10.128  15.286  34.174  1.00  0.00     0.092 N
HETATM   33  C20 UNL     1      -9.276  16.406  34.418  1.00  0.00     0.298 C
HETATM   34  C21 UNL     1      -8.239  16.449  33.293  1.00  0.00     0.198 C
HETATM   35  O3  UNL     1      -7.518  15.265  33.216  1.00  0.00    -0.388 OA
HETATM   36  C22 UNL     1      -8.347  14.217  32.901  1.00  0.00     0.198 C
HETATM   37  C23 UNL     1      -9.394  14.064  34.012  1.00  0.00     0.298 C
ENDBRANCH  31  32
ENDBRANCH  30  31
ENDBRANCH  29  30
ENDBRANCH  27  29
ENDBRANCH  24  25
ENDBRANCH  23  24
ENDBRANCH  21  23
ENDBRANCH  10  21
BRANCH   1  38
HETATM   38  O1  UNL     1      -9.197  15.315  23.817  1.00  0.00    -0.390 OA
HETATM   39  C1  UNL     1     -10.382  15.076  23.144  1.00  0.00     0.202 C
ENDBRANCH   1  38
BRANCH  18  40
HETATM   40  C33 UNL     1      -8.390  18.253  26.941  1.00  0.00     0.182 C
HETATM   41  O4  UNL     1      -7.467  19.079  27.266  1.00  0.00    -0.647 OA
HETATM   42  O5  UNL     1      -9.578  18.826  26.589  1.00  0.00    -0.647 OA
ENDBRANCH  18  40
BRANCH  20  43
HETATM   43  C35 UNL     1      -7.313  17.137  24.600  1.00  0.00     0.172 C
BRANCH  43  44
HETATM   44  O6  UNL     1      -6.404  16.477  23.783  1.00  0.00    -0.400 OA
ATOM     45  H6  UNL     1      -6.000  17.022  23.118  1.00  0.00     0.209 HD
ENDBRANCH  43  44
ENDBRANCH  20  43
TORSDOF 12
ENDMDL