MODEL 1
REMARK VINA RESULT: -7.361881520      0.000      0.000
REMARK  11 active torsions:
REMARK  status: ('A' for Active; 'I' for Inactive)
REMARK    1  A    between atoms: C2_2  and  N1_3
REMARK    2  A    between atoms: N1_3  and  C3_4
REMARK       I    between atoms: N1_3  and  C5_6
REMARK    3  A    between atoms: C5_6  and  C6_8
REMARK    4  A    between atoms: C7_11  and  C8_12
REMARK    5  A    between atoms: C9_15  and  N4_16
REMARK       I    between atoms: N4_16  and  C10_18
REMARK    6  A    between atoms: C10_18  and  C11_20
REMARK    7  A    between atoms: C15_25  and  C16_26
REMARK    8  A    between atoms: C20_30  and  C21_31
REMARK    9  A    between atoms: C21_31  and  N5_32
REMARK   10  A    between atoms: C21_31  and  C26_40
REMARK       I    between atoms: N5_32  and  C22_33
REMARK       I    between atoms: C22_33  and  N6_35
REMARK   11  A    between atoms: N6_35  and  C23_37
ROOT
HETATM    1  C8  UNL     1     -13.110  10.437  32.066  1.00  0.00     0.092 A
HETATM    2  N3  UNL     1     -13.203  10.899  33.377  1.00  0.00    -0.338 N
ATOM      3  H3  UNL     1     -13.425  10.277  34.154  1.00  0.00     0.167 HD
HETATM    4  C9  UNL     1     -12.993  12.169  33.550  1.00  0.00     0.108 A
HETATM    5  C19 UNL     1     -12.677  13.067  32.518  1.00  0.00     0.059 A
HETATM    6  C20 UNL     1     -12.580  12.623  31.241  1.00  0.00    -0.010 A
HETATM    7  C29 UNL     1     -12.806  11.285  31.032  1.00  0.00    -0.021 A
HETATM    8  C30 UNL     1     -12.654  10.662  29.673  1.00  0.00     0.051 C
ENDROOT
BRANCH   1   9
HETATM    9  C7  UNL     1     -13.304   8.995  31.823  1.00  0.00     0.176 A
HETATM   10  N2  UNL     1     -14.471   8.363  31.794  1.00  0.00    -0.328 N
HETATM   11  C6  UNL     1     -14.283   7.084  31.510  1.00  0.00     0.133 A
ATOM     12  H2  UNL     1     -15.377   8.798  31.967  1.00  0.00     0.168 HD
HETATM   13  C31 UNL     1     -12.913   6.915  31.345  1.00  0.00     0.084 A
HETATM   14  O5  UNL     1     -12.396   8.120  31.561  1.00  0.00    -0.294 OA
HETATM   15  C32 UNL     1     -12.065   5.759  30.997  1.00  0.00     0.079 C
BRANCH  11  16
HETATM   16  C5  UNL     1     -15.214   5.985  31.495  1.00  0.00     0.276 C
HETATM   17  N1  UNL     1     -15.647   5.389  32.744  1.00  0.00    -0.327 N
HETATM   18  O1  UNL     1     -15.697   5.469  30.477  1.00  0.00    -0.265 OA
BRANCH  17  19
HETATM   19  C2  UNL     1     -16.608   4.274  32.618  1.00  0.00     0.127 C
HETATM   20  C1  UNL     1     -17.840   4.711  33.438  1.00  0.00     0.027 C
ENDBRANCH  17  19
BRANCH  17  21
HETATM   21  C3  UNL     1     -15.211   5.761  34.018  1.00  0.00     0.063 C
HETATM   22  C4  UNL     1     -14.101   4.920  34.539  1.00  0.00     0.055 C
ENDBRANCH  17  21
ENDBRANCH  11  16
ENDBRANCH   1   9
BRANCH   4  23
HETATM   23  N4  UNL     1     -13.222  12.740  34.744  1.00  0.00    -0.313 N
HETATM   24  C10 UNL     1     -12.276  12.604  35.804  1.00  0.00     0.230 C
HETATM   25  O2  UNL     1     -11.079  12.848  35.711  1.00  0.00    -0.273 OA
ATOM     26  H4  UNL     1     -14.077  13.275  34.893  1.00  0.00     0.170 HD
BRANCH  24  27
HETATM   27  C11 UNL     1     -12.850  12.124  37.103  1.00  0.00     0.107 C
HETATM   28  C12 UNL     1     -11.721  11.650  37.981  1.00  0.00     0.019 C
HETATM   29  C13 UNL     1     -11.234  10.281  37.651  1.00  0.00     0.027 C
HETATM   30  C14 UNL     1     -12.243   9.391  36.998  1.00  0.00     0.168 C
HETATM   31  O3  UNL     1     -13.134  10.018  36.157  1.00  0.00    -0.385 OA
HETATM   32  C15 UNL     1     -13.802  10.965  36.935  1.00  0.00     0.137 C
BRANCH  32  33
HETATM   33  C16 UNL     1     -15.136  11.326  36.410  1.00  0.00     0.007 C
HETATM   34  C17 UNL     1     -15.763  10.083  35.799  1.00  0.00     0.012 C
HETATM   35  C18 UNL     1     -16.072  11.775  37.543  1.00  0.00     0.012 C
ENDBRANCH  32  33
ENDBRANCH  24  27
ENDBRANCH   4  23
BRANCH   6  36
HETATM   36  C21 UNL     1     -11.980  13.502  30.122  1.00  0.00     0.206 C
BRANCH  36  37
HETATM   37  N5  UNL     1     -10.782  13.911  30.560  1.00  0.00    -0.386 NA
HETATM   38  C22 UNL     1      -9.502  14.344  31.023  1.00  0.00     0.389 C
HETATM   39  O4  UNL     1      -8.434  14.227  30.572  1.00  0.00    -0.231 OA
HETATM   40  N6  UNL     1      -9.603  15.078  32.343  1.00  0.00    -0.328 N
ATOM     41  H6  UNL     1     -10.525  15.207  32.760  1.00  0.00     0.165 HD
BRANCH  40  42
HETATM   42  C23 UNL     1      -8.473  15.594  33.026  1.00  0.00     0.079 C
HETATM   43  C24 UNL     1      -8.788  15.873  34.484  1.00  0.00     0.032 C
HETATM   44  C25 UNL     1      -8.021  16.915  32.399  1.00  0.00     0.032 C
ENDBRANCH  40  42
ENDBRANCH  36  37
BRANCH  36  45
HETATM   45  C26 UNL     1     -12.926  14.508  29.589  1.00  0.00     0.018 C
HETATM   46  C27 UNL     1     -12.622  15.839  29.104  1.00  0.00     0.013 C
HETATM   47  C28 UNL     1     -13.823  13.783  28.535  1.00  0.00     0.013 C
ENDBRANCH  36  45
ENDBRANCH   6  36
TORSDOF 11
ENDMDL