MODEL 3
REMARK VINA RESULT: -7.077902577      0.916      1.276
REMARK  11 active torsions:
REMARK  status: ('A' for Active; 'I' for Inactive)
REMARK    1  A    between atoms: C2_2  and  N1_3
REMARK    2  A    between atoms: N1_3  and  C3_5
REMARK    3  A    between atoms: C5_7  and  C6_8
REMARK       I    between atoms: C6_8  and  N2_10
REMARK    4  A    between atoms: N2_10  and  C7_12
REMARK    5  A    between atoms: C7_12  and  C8_13
REMARK    6  A    between atoms: C8_13  and  N3_14
REMARK    7  A    between atoms: C12_20  and  N5_21
REMARK    8  A    between atoms: N5_21  and  C13_23
REMARK    9  A    between atoms: C13_23  and  C14_24
REMARK   10  A    between atoms: C14_24  and  C15_25
REMARK   11  A    between atoms: N6_28  and  O2_30
ROOT
HETATM    1  C3  UNL     1      12.733 -11.485  22.149  1.00  0.00     0.119 A
HETATM    2  C4  UNL     1      12.286 -12.809  22.046  1.00  0.00     0.084 A
HETATM    3  C5  UNL     1      13.133 -13.766  21.522  1.00  0.00     0.120 A
HETATM    4  N4  UNL     1      14.355 -13.384  21.132  1.00  0.00    -0.186 N
ATOM      5  H4  UNL     1      14.981 -14.090  20.746  1.00  0.00     0.184 HD
HETATM    6  C12 UNL     1      14.807 -12.105  21.224  1.00  0.00     0.685 A
HETATM    7  N7  UNL     1      13.971 -11.203  21.732  1.00  0.00    -0.177 N
ATOM      8  H7  UNL     1      14.294 -10.239  21.807  1.00  0.00     0.186 HD
ENDROOT
BRANCH   6   9
HETATM    9  N5  UNL     1      16.001 -11.825  20.824  1.00  0.00    -0.179 N
ATOM     10  H5  UNL     1      16.536 -11.094  21.293  1.00  0.00     0.185 HD
BRANCH   9  11
HETATM   11  C13 UNL     1      16.572 -12.531  19.734  1.00  0.00     0.117 C
HETATM   12  N6  UNL     1      16.188 -12.261  18.538  1.00  0.00    -0.254 N
ATOM     13  H6  UNL     1      15.478 -11.544  18.391  1.00  0.00     0.195 HD
BRANCH  11  14
HETATM   14  C14 UNL     1      17.604 -13.572  19.934  1.00  0.00     0.082 C
BRANCH  14  15
HETATM   15  C15 UNL     1      18.841 -13.013  20.622  1.00  0.00    -0.016 C
HETATM   16  C16 UNL     1      19.061 -13.611  21.976  1.00  0.00     0.010 C
HETATM   17  C17 UNL     1      20.079 -13.259  19.789  1.00  0.00     0.010 C
ENDBRANCH  14  15
ENDBRANCH  11  14
BRANCH  12  18
HETATM   18  O2  UNL     1      16.707 -12.911  17.468  1.00  0.00    -0.284 OA
HETATM   19  C18 UNL     1      17.095 -12.184  16.335  1.00  0.00     0.237 C
ENDBRANCH  12  18
ENDBRANCH   9  11
ENDBRANCH   6   9
BRANCH   3  20
HETATM   20  C6  UNL     1      12.734 -15.155  21.386  1.00  0.00     0.268 C
HETATM   21  O1  UNL     1      12.742 -15.881  22.433  1.00  0.00    -0.266 OA
HETATM   22  N2  UNL     1      12.342 -15.718  20.151  1.00  0.00    -0.354 N
ATOM     23  H2  UNL     1      12.328 -15.153  19.302  1.00  0.00     0.162 HD
BRANCH  22  24
HETATM   24  C7  UNL     1      11.962 -17.112  20.117  1.00  0.00     0.151 C
BRANCH  24  25
HETATM   25  C8  UNL     1      13.054 -17.986  19.548  1.00  0.00     0.255 C
BRANCH  25  26
HETATM   26  N3  UNL     1      13.343 -19.017  20.530  1.00  0.00    -0.077 N
HETATM   27  C9  UNL     1      14.512 -18.714  21.303  1.00  0.00     0.271 C
HETATM   28  C10 UNL     1      12.157 -19.215  21.339  1.00  0.00     0.271 C
HETATM   29  C11 UNL     1      13.591 -20.290  19.848  1.00  0.00     0.271 C
ENDBRANCH  25  26
ENDBRANCH  24  25
ENDBRANCH  22  24
ENDBRANCH   3  20
BRANCH   1  30
HETATM   30  N1  UNL     1      11.929 -10.601  22.642  1.00  0.00    -0.376 N
ATOM     31  H1  UNL     1      11.526  -9.894  22.026  1.00  0.00     0.161 HD
BRANCH  30  32
HETATM   32  C2  UNL     1      11.592 -10.594  24.033  1.00  0.00     0.116 C
HETATM   33  C1  UNL     1      11.949  -9.243  24.644  1.00  0.00     0.026 C
ENDBRANCH  30  32
ENDBRANCH   1  30
TORSDOF 11
ENDMDL