MODEL 5
REMARK VINA RESULT: -6.370997409      1.864      2.375
REMARK  11 active torsions:
REMARK  status: ('A' for Active; 'I' for Inactive)
REMARK    1  A    between atoms: C2_2  and  C3_3
REMARK    2  A    between atoms: C3_3  and  N1_4
REMARK       I    between atoms: N1_4  and  C4_6
REMARK    3  A    between atoms: C4_6  and  C5_8
REMARK    4  A    between atoms: C5_8  and  C6_9
REMARK    5  A    between atoms: C6_9  and  C7_10
REMARK    6  A    between atoms: C7_10  and  C8_11
REMARK    7  A    between atoms: C8_11  and  N2_12
REMARK       I    between atoms: N2_12  and  C9_14
REMARK       I    between atoms: C9_14  and  N3_16
REMARK    8  A    between atoms: N3_16  and  N4_18
REMARK    9  A    between atoms: N4_18  and  N5_19
REMARK       I    between atoms: N6_22  and  C10_24
REMARK   10  A    between atoms: C10_24  and  C11_26
REMARK   11  A    between atoms: C11_26  and  C13_28
REMARK       I    between atoms: C13_28  and  N7_30
ROOT
HETATM    1  C5  UNL     1      17.455 -15.651  21.212  1.00  0.00     0.080 C
HETATM    2  N6  UNL     1      16.386 -15.765  20.518  1.00  0.00    -0.325 N
ATOM      3  H6  UNL     1      16.293 -15.130  19.725  1.00  0.00     0.168 HD
HETATM    4  C10 UNL     1      15.326 -16.664  20.723  1.00  0.00     0.234 C
HETATM    5  O3  UNL     1      15.347 -17.857  20.259  1.00  0.00    -0.272 OA
ENDROOT
BRANCH   1   6
HETATM    6  C4  UNL     1      17.706 -16.490  22.359  1.00  0.00     0.264 C
HETATM    7  N1  UNL     1      17.192 -16.234  23.660  1.00  0.00    -0.353 N
ATOM      8  H1  UNL     1      16.598 -15.421  23.820  1.00  0.00     0.163 HD
HETATM    9  O1  UNL     1      18.441 -17.532  22.206  1.00  0.00    -0.266 OA
BRANCH   7  10
HETATM   10  C3  UNL     1      17.503 -17.112  24.746  1.00  0.00     0.149 C
BRANCH  10  11
HETATM   11  C2  UNL     1      18.528 -16.637  25.681  1.00  0.00    -0.018 C
HETATM   12  C1  UNL     1      19.209 -15.517  25.628  1.00  0.00     0.008 C
ENDBRANCH  10  11
ENDBRANCH   7  10
ENDBRANCH   1   6
BRANCH   1  13
HETATM   13  C6  UNL     1      18.465 -14.671  20.775  1.00  0.00     0.064 C
BRANCH  13  14
HETATM   14  C7  UNL     1      18.484 -13.489  21.681  1.00  0.00     0.026 C
BRANCH  14  15
HETATM   15  C8  UNL     1      17.887 -12.258  21.042  1.00  0.00     0.125 C
BRANCH  15  16
HETATM   16  N2  UNL     1      16.467 -12.354  20.867  1.00  0.00    -0.341 N
HETATM   17  C9  UNL     1      15.924 -12.258  19.564  1.00  0.00     0.346 C
HETATM   18  O2  UNL     1      16.713 -12.090  18.600  1.00  0.00    -0.245 OA
HETATM   19  N3  UNL     1      14.524 -12.343  19.307  1.00  0.00    -0.165 N
ATOM     20  H3  UNL     1      14.099 -13.194  18.936  1.00  0.00     0.209 HD
ATOM     21  H2  UNL     1      15.856 -12.489  21.672  1.00  0.00     0.164 HD
BRANCH  19  22
HETATM   22  N4  UNL     1      13.847 -11.336  19.554  1.00  0.00    -0.239 NA
BRANCH  22  23
HETATM   23  N5  UNL     1      13.201 -10.473  20.158  1.00  0.00    -0.260 N
ATOM     24  H52 UNL     1      13.350  -9.739  19.466  1.00  0.00     0.193 HD
ATOM     25  H51 UNL     1      12.632 -10.003  20.862  1.00  0.00     0.193 HD
ENDBRANCH  22  23
ENDBRANCH  19  22
ENDBRANCH  15  16
ENDBRANCH  14  15
ENDBRANCH  13  14
ENDBRANCH   1  13
BRANCH   4  26
HETATM   26  C11 UNL     1      14.117 -16.281  21.493  1.00  0.00     0.166 C
HETATM   27  C12 UNL     1      13.301 -17.517  21.768  1.00  0.00     0.030 C
BRANCH  26  28
HETATM   28  C13 UNL     1      13.293 -15.305  20.693  1.00  0.00     0.236 C
HETATM   29  O4  UNL     1      13.505 -15.104  19.469  1.00  0.00    -0.272 OA
HETATM   30  N7  UNL     1      12.254 -14.607  21.367  1.00  0.00    -0.303 N
HETATM   31  C14 UNL     1      12.561 -13.603  22.130  1.00  0.00     0.203 C
ATOM     32  H7  UNL     1      11.281 -14.891  21.253  1.00  0.00     0.171 HD
HETATM   33  N8  UNL     1      13.927 -13.208  22.287  1.00  0.00    -0.066 NA
HETATM   34  N9  UNL     1      11.591 -12.859  22.833  1.00  0.00    -0.066 NA
ENDBRANCH  26  28
ENDBRANCH   4  26
TORSDOF 11
ENDMDL