MODEL 1
REMARK VINA RESULT: -7.569566895      0.000      0.000
REMARK  8 active torsions:
REMARK  status: ('A' for Active; 'I' for Inactive)
REMARK       I    between atoms: C2_2  and  N1_4
REMARK    1  A    between atoms: N1_4  and  C4_6
REMARK    2  A    between atoms: C4_6  and  C5_7
REMARK    3  A    between atoms: C5_7  and  C7_9
REMARK       I    between atoms: C7_9  and  N2_11
REMARK    4  A    between atoms: N2_11  and  C8_13
REMARK    5  A    between atoms: C8_13  and  C9_14
REMARK       I    between atoms: C9_14  and  N3_16
REMARK    6  A    between atoms: N3_16  and  C10_18
REMARK    7  A    between atoms: C10_18  and  C11_19
REMARK    8  A    between atoms: C10_18  and  C12_22
ROOT
HETATM    1  C8  UNL     1      15.901 -13.967  20.010  1.00  0.00     0.113 C
HETATM    2  C15 UNL     1      15.233 -15.236  19.530  1.00  0.00     0.041 C
HETATM    3  C16 UNL     1      14.599 -15.101  18.177  1.00  0.00     0.003 C
HETATM    4  C17 UNL     1      15.636 -14.696  17.180  1.00  0.00     0.000 C
HETATM    5  C18 UNL     1      16.400 -13.491  17.658  1.00  0.00     0.003 C
HETATM    6  C19 UNL     1      15.703 -12.946  18.878  1.00  0.00     0.041 C
ENDROOT
BRANCH   1   7
HETATM    7  N2  UNL     1      17.282 -14.199  20.258  1.00  0.00    -0.343 N
HETATM    8  C7  UNL     1      18.256 -13.211  20.589  1.00  0.00     0.224 C
HETATM    9  O2  UNL     1      17.911 -12.002  20.684  1.00  0.00    -0.273 OA
ATOM     10  H2  UNL     1      17.607 -15.163  20.193  1.00  0.00     0.163 HD
BRANCH   8  11
HETATM   11  C5  UNL     1      19.673 -13.533  20.835  1.00  0.00     0.092 C
HETATM   12  C6  UNL     1      20.461 -13.299  19.593  1.00  0.00     0.021 C
BRANCH  11  13
HETATM   13  C4  UNL     1      19.855 -14.938  21.364  1.00  0.00     0.139 C
BRANCH  13  14
HETATM   14  N1  UNL     1      19.742 -14.892  22.808  1.00  0.00    -0.356 N
HETATM   15  C2  UNL     1      18.622 -15.474  23.429  1.00  0.00     0.215 C
HETATM   16  C1  UNL     1      18.488 -15.439  24.894  1.00  0.00     0.117 C
HETATM   17  O1  UNL     1      17.737 -16.021  22.745  1.00  0.00    -0.274 OA
HETATM   18  C3  UNL     1      20.751 -14.264  23.643  1.00  0.00     0.152 C
ENDBRANCH  13  14
ENDBRANCH  11  13
ENDBRANCH   8  11
ENDBRANCH   1   7
BRANCH   1  19
HETATM   19  C9  UNL     1      15.147 -13.477  21.171  1.00  0.00     0.246 C
HETATM   20  O3  UNL     1      15.603 -13.685  22.323  1.00  0.00    -0.271 OA
HETATM   21  N3  UNL     1      13.923 -12.774  21.087  1.00  0.00    -0.346 N
ATOM     22  H3  UNL     1      13.544 -12.601  20.155  1.00  0.00     0.163 HD
BRANCH  21  23
HETATM   23  C10 UNL     1      13.165 -12.283  22.212  1.00  0.00     0.177 C
BRANCH  23  24
HETATM   24  C11 UNL     1      12.093 -13.205  22.620  1.00  0.00     0.254 C
HETATM   25  N4  UNL     1      10.955 -12.836  23.365  1.00  0.00    -0.060 NA
HETATM   26  O4  UNL     1      12.184 -14.433  22.284  1.00  0.00    -0.275 OA
ENDBRANCH  23  24
BRANCH  23  27
HETATM   27  C12 UNL     1      12.644 -10.878  21.951  1.00  0.00     0.009 C
HETATM   28  C13 UNL     1      12.898  -9.944  23.091  1.00  0.00     0.012 C
HETATM   29  C14 UNL     1      13.294 -10.298  20.718  1.00  0.00     0.012 C
ENDBRANCH  23  27
ENDBRANCH  21  23
ENDBRANCH   1  19
TORSDOF 8
ENDMDL