MODEL 2
REMARK VINA RESULT: -7.605898327      3.693      8.531
REMARK  8 active torsions:
REMARK  status: ('A' for Active; 'I' for Inactive)
REMARK    1  A    between atoms: C3_5  and  C4_6
REMARK    2  A    between atoms: C4_6  and  C5_7
REMARK    3  A    between atoms: C5_7  and  C6_8
REMARK    4  A    between atoms: N2_13  and  C9_14
REMARK    5  A    between atoms: C9_14  and  C10_15
REMARK    6  A    between atoms: C10_15  and  N3_16
REMARK    7  A    between atoms: C13_20  and  C14_21
REMARK    8  A    between atoms: C14_21  and  N4_22
ROOT
HETATM    1  N3  UNL     1      15.984 -14.497  21.970  1.00  0.00    -0.375 N
ATOM      2  H3  UNL     1      15.736 -14.869  22.887  1.00  0.00     0.161 HD
HETATM    3  C11 UNL     1      15.098 -13.842  21.317  1.00  0.00     0.103 A
HETATM    4  C12 UNL     1      13.858 -13.680  21.893  1.00  0.00     0.075 A
HETATM    5  C13 UNL     1      12.836 -12.986  21.279  1.00  0.00     0.032 A
HETATM    6  N5  UNL     1      13.067 -12.456  20.079  1.00  0.00    -0.354 N
ATOM      7  H5  UNL     1      12.333 -11.936  19.596  1.00  0.00     0.166 HD
HETATM    8  C18 UNL     1      14.290 -12.612  19.502  1.00  0.00     0.182 A
HETATM    9  N6  UNL     1      15.290 -13.293  20.108  1.00  0.00    -0.339 N
ATOM     10  H6  UNL     1      16.194 -13.389  19.643  1.00  0.00     0.168 HD
ENDROOT
BRANCH   1  11
HETATM   11  C10 UNL     1      17.325 -14.733  21.468  1.00  0.00     0.141 C
BRANCH  11  12
HETATM   12  C9  UNL     1      18.124 -13.464  21.787  1.00  0.00     0.150 C
BRANCH  12  13
HETATM   13  N2  UNL     1      19.488 -13.838  22.133  1.00  0.00    -0.338 N
HETATM   14  C2  UNL     1      20.557 -13.713  21.321  1.00  0.00     0.080 A
HETATM   15  C1  UNL     1      20.474 -13.153  19.939  1.00  0.00     0.089 C
HETATM   16  N1  UNL     1      21.642 -14.155  21.958  1.00  0.00    -0.348 N
HETATM   17  C3  UNL     1      21.290 -14.578  23.213  1.00  0.00     0.033 A
ATOM     18  H1  UNL     1      22.587 -14.174  21.573  1.00  0.00     0.167 HD
HETATM   19  C7  UNL     1      19.939 -14.372  23.300  1.00  0.00     0.032 A
HETATM   20  C8  UNL     1      18.996 -14.684  24.426  1.00  0.00     0.070 C
BRANCH  17  21
HETATM   21  C4  UNL     1      22.209 -15.087  24.250  1.00  0.00     0.069 C
BRANCH  21  22
HETATM   22  C5  UNL     1      22.506 -14.156  25.367  1.00  0.00     0.119 C
BRANCH  22  23
HETATM   23  C6  UNL     1      21.858 -14.380  26.647  1.00  0.00     0.172 C
HETATM   24  O1  UNL     1      22.102 -15.448  27.297  1.00  0.00    -0.648 OA
HETATM   25  O2  UNL     1      20.965 -13.494  27.241  1.00  0.00    -0.648 OA
ENDBRANCH  22  23
ENDBRANCH  21  22
ENDBRANCH  17  21
ENDBRANCH  12  13
ENDBRANCH  11  12
ENDBRANCH   1  11
BRANCH   5  26
HETATM   26  C14 UNL     1      11.511 -12.825  21.918  1.00  0.00     0.185 C
BRANCH  26  27
HETATM   27  N4  UNL     1      11.562 -11.803  22.995  1.00  0.00    -0.354 N
HETATM   28  C15 UNL     1      11.141 -12.068  24.203  1.00  0.00     0.098 A
HETATM   29  C16 UNL     1      11.222 -11.070  25.138  1.00  0.00     0.068 A
HETATM   30  S1  UNL     1      11.900  -9.789  24.237  1.00  0.00    -0.095 SA
HETATM   31  C17 UNL     1      12.041 -10.589  22.739  1.00  0.00     0.140 A
ENDBRANCH  26  27
ENDBRANCH   5  26
TORSDOF 8
ENDMDL