MODEL 5
REMARK VINA RESULT: -7.731607638      2.445      4.191
REMARK  9 active torsions:
REMARK  status: ('A' for Active; 'I' for Inactive)
REMARK    1  A    between atoms: C2_2  and  O1_4
REMARK    2  A    between atoms: C2_2  and  C4_6
REMARK    3  A    between atoms: C6_8  and  C7_9
REMARK    4  A    between atoms: C7_9  and  C8_10
REMARK    5  A    between atoms: C8_10  and  C9_11
REMARK    6  A    between atoms: C9_11  and  N1_12
REMARK    7  A    between atoms: N2_17  and  C13_18
REMARK    8  A    between atoms: C13_18  and  C14_19
REMARK    9  A    between atoms: C14_19  and  N3_20
ROOT
HETATM    1  N1  UNL     1      16.986 -13.823  20.975  1.00  0.00    -0.270 N
HETATM    2  C10 UNL     1      16.640 -15.197  21.018  1.00  0.00     0.229 C
HETATM    3  O2  UNL     1      17.064 -15.928  21.938  1.00  0.00    -0.273 OA
HETATM    4  C11 UNL     1      15.768 -15.735  19.946  1.00  0.00     0.123 C
HETATM    5  C12 UNL     1      14.564 -14.784  19.873  1.00  0.00     0.136 C
HETATM    6  N2  UNL     1      15.103 -13.482  19.469  1.00  0.00    -0.332 N
HETATM    7  C16 UNL     1      16.190 -12.921  20.169  1.00  0.00     0.327 C
HETATM    8  O3  UNL     1      16.494 -11.716  20.129  1.00  0.00    -0.247 OA
ENDROOT
BRANCH   1   9
HETATM    9  C9  UNL     1      18.109 -13.375  21.745  1.00  0.00     0.137 C
BRANCH   9  10
HETATM   10  C8  UNL     1      19.345 -13.088  20.933  1.00  0.00     0.025 C
BRANCH  10  11
HETATM   11  C7  UNL     1      20.171 -14.305  20.674  1.00  0.00     0.041 C
BRANCH  11  12
HETATM   12  C6  UNL     1      20.529 -14.988  21.988  1.00  0.00    -0.051 A
HETATM   13  C5  UNL     1      21.028 -14.310  23.048  1.00  0.00     0.025 A
HETATM   14  C4  UNL     1      21.310 -15.040  24.173  1.00  0.00     0.016 A
HETATM   15  S1  UNL     1      20.883 -16.624  23.731  1.00  0.00    -0.103 SA
HETATM   16  C17 UNL     1      20.356 -16.335  22.141  1.00  0.00     0.057 A
BRANCH  14  17
HETATM   17  C2  UNL     1      21.872 -14.509  25.475  1.00  0.00     0.084 C
HETATM   18  C1  UNL     1      21.967 -15.628  26.466  1.00  0.00     0.051 C
HETATM   19  C3  UNL     1      21.007 -13.370  25.927  1.00  0.00     0.051 C
BRANCH  17  20
HETATM   20  O1  UNL     1      23.133 -14.027  25.195  1.00  0.00    -0.385 OA
ATOM     21  H1  UNL     1      23.239 -13.164  25.578  1.00  0.00     0.211 HD
ENDBRANCH  17  20
ENDBRANCH  14  17
ENDBRANCH  11  12
ENDBRANCH  10  11
ENDBRANCH   9  10
ENDBRANCH   1   9
BRANCH   6  22
HETATM   22  C13 UNL     1      14.506 -12.785  18.351  1.00  0.00     0.147 C
BRANCH  22  23
HETATM   23  C14 UNL     1      15.386 -13.038  17.140  1.00  0.00     0.142 C
BRANCH  23  24
HETATM   24  N3  UNL     1      16.078 -11.821  16.861  1.00  0.00    -0.365 N
HETATM   25  C15 UNL     1      16.965 -11.742  15.959  1.00  0.00     0.197 C
HETATM   26  N4  UNL     1      17.608 -10.492  15.742  1.00  0.00    -0.067 NA
HETATM   27  N5  UNL     1      17.341 -12.855  15.161  1.00  0.00    -0.067 NA
ATOM     28  H3  UNL     1      15.850 -10.988  17.404  1.00  0.00     0.161 HD
ENDBRANCH  23  24
ENDBRANCH  22  23
ENDBRANCH   6  22
TORSDOF 9
ENDMDL