MODEL 1
REMARK VINA RESULT: -7.409590493      0.000      0.000
REMARK  8 active torsions:
REMARK  status: ('A' for Active; 'I' for Inactive)
REMARK    1  A    between atoms: C2_2  and  N1_3
REMARK       I    between atoms: N1_3  and  C3_4
REMARK    2  A    between atoms: N1_3  and  S1_26
REMARK    3  A    between atoms: N3_6  and  C4_8
REMARK    4  A    between atoms: C4_8  and  C5_9
REMARK    5  A    between atoms: C5_9  and  C6_10
REMARK    6  A    between atoms: C6_10  and  C7_11
REMARK    7  A    between atoms: C7_11  and  C10_14
REMARK       I    between atoms: C10_14  and  N4_16
REMARK    8  A    between atoms: N4_16  and  C11_18
ROOT
HETATM    1  C7  UNL     1      18.647 -15.779  22.260  1.00  0.00     0.034 C
HETATM    2  C8  UNL     1      18.014 -17.074  21.878  1.00  0.00     0.025 C
HETATM    3  C9  UNL     1      17.810 -15.177  23.390  1.00  0.00     0.025 C
ENDROOT
BRANCH   1   4
HETATM    4  C6  UNL     1      18.632 -14.765  21.140  1.00  0.00     0.020 C
BRANCH   4   5
HETATM    5  C5  UNL     1      19.146 -13.422  21.579  1.00  0.00     0.021 C
BRANCH   5   6
HETATM    6  C4  UNL     1      18.328 -12.352  20.882  1.00  0.00     0.122 C
BRANCH   6   7
HETATM    7  N3  UNL     1      16.969 -12.342  21.370  1.00  0.00    -0.364 N
HETATM    8  C3  UNL     1      15.942 -12.260  20.605  1.00  0.00     0.199 C
HETATM    9  N1  UNL     1      14.648 -12.256  21.169  1.00  0.00    -0.250 N
HETATM   10  N2  UNL     1      16.104 -12.174  19.211  1.00  0.00    -0.063 NA
ATOM     11  H3  UNL     1      16.817 -12.403  22.376  1.00  0.00     0.162 HD
BRANCH   9  12
HETATM   12  C2  UNL     1      14.123 -11.003  21.663  1.00  0.00     0.140 C
HETATM   13  C1  UNL     1      13.166 -10.413  20.663  1.00  0.00     0.028 C
ENDBRANCH   9  12
BRANCH   9  14
HETATM   14  S1  UNL     1      13.667 -13.659  21.299  1.00  0.00     0.231 S
HETATM   15  C16 UNL     1      14.634 -15.147  21.343  1.00  0.00     0.186 C
HETATM   16  O3  UNL     1      12.933 -13.571  22.622  1.00  0.00    -0.206 OA
HETATM   17  O4  UNL     1      12.625 -13.722  20.224  1.00  0.00    -0.206 OA
ENDBRANCH   9  14
ENDBRANCH   6   7
ENDBRANCH   5   6
ENDBRANCH   4   5
ENDBRANCH   1   4
BRANCH   1  18
HETATM   18  C10 UNL     1      20.014 -16.052  22.747  1.00  0.00     0.226 C
HETATM   19  O1  UNL     1      20.893 -16.439  21.949  1.00  0.00    -0.273 OA
HETATM   20  N4  UNL     1      20.348 -15.882  24.110  1.00  0.00    -0.345 N
ATOM     21  H4  UNL     1      19.614 -15.564  24.743  1.00  0.00     0.163 HD
BRANCH  20  22
HETATM   22  C11 UNL     1      21.648 -16.124  24.665  1.00  0.00     0.204 C
HETATM   23  C12 UNL     1      21.692 -16.779  25.976  1.00  0.00     0.243 C
HETATM   24  O2  UNL     1      21.102 -17.673  26.635  1.00  0.00    -0.271 OA
HETATM   25  N5  UNL     1      22.792 -15.941  26.317  1.00  0.00    -0.348 N
HETATM   26  C13 UNL     1      22.232 -14.941  25.439  1.00  0.00     0.054 C
ATOM     27  H5  UNL     1      23.614 -16.014  26.916  1.00  0.00     0.163 HD
HETATM   28  C14 UNL     1      23.216 -14.156  24.632  1.00  0.00     0.041 C
HETATM   29  C15 UNL     1      21.197 -14.105  26.143  1.00  0.00     0.041 C
ENDBRANCH  20  22
ENDBRANCH   1  18
TORSDOF 8
ENDMDL