MODEL 1
REMARK VINA RESULT: -6.719853487      0.000      0.000
REMARK  10 active torsions:
REMARK  status: ('A' for Active; 'I' for Inactive)
REMARK    1  A    between atoms: C2_2  and  C4_4
REMARK    2  A    between atoms: C4_4  and  N1_5
REMARK    3  A    between atoms: C4_4  and  C5_9
REMARK       I    between atoms: C5_9  and  N2_11
REMARK    4  A    between atoms: N2_11  and  C6_13
REMARK    5  A    between atoms: C6_13  and  C9_16
REMARK    6  A    between atoms: C9_16  and  C10_17
REMARK    7  A    between atoms: C9_16  and  N4_28
REMARK    8  A    between atoms: C16_24  and  C17_25
REMARK    9  A    between atoms: C17_25  and  O2_26
REMARK   10  A    between atoms: N4_28  and  C19_30
ROOT
HETATM    1  C9  UNL     1      14.806 -15.230  20.401  1.00  0.00     0.020 C
ENDROOT
BRANCH   1   2
HETATM    2  C6  UNL     1      13.529 -14.871  21.080  1.00  0.00     0.064 C
HETATM    3  C7  UNL     1      13.174 -15.951  22.135  1.00  0.00     0.044 C
HETATM    4  C8  UNL     1      12.336 -14.710  20.149  1.00  0.00     0.044 C
BRANCH   2   5
HETATM    5  N2  UNL     1      13.580 -13.673  21.867  1.00  0.00    -0.345 N
HETATM    6  C5  UNL     1      13.608 -12.363  21.275  1.00  0.00     0.249 C
HETATM    7  O1  UNL     1      13.582 -12.154  20.033  1.00  0.00    -0.271 OA
ATOM      8  H2  UNL     1      13.598 -13.753  22.883  1.00  0.00     0.163 HD
BRANCH   6   9
HETATM    9  C4  UNL     1      13.678 -11.112  22.096  1.00  0.00     0.278 C
BRANCH   9  10
HETATM   10  C2  UNL     1      12.296 -10.707  22.572  1.00  0.00     0.017 C
HETATM   11  C1  UNL     1      11.386 -11.877  22.796  1.00  0.00     0.012 C
HETATM   12  C3  UNL     1      12.333  -9.795  23.742  1.00  0.00     0.012 C
ENDBRANCH   9  10
BRANCH   9  13
HETATM   13  N1  UNL     1      14.196 -10.009  21.281  1.00  0.00    -0.066 N
ATOM     14  H13 UNL     1      13.884 -10.049  20.310  1.00  0.00     0.275 HD
ATOM     15  H12 UNL     1      13.779  -9.109  21.516  1.00  0.00     0.275 HD
ATOM     16  H11 UNL     1      15.211 -10.016  21.375  1.00  0.00     0.275 HD
ENDBRANCH   9  13
ENDBRANCH   6   9
ENDBRANCH   2   5
ENDBRANCH   1   2
BRANCH   1  17
HETATM   17  C10 UNL     1      15.962 -15.203  21.321  1.00  0.00     0.093 C
HETATM   18  C11 UNL     1      17.274 -15.757  20.841  1.00  0.00     0.250 C
HETATM   19  N3  UNL     1      17.879 -14.783  21.770  1.00  0.00    -0.059 N
HETATM   20  C12 UNL     1      17.851 -15.171  23.164  1.00  0.00     0.238 C
HETATM   21  C15 UNL     1      19.224 -14.609  21.440  1.00  0.00     0.238 C
HETATM   22  C16 UNL     1      16.815 -13.929  21.375  1.00  0.00     0.225 C
HETATM   23  C13 UNL     1      19.196 -14.791  23.758  1.00  0.00     0.029 C
HETATM   24  C14 UNL     1      19.843 -13.936  22.651  1.00  0.00     0.029 C
BRANCH  22  25
HETATM   25  C17 UNL     1      17.042 -13.179  20.121  1.00  0.00     0.198 C
BRANCH  25  26
HETATM   26  O2  UNL     1      16.715 -11.830  20.347  1.00  0.00    -0.399 OA
ATOM     27  H2  UNL     1      17.210 -11.296  19.737  1.00  0.00     0.209 HD
ENDBRANCH  25  26
ENDBRANCH  22  25
ENDBRANCH   1  17
BRANCH   1  28
HETATM   28  N4  UNL     1      14.879 -15.950  19.226  1.00  0.00    -0.385 N
HETATM   29  C18 UNL     1      15.153 -15.226  17.997  1.00  0.00     0.149 C
BRANCH  28  30
HETATM   30  C19 UNL     1      14.604 -17.292  19.046  1.00  0.00     0.075 C
HETATM   31  C20 UNL     1      13.385 -17.537  18.182  1.00  0.00     0.032 C
HETATM   32  C21 UNL     1      15.724 -18.042  18.287  1.00  0.00     0.032 C
ENDBRANCH  28  30
ENDBRANCH   1  28
TORSDOF 10
ENDMDL