MODEL 5
REMARK VINA RESULT: -7.110950732      2.492      3.703
REMARK  9 active torsions:
REMARK  status: ('A' for Active; 'I' for Inactive)
REMARK    1  A    between atoms: C2_2  and  C3_3
REMARK    2  A    between atoms: C3_3  and  N1_4
REMARK    3  A    between atoms: N1_4  and  C4_5
REMARK    4  A    between atoms: C4_5  and  C5_6
REMARK    5  A    between atoms: C5_6  and  C6_7
REMARK    6  A    between atoms: C6_7  and  C7_8
REMARK    7  A    between atoms: C10_13  and  S1_14
REMARK    8  A    between atoms: S1_14  and  N3_15
REMARK    9  A    between atoms: C13_22  and  C14_23
ROOT
HETATM    1  C7  UNL     1      18.069 -12.861  20.103  1.00  0.00    -0.029 A
HETATM    2  C8  UNL     1      17.663 -12.713  21.438  1.00  0.00     0.096 A
HETATM    3  N2  UNL     1      16.343 -12.562  21.493  1.00  0.00    -0.363 N
ATOM      4  H2  UNL     1      15.800 -12.436  22.347  1.00  0.00     0.165 HD
HETATM    5  C9  UNL     1      15.839 -12.600  20.262  1.00  0.00     0.067 A
HETATM    6  C10 UNL     1      14.520 -12.503  19.879  1.00  0.00     0.106 A
HETATM    7  C11 UNL     1      14.259 -12.596  18.532  1.00  0.00     0.028 A
HETATM    8  C12 UNL     1      15.257 -12.774  17.616  1.00  0.00     0.017 A
HETATM    9  C13 UNL     1      16.588 -12.869  18.027  1.00  0.00     0.015 A
HETATM   10  C15 UNL     1      16.909 -12.786  19.364  1.00  0.00     0.013 A
ENDROOT
BRANCH   1  11
HETATM   11  C6  UNL     1      19.434 -13.113  19.625  1.00  0.00     0.042 C
BRANCH  11  12
HETATM   12  C5  UNL     1      20.386 -13.504  20.710  1.00  0.00     0.033 C
BRANCH  12  13
HETATM   13  C4  UNL     1      20.292 -14.931  21.065  1.00  0.00     0.240 C
BRANCH  13  14
HETATM   14  N1  UNL     1      19.901 -15.375  22.335  1.00  0.00    -0.039 N
HETATM   15  C16 UNL     1      20.247 -14.423  23.357  1.00  0.00     0.267 C
HETATM   16  C17 UNL     1      21.743 -14.664  23.536  1.00  0.00     0.262 C
HETATM   17  N4  UNL     1      21.830 -16.095  23.471  1.00  0.00    -0.049 N
HETATM   18  C18 UNL     1      20.768 -16.536  22.653  1.00  0.00     0.468 C
ATOM     19  H42 UNL     1      22.741 -16.427  23.157  1.00  0.00     0.279 HD
ATOM     20  H41 UNL     1      21.838 -16.538  24.389  1.00  0.00     0.279 HD
BRANCH  14  21
HETATM   21  C3  UNL     1      18.546 -15.782  22.501  1.00  0.00     0.266 C
BRANCH  21  22
HETATM   22  C2  UNL     1      17.924 -16.466  21.342  1.00  0.00    -0.009 C
HETATM   23  C1  UNL     1      16.675 -16.281  20.948  1.00  0.00     0.008 C
ENDBRANCH  21  22
ENDBRANCH  14  21
ENDBRANCH  13  14
ENDBRANCH  12  13
ENDBRANCH  11  12
ENDBRANCH   1  11
BRANCH   9  24
HETATM   24  C14 UNL     1      17.612 -12.952  17.015  1.00  0.00     0.271 C
HETATM   25  O3  UNL     1      17.795 -12.107  16.148  1.00  0.00    -0.301 OA
ENDBRANCH   9  24
BRANCH   6  26
HETATM   26  S1  UNL     1      13.234 -12.271  21.034  1.00  0.00     0.259 S
HETATM   27  O1  UNL     1      12.092 -13.205  20.780  1.00  0.00    -0.201 OA
HETATM   28  O2  UNL     1      13.705 -12.367  22.447  1.00  0.00    -0.201 OA
BRANCH  26  29
HETATM   29  N3  UNL     1      12.613 -10.653  20.826  1.00  0.00    -0.324 N
ATOM     30  H32 UNL     1      12.099 -10.125  21.531  1.00  0.00     0.169 HD
ATOM     31  H31 UNL     1      12.856 -10.344  19.885  1.00  0.00     0.169 HD
ENDBRANCH  26  29
ENDBRANCH   6  26
TORSDOF 9
ENDMDL