MODEL 4
REMARK VINA RESULT: -6.895087321      2.833      3.859
REMARK  8 active torsions:
REMARK  status: ('A' for Active; 'I' for Inactive)
REMARK    1  A    between atoms: C2_2  and  C3_3
REMARK    2  A    between atoms: C3_3  and  N1_4
REMARK    3  A    between atoms: N1_4  and  C4_5
REMARK    4  A    between atoms: C4_5  and  C5_6
REMARK    5  A    between atoms: C13_14  and  N2_15
REMARK    6  A    between atoms: C14_17  and  C15_18
REMARK    7  A    between atoms: C15_18  and  C16_19
REMARK    8  A    between atoms: C18_26  and  C19_27
ROOT
HETATM    1  C5  UNL     1      20.009 -14.706  23.440  1.00  0.00     0.039 C
HETATM    2  C6  UNL     1      19.574 -14.293  24.816  1.00  0.00    -0.007 C
HETATM    3  C7  UNL     1      20.731 -13.606  25.505  1.00  0.00     0.005 C
HETATM    4  C8  UNL     1      21.547 -14.500  26.375  1.00  0.00     0.001 C
HETATM    5  C9  UNL     1      22.175 -15.649  25.628  1.00  0.00     0.007 C
HETATM    6  C10 UNL     1      21.150 -16.461  24.863  1.00  0.00     0.009 C
HETATM    7  C11 UNL     1      19.916 -16.647  25.665  1.00  0.00     0.007 C
HETATM    8  C12 UNL     1      19.054 -15.441  25.654  1.00  0.00     0.005 C
HETATM    9  C13 UNL     1      20.921 -15.926  23.478  1.00  0.00     0.090 C
ENDROOT
BRANCH   1  10
HETATM   10  C4  UNL     1      18.853 -14.873  22.551  1.00  0.00     0.247 C
BRANCH  10  11
HETATM   11  N1  UNL     1      18.529 -14.006  21.525  1.00  0.00    -0.037 N
HETATM   12  C17 UNL     1      17.618 -12.946  22.026  1.00  0.00     0.469 C
HETATM   13  N4  UNL     1      17.044 -12.330  20.878  1.00  0.00    -0.035 N
HETATM   14  C18 UNL     1      16.711 -13.508  20.077  1.00  0.00     0.313 C
ATOM     15  H42 UNL     1      16.272 -11.689  21.061  1.00  0.00     0.280 HD
ATOM     16  H41 UNL     1      17.627 -11.632  20.414  1.00  0.00     0.280 HD
HETATM   17  C20 UNL     1      17.871 -14.441  20.364  1.00  0.00     0.284 C
BRANCH  11  18
HETATM   18  C3  UNL     1      19.710 -13.250  21.094  1.00  0.00     0.266 C
BRANCH  18  19
HETATM   19  C2  UNL     1      20.309 -13.749  19.851  1.00  0.00    -0.009 C
HETATM   20  C1  UNL     1      20.617 -12.908  18.884  1.00  0.00     0.008 C
ENDBRANCH  18  19
ENDBRANCH  11  18
BRANCH  14  21
HETATM   21  C19 UNL     1      16.526 -13.199  18.662  1.00  0.00     0.206 C
HETATM   22  O2  UNL     1      16.734 -12.048  18.184  1.00  0.00    -0.646 OA
HETATM   23  O3  UNL     1      16.107 -14.187  17.794  1.00  0.00    -0.646 OA
ENDBRANCH  14  21
ENDBRANCH  10  11
ENDBRANCH   1  10
BRANCH   9  24
HETATM   24  N2  UNL     1      20.447 -16.991  22.644  1.00  0.00    -0.396 N
HETATM   25  C14 UNL     1      20.955 -18.174  22.685  1.00  0.00     0.064 C
ATOM     26  H2  UNL     1      19.682 -16.806  21.995  1.00  0.00     0.159 HD
BRANCH  25  27
HETATM   27  C15 UNL     1      20.512 -19.295  21.860  1.00  0.00     0.143 C
BRANCH  27  28
HETATM   28  C16 UNL     1      21.523 -19.448  20.756  1.00  0.00     0.235 C
HETATM   29  N3  UNL     1      21.645 -20.647  20.010  1.00  0.00    -0.062 NA
HETATM   30  O1  UNL     1      22.260 -18.456  20.525  1.00  0.00    -0.277 OA
ENDBRANCH  27  28
ENDBRANCH  25  27
ENDBRANCH   9  24
TORSDOF 8
ENDMDL