MODEL 5
REMARK VINA RESULT: -9.852981994      1.398      1.904
REMARK  5 active torsions:
REMARK  status: ('A' for Active; 'I' for Inactive)
REMARK    1  A    between atoms: C6_8  and  C7_9
REMARK    2  A    between atoms: C17_23  and  C18_24
REMARK    3  A    between atoms: N5_30  and  C22_32
REMARK    4  A    between atoms: C25_35  and  N6_36
REMARK    5  A    between atoms: N6_36  and  S1_38
ROOT
HETATM    1  C1  UNL     1       4.605  10.079   8.170  1.00  0.00     0.049 C
HETATM    2  C2  UNL     1       4.220  10.146   9.592  1.00  0.00    -0.049 A
HETATM    3  C3  UNL     1       4.292   9.049  10.466  1.00  0.00     0.010 A
HETATM    4  C4  UNL     1       3.924   9.154  11.792  1.00  0.00     0.032 A
HETATM    5  C5  UNL     1       3.474  10.365  12.285  1.00  0.00     0.061 A
HETATM    6  N1  UNL     1       3.026  10.829  13.469  1.00  0.00    -0.339 N
ATOM      7  H1  UNL     1       2.956  10.264  14.314  1.00  0.00     0.167 HD
HETATM    8  C6  UNL     1       2.684  12.129  13.400  1.00  0.00     0.133 A
HETATM    9  N3  UNL     1       2.928  12.487  12.121  1.00  0.00    -0.338 N
ATOM     10  H3  UNL     1       2.772  13.419  11.737  1.00  0.00     0.167 HD
HETATM   11  C16 UNL     1       3.403  11.446  11.428  1.00  0.00     0.072 A
HETATM   12  C17 UNL     1       3.772  11.338  10.093  1.00  0.00     0.009 A
ENDROOT
BRANCH  12  13
HETATM   13  C18 UNL     1       3.594  12.507   9.250  1.00  0.00    -0.018 A
HETATM   14  C19 UNL     1       2.344  12.746   8.655  1.00  0.00     0.029 A
HETATM   15  C20 UNL     1       2.179  13.843   7.849  1.00  0.00     0.090 A
HETATM   16  N4  UNL     1       3.178  14.697   7.611  1.00  0.00    -0.352 N
HETATM   17  C21 UNL     1       4.431  14.527   8.160  1.00  0.00     0.106 A
ATOM     18  H4  UNL     1       3.008  15.500   7.005  1.00  0.00     0.166 HD
HETATM   19  N5  UNL     1       5.338  15.380   7.874  1.00  0.00    -0.342 N
HETATM   20  C29 UNL     1       4.583  13.424   8.967  1.00  0.00     0.060 A
ATOM     21  H5  UNL     1       5.046  16.133   7.250  1.00  0.00     0.167 HD
BRANCH  19  22
HETATM   22  C22 UNL     1       6.657  15.434   8.287  1.00  0.00     0.033 A
HETATM   23  C23 UNL     1       7.169  16.009   9.424  1.00  0.00     0.032 A
HETATM   24  C24 UNL     1       8.502  16.027   9.693  1.00  0.00     0.032 A
HETATM   25  C25 UNL     1       9.434  15.456   8.817  1.00  0.00     0.042 A
HETATM   26  C27 UNL     1       8.934  14.883   7.691  1.00  0.00     0.032 A
HETATM   27  C28 UNL     1       7.594  14.859   7.414  1.00  0.00     0.032 A
BRANCH  25  28
HETATM   28  N6  UNL     1      10.816  15.493   9.077  1.00  0.00    -0.285 N
ATOM     29  H6  UNL     1      11.313  16.382   9.012  1.00  0.00     0.178 HD
BRANCH  28  30
HETATM   30  S1  UNL     1      11.681  14.075   9.500  1.00  0.00     0.227 S
HETATM   31  C26 UNL     1      12.851  14.515  10.788  1.00  0.00     0.186 C
HETATM   32  O1  UNL     1      10.717  13.067  10.127  1.00  0.00    -0.206 OA
HETATM   33  O2  UNL     1      12.374  13.445   8.329  1.00  0.00    -0.206 OA
ENDBRANCH  28  30
ENDBRANCH  25  28
ENDBRANCH  19  22
ENDBRANCH  12  13
BRANCH   8  34
HETATM   34  C7  UNL     1       2.110  12.984  14.449  1.00  0.00     0.077 A
HETATM   35  C8  UNL     1       2.741  14.201  14.701  1.00  0.00     0.034 A
HETATM   36  C9  UNL     1       2.245  15.040  15.674  1.00  0.00     0.016 A
HETATM   37  C10 UNL     1       1.116  14.681  16.410  1.00  0.00    -0.009 A
HETATM   38  C11 UNL     1       0.593  15.502  17.381  1.00  0.00     0.013 A
HETATM   39  C15 UNL     1       0.513  13.467  16.136  1.00  0.00     0.043 A
HETATM   40  C12 UNL     1      -0.543  15.138  18.105  1.00  0.00     0.001 A
HETATM   41  C13 UNL     1      -1.120  13.939  17.816  1.00  0.00     0.002 A
HETATM   42  C14 UNL     1      -0.613  13.109  16.854  1.00  0.00     0.030 A
HETATM   43  N2  UNL     1       1.037  12.680  15.171  1.00  0.00    -0.353 N
ATOM     44  H2  UNL     1       0.577  11.789  14.983  1.00  0.00     0.166 HD
ENDBRANCH   8  34
TORSDOF 5
ENDMDL