MODEL 1
REMARK VINA RESULT: -9.603689125      0.000      0.000
REMARK  6 active torsions:
REMARK  status: ('A' for Active; 'I' for Inactive)
REMARK    1  A    between atoms: C8_10  and  C9_11
REMARK    2  A    between atoms: N2_19  and  C17_20
REMARK    3  A    between atoms: C17_20  and  C18_21
REMARK    4  A    between atoms: C22_25  and  N3_26
REMARK    5  A    between atoms: N3_26  and  C23_28
REMARK    6  A    between atoms: C24_31  and  C25_32
ROOT
HETATM    1  C1  UNL     1      -1.255  10.834  12.882  1.00  0.00     0.018 C
HETATM    2  C2  UNL     1      -0.070  11.083  12.905  1.00  0.00    -0.075 C
HETATM    3  C3  UNL     1       1.334  11.361  12.948  1.00  0.00     0.044 A
HETATM    4  C4  UNL     1       2.401  10.519  12.744  1.00  0.00     0.110 A
HETATM    5  N1  UNL     1       3.536  11.225  12.888  1.00  0.00    -0.364 N
ATOM      6  H1  UNL     1       4.477  10.843  12.790  1.00  0.00     0.165 HD
HETATM    7  C5  UNL     1       3.255  12.511  13.180  1.00  0.00     0.043 A
HETATM    8  C6  UNL     1       4.036  13.623  13.419  1.00  0.00     0.031 A
HETATM    9  C7  UNL     1       3.477  14.858  13.703  1.00  0.00     0.012 A
HETATM   10  C8  UNL     1       2.107  14.950  13.742  1.00  0.00    -0.020 A
HETATM   11  C29 UNL     1       1.338  13.839  13.504  1.00  0.00     0.025 A
HETATM   12  C30 UNL     1       1.881  12.598  13.218  1.00  0.00     0.011 A
ENDROOT
BRANCH  10  13
HETATM   13  C9  UNL     1       1.388  16.233  14.040  1.00  0.00     0.290 C
HETATM   14  C10 UNL     1       1.621  16.554  15.495  1.00  0.00    -0.013 A
HETATM   15  C11 UNL     1       1.465  15.828  16.643  1.00  0.00     0.010 A
HETATM   16  C15 UNL     1       2.079  17.862  15.533  1.00  0.00    -0.021 A
HETATM   17  C12 UNL     1       1.763  16.383  17.893  1.00  0.00     0.001 A
HETATM   18  C13 UNL     1       2.213  17.676  17.893  1.00  0.00     0.001 A
HETATM   19  C14 UNL     1       2.373  18.417  16.743  1.00  0.00     0.009 A
HETATM   20  C16 UNL     1       2.154  18.418  14.134  1.00  0.00     0.313 C
HETATM   21  N2  UNL     1       2.039  17.266  13.307  1.00  0.00     0.110 N
BRANCH  21  22
HETATM   22  C17 UNL     1       1.650  17.459  11.964  1.00  0.00     0.312 C
BRANCH  22  23
HETATM   23  C18 UNL     1       2.766  17.511  10.975  1.00  0.00    -0.028 A
HETATM   24  C19 UNL     1       3.237  16.329  10.456  1.00  0.00     0.009 A
HETATM   25  C20 UNL     1       4.262  16.291   9.540  1.00  0.00     0.003 A
HETATM   26  C21 UNL     1       4.828  17.486   9.135  1.00  0.00     0.029 A
HETATM   27  C22 UNL     1       4.353  18.685   9.658  1.00  0.00     0.034 A
HETATM   28  C28 UNL     1       3.332  18.689  10.569  1.00  0.00     0.038 A
BRANCH  27  29
HETATM   29  N3  UNL     1       4.913  19.924   9.262  1.00  0.00    -0.337 N
ATOM     30  H3  UNL     1       5.122  20.125   8.284  1.00  0.00     0.168 HD
BRANCH  29  31
HETATM   31  C23 UNL     1       5.151  20.805  10.210  1.00  0.00     0.149 A
HETATM   32  N4  UNL     1       4.441  21.878  10.544  1.00  0.00    -0.333 N
HETATM   33  C24 UNL     1       4.858  22.627  11.525  1.00  0.00     0.086 A
ATOM     34  H4  UNL     1       3.585  22.110  10.042  1.00  0.00     0.168 HD
HETATM   35  C27 UNL     1       6.016  22.260  12.160  1.00  0.00     0.086 A
HETATM   36  S1  UNL     1       6.454  20.846  11.311  1.00  0.00    -0.063 SA
BRANCH  33  37
HETATM   37  C25 UNL     1       4.133  23.852  11.976  1.00  0.00     0.148 A
HETATM   38  N5  UNL     1       3.716  24.888  11.218  1.00  0.00    -0.335 N
HETATM   39  C26 UNL     1       3.105  25.782  12.017  1.00  0.00     0.199 A
ATOM     40  H5  UNL     1       3.842  24.978  10.211  1.00  0.00     0.168 HD
HETATM   41  N6  UNL     1       3.134  25.318  13.266  1.00  0.00    -0.294 N
HETATM   42  N7  UNL     1       3.748  24.172  13.218  1.00  0.00    -0.283 N
ATOM     43  H6  UNL     1       2.751  25.771  14.095  1.00  0.00     0.187 HD
ATOM     44  H7  UNL     1       3.917  23.584  14.034  1.00  0.00     0.188 HD
ENDBRANCH  33  37
ENDBRANCH  29  31
ENDBRANCH  27  29
ENDBRANCH  22  23
ENDBRANCH  21  22
ENDBRANCH  10  13
TORSDOF 6
ENDMDL