MODEL 4
REMARK VINA RESULT: -11.831246817      0.887      1.196
REMARK  6 active torsions:
REMARK  status: ('A' for Active; 'I' for Inactive)
REMARK    1  A    between atoms: C3_8  and  N2_9
REMARK    2  A    between atoms: N2_9  and  C4_11
REMARK    3  A    between atoms: C4_11  and  C5_12
REMARK    4  A    between atoms: C7_14  and  C8_15
REMARK    5  A    between atoms: C18_27  and  C19_28
REMARK    6  A    between atoms: C22_33  and  C23_34
ROOT
HETATM    1  C5  UNL     1       1.918  14.397  15.231  1.00  0.00    -0.007 A
HETATM    2  C6  UNL     1       2.832  13.680  14.496  1.00  0.00     0.041 A
HETATM    3  C7  UNL     1       2.283  12.444  14.234  1.00  0.00     0.043 A
HETATM    4  N3  UNL     1       1.062  12.433  14.808  1.00  0.00    -0.352 N
ATOM      5  H3  UNL     1       0.417  11.644  14.781  1.00  0.00     0.166 HD
HETATM    6  C18 UNL     1       0.812  13.603  15.421  1.00  0.00     0.092 A
ENDROOT
BRANCH   6   7
HETATM    7  C19 UNL     1      -0.397  13.982  16.158  1.00  0.00     0.176 A
HETATM    8  N4  UNL     1      -0.481  14.903  17.133  1.00  0.00    -0.332 N
HETATM    9  C20 UNL     1      -1.751  14.972  17.566  1.00  0.00     0.069 A
ATOM     10  H4  UNL     1       0.296  15.461  17.488  1.00  0.00     0.168 HD
HETATM   11  C21 UNL     1      -2.406  15.728  18.533  1.00  0.00     0.044 A
HETATM   12  C31 UNL     1      -2.454  14.056  16.817  1.00  0.00     0.104 A
HETATM   13  C22 UNL     1      -3.755  15.584  18.766  1.00  0.00    -0.024 A
HETATM   14  C29 UNL     1      -4.453  14.664  18.014  1.00  0.00     0.015 A
HETATM   15  C30 UNL     1      -3.793  13.904  17.041  1.00  0.00     0.040 A
HETATM   16  O4  UNL     1      -1.602  13.496  15.997  1.00  0.00    -0.289 OA
BRANCH  13  17
HETATM   17  C23 UNL     1      -4.447  16.374  19.775  1.00  0.00    -0.026 A
HETATM   18  C24 UNL     1      -5.796  16.169  20.057  1.00  0.00     0.012 A
HETATM   19  C25 UNL     1      -6.444  16.926  21.019  1.00  0.00     0.001 A
HETATM   20  C26 UNL     1      -5.755  17.902  21.717  1.00  0.00     0.000 A
HETATM   21  C27 UNL     1      -4.435  18.114  21.453  1.00  0.00     0.001 A
HETATM   22  C28 UNL     1      -3.799  17.354  20.493  1.00  0.00     0.012 A
ENDBRANCH  13  17
ENDBRANCH   6   7
BRANCH   1  23
HETATM   23  C4  UNL     1       2.153  15.789  15.706  1.00  0.00     0.162 C
BRANCH  23  24
HETATM   24  N2  UNL     1       1.971  16.705  14.624  1.00  0.00    -0.367 N
ATOM     25  H2  UNL     1       2.787  17.235  14.320  1.00  0.00     0.161 HD
BRANCH  24  26
HETATM   26  C3  UNL     1       0.873  16.918  14.002  1.00  0.00     0.184 A
HETATM   27  C2  UNL     1      -0.257  17.446  14.568  1.00  0.00     0.349 A
HETATM   28  O2  UNL     1      -1.331  17.630  13.863  1.00  0.00    -0.188 OA
HETATM   29  O3  UNL     1      -0.302  17.770  15.778  1.00  0.00    -0.254 OA
HETATM   30  N1  UNL     1      -1.451  17.348  12.597  1.00  0.00    -0.207 N
HETATM   31  C1  UNL     1      -0.361  16.829  12.011  1.00  0.00     0.346 A
ATOM     32  H1  UNL     1      -2.317  17.512  12.084  1.00  0.00     0.200 HD
HETATM   33  O1  UNL     1      -0.379  16.522  10.785  1.00  0.00    -0.245 OA
HETATM   34  N5  UNL     1       0.780  16.610  12.670  1.00  0.00    -0.288 N
ATOM     35  H5  UNL     1       1.582  16.214  12.182  1.00  0.00     0.172 HD
ENDBRANCH  24  26
ENDBRANCH  23  24
ENDBRANCH   1  23
BRANCH   3  36
HETATM   36  C8  UNL     1       2.888  11.349  13.485  1.00  0.00    -0.009 A
HETATM   37  C9  UNL     1       2.939  11.444  12.124  1.00  0.00     0.014 A
HETATM   38  C10 UNL     1       3.508  10.422  11.361  1.00  0.00     0.013 A
HETATM   39  C11 UNL     1       4.027   9.299  11.967  1.00  0.00    -0.026 A
HETATM   40  C12 UNL     1       4.589   8.287  11.214  1.00  0.00     0.012 A
HETATM   41  C16 UNL     1       3.963   9.224  13.340  1.00  0.00    -0.025 A
HETATM   42  C13 UNL     1       5.110   7.157  11.833  1.00  0.00     0.001 A
HETATM   43  C14 UNL     1       5.038   7.100  13.209  1.00  0.00     0.001 A
HETATM   44  C15 UNL     1       4.479   8.105  13.964  1.00  0.00     0.012 A
HETATM   45  C17 UNL     1       3.403  10.233  14.096  1.00  0.00     0.026 A
ENDBRANCH   3  36
TORSDOF 6
ENDMDL