MODEL 3
REMARK VINA RESULT: -10.139666593      1.287      9.042
REMARK  6 active torsions:
REMARK  status: ('A' for Active; 'I' for Inactive)
REMARK    1  A    between atoms: N2_10  and  C6_12
REMARK    2  A    between atoms: C6_12  and  C7_13
REMARK    3  A    between atoms: C12_18  and  C13_19
REMARK    4  A    between atoms: C19_27  and  N4_28
REMARK    5  A    between atoms: N4_28  and  C20_29
REMARK    6  A    between atoms: C20_29  and  C21_30
ROOT
HETATM    1  O1  UNL     1      -4.906  14.189  13.339  1.00  0.00    -0.272 OA
HETATM    2  C1  UNL     1      -4.005  14.026  14.214  1.00  0.00     0.232 C
HETATM    3  C2  UNL     1      -2.637  13.732  13.699  1.00  0.00     0.182 C
HETATM    4  S1  UNL     1      -1.411  14.599  14.680  1.00  0.00    -0.112 SA
HETATM    5  C3  UNL     1      -2.045  14.703  16.343  1.00  0.00     0.104 A
HETATM    6  C4  UNL     1      -3.349  14.451  16.616  1.00  0.00     0.145 A
HETATM    7  N1  UNL     1      -3.783  14.584  17.875  1.00  0.00    -0.175 N
ATOM      8  H1  UNL     1      -4.763  14.396  18.085  1.00  0.00     0.186 HD
HETATM    9  C5  UNL     1      -2.944  14.967  18.889  1.00  0.00     0.686 A
HETATM   10  N2  UNL     1      -3.292  15.092  20.035  1.00  0.00    -0.201 N
ATOM     11  H2  UNL     1      -2.450  15.389  20.527  1.00  0.00     0.183 HD
HETATM   12  N3  UNL     1      -1.632  15.212  18.553  1.00  0.00    -0.163 N
ATOM     13  H3  UNL     1      -0.998  15.498  19.299  1.00  0.00     0.187 HD
HETATM   14  C19 UNL     1      -1.134  15.102  17.336  1.00  0.00     0.213 A
HETATM   15  N5  UNL     1      -4.302  14.122  15.587  1.00  0.00    -0.311 N
ATOM     16  H5  UNL     1      -5.265  13.945  15.875  1.00  0.00     0.170 HD
ENDROOT
BRANCH  10  17
HETATM   17  C6  UNL     1      -4.267  15.035  21.021  1.00  0.00     0.118 C
BRANCH  17  18
HETATM   18  C7  UNL     1      -4.836  16.427  21.215  1.00  0.00    -0.009 A
HETATM   19  C8  UNL     1      -4.006  17.444  21.616  1.00  0.00     0.013 A
HETATM   20  C9  UNL     1      -4.441  18.727  21.832  1.00  0.00     0.001 A
HETATM   21  C10 UNL     1      -5.769  19.001  21.637  1.00  0.00     0.001 A
HETATM   22  C11 UNL     1      -6.640  18.011  21.239  1.00  0.00     0.013 A
HETATM   23  C12 UNL     1      -6.150  16.696  21.025  1.00  0.00    -0.014 A
BRANCH  23  24
HETATM   24  C13 UNL     1      -7.158  15.780  20.547  1.00  0.00    -0.025 A
HETATM   25  C14 UNL     1      -7.950  15.140  21.470  1.00  0.00     0.012 A
HETATM   26  C15 UNL     1      -8.982  14.339  21.001  1.00  0.00     0.001 A
HETATM   27  C16 UNL     1      -9.236  14.163  19.655  1.00  0.00     0.000 A
HETATM   28  C17 UNL     1      -8.423  14.816  18.767  1.00  0.00     0.001 A
HETATM   29  C18 UNL     1      -7.385  15.622  19.212  1.00  0.00     0.012 A
ENDBRANCH  23  24
ENDBRANCH  17  18
ENDBRANCH  10  17
BRANCH  14  30
HETATM   30  N4  UNL     1      -0.003  15.368  17.099  1.00  0.00    -0.397 NA
BRANCH  30  31
HETATM   31  C20 UNL     1       1.265  15.809  17.092  1.00  0.00     0.197 C
BRANCH  31  32
HETATM   32  C21 UNL     1       1.519  16.502  15.754  1.00  0.00     0.004 A
HETATM   33  C22 UNL     1       1.056  17.738  15.450  1.00  0.00     0.015 A
HETATM   34  C23 UNL     1       1.304  18.177  14.141  1.00  0.00     0.002 A
HETATM   35  C24 UNL     1       1.971  17.402  13.232  1.00  0.00     0.012 A
HETATM   36  C25 UNL     1       2.440  16.148  13.542  1.00  0.00    -0.025 A
HETATM   37  C26 UNL     1       3.202  15.398  12.679  1.00  0.00     0.012 A
HETATM   38  C30 UNL     1       2.204  15.693  14.841  1.00  0.00    -0.013 A
HETATM   39  C27 UNL     1       3.727  14.196  13.126  1.00  0.00     0.001 A
HETATM   40  C28 UNL     1       3.493  13.750  14.413  1.00  0.00     0.001 A
HETATM   41  C29 UNL     1       2.715  14.501  15.308  1.00  0.00     0.013 A
ENDBRANCH  31  32
ENDBRANCH  30  31
ENDBRANCH  14  30
TORSDOF 6
ENDMDL