MODEL 3
REMARK VINA RESULT: -6.988426087      5.008      8.579
REMARK  9 active torsions:
REMARK  status: ('A' for Active; 'I' for Inactive)
REMARK    1  A    between atoms: C3_3  and  C4_4
REMARK    2  A    between atoms: C7_7  and  C8_8
REMARK    3  A    between atoms: C8_8  and  N1_10
REMARK    4  A    between atoms: N1_10  and  C10_12
REMARK    5  A    between atoms: C10_12  and  N2_14
REMARK    6  A    between atoms: N2_14  and  C11_16
REMARK    7  A    between atoms: C14_19  and  N3_20
REMARK    8  A    between atoms: N3_20  and  C15_22
REMARK    9  A    between atoms: C16_25  and  C17_26
ROOT
HETATM    1  C1  UNL     1       1.968  17.719  16.983  1.00  0.00     0.112 C
HETATM    2  C2  UNL     1       2.132  16.479  16.220  1.00  0.00    -0.105 C
HETATM    3  C3  UNL     1       2.268  15.446  15.613  1.00  0.00    -0.067 C
ENDROOT
BRANCH   3   4
HETATM    4  C4  UNL     1       2.439  14.201  14.907  1.00  0.00     0.017 A
HETATM    5  C5  UNL     1       1.583  13.136  15.108  1.00  0.00     0.021 A
HETATM    6  C6  UNL     1       1.718  11.938  14.456  1.00  0.00     0.011 A
HETATM    7  C7  UNL     1       2.743  11.743  13.550  1.00  0.00    -0.036 A
HETATM    8  C30 UNL     1       3.609  12.787  13.332  1.00  0.00     0.011 A
HETATM    9  C31 UNL     1       3.454  13.982  13.997  1.00  0.00     0.021 A
BRANCH   7  10
HETATM   10  C8  UNL     1       2.872  10.427  12.870  1.00  0.00     0.113 C
HETATM   11  C9  UNL     1       3.671   9.460  13.674  1.00  0.00     0.037 C
BRANCH  10  12
HETATM   12  N1  UNL     1       3.431  10.542  11.553  1.00  0.00    -0.359 N
ATOM     13  H1  UNL     1       4.424  10.359  11.412  1.00  0.00     0.162 HD
BRANCH  12  14
HETATM   14  C10 UNL     1       2.621  10.910  10.434  1.00  0.00     0.172 C
HETATM   15  S1  UNL     1       1.016  10.963  10.708  1.00  0.00    -0.041 SA
BRANCH  14  16
HETATM   16  N2  UNL     1       3.212  11.190   9.187  1.00  0.00    -0.333 N
ATOM     17  H2  UNL     1       3.088  10.482   8.462  1.00  0.00     0.168 HD
BRANCH  16  18
HETATM   18  C11 UNL     1       3.949  12.326   8.822  1.00  0.00     0.034 A
HETATM   19  C12 UNL     1       4.757  12.475   7.721  1.00  0.00     0.032 A
HETATM   20  C13 UNL     1       5.480  13.650   7.469  1.00  0.00     0.032 A
HETATM   21  C14 UNL     1       5.413  14.721   8.321  1.00  0.00     0.033 A
HETATM   22  C28 UNL     1       4.609  14.594   9.432  1.00  0.00     0.032 A
HETATM   23  C29 UNL     1       3.902  13.446   9.680  1.00  0.00     0.032 A
BRANCH  21  24
HETATM   24  N3  UNL     1       6.137  15.930   8.091  1.00  0.00    -0.342 N
ATOM     25  H3  UNL     1       5.711  16.632   7.488  1.00  0.00     0.167 HD
BRANCH  24  26
HETATM   26  C15 UNL     1       7.283  16.191   8.590  1.00  0.00     0.119 A
HETATM   27  N4  UNL     1       8.305  15.272   8.497  1.00  0.00    -0.326 N
HETATM   28  C16 UNL     1       9.509  15.503   9.001  1.00  0.00     0.134 A
ATOM     29  H4  UNL     1       8.129  14.384   8.026  1.00  0.00     0.169 HD
HETATM   30  N6  UNL     1       9.668  16.716   9.621  1.00  0.00    -0.340 N
HETATM   31  C22 UNL     1       8.718  17.637   9.740  1.00  0.00     0.047 A
ATOM     32  H6  UNL     1      10.582  16.926  10.021  1.00  0.00     0.167 HD
HETATM   33  C23 UNL     1       8.947  18.850  10.381  1.00  0.00     0.030 A
HETATM   34  C27 UNL     1       7.470  17.396   9.216  1.00  0.00     0.035 A
HETATM   35  C24 UNL     1       7.959  19.797  10.498  1.00  0.00     0.002 A
HETATM   36  C25 UNL     1       6.703  19.561   9.974  1.00  0.00     0.001 A
HETATM   37  C26 UNL     1       6.487  18.345   9.336  1.00  0.00     0.017 A
BRANCH  28  38
HETATM   38  C17 UNL     1      10.680  14.631   8.925  1.00  0.00     0.078 A
HETATM   39  C18 UNL     1      11.365  14.137  10.035  1.00  0.00     0.035 A
HETATM   40  C19 UNL     1      12.416  13.395   9.614  1.00  0.00     0.020 A
HETATM   41  C20 UNL     1      12.413  13.408   8.239  1.00  0.00     0.091 A
HETATM   42  N5  UNL     1      11.338  14.176   7.864  1.00  0.00    -0.358 N
HETATM   43  C21 UNL     1      11.086  14.402   6.459  1.00  0.00     0.156 C
ENDBRANCH  28  38
ENDBRANCH  24  26
ENDBRANCH  21  24
ENDBRANCH  16  18
ENDBRANCH  14  16
ENDBRANCH  12  14
ENDBRANCH  10  12
ENDBRANCH   7  10
ENDBRANCH   3   4
TORSDOF 9
ENDMDL