MODEL 2
REMARK VINA RESULT: -8.612928740      0.798      1.420
REMARK  7 active torsions:
REMARK  status: ('A' for Active; 'I' for Inactive)
REMARK    1  A    between atoms: C7_7  and  N1_8
REMARK    2  A    between atoms: N1_8  and  C8_10
REMARK    3  A    between atoms: C8_10  and  N2_12
REMARK    4  A    between atoms: N2_12  and  S2_14
REMARK    5  A    between atoms: S2_14  and  C9_17
REMARK    6  A    between atoms: C16_24  and  C17_25
REMARK    7  A    between atoms: N3_31  and  C23_32
ROOT
HETATM    1  C9  UNL     1      -0.845  13.917  13.360  1.00  0.00     0.080 A
HETATM    2  C10 UNL     1      -0.534  14.168  12.048  1.00  0.00     0.027 A
HETATM    3  C11 UNL     1       0.403  13.441  11.341  1.00  0.00     0.032 A
HETATM    4  C12 UNL     1       1.074  12.409  11.952  1.00  0.00     0.050 A
HETATM    5  C13 UNL     1       0.786  12.138  13.259  1.00  0.00    -0.005 A
HETATM    6  C14 UNL     1      -0.151  12.862  13.972  1.00  0.00     0.039 A
HETATM    7  C15 UNL     1       1.574  11.094  13.613  1.00  0.00     0.044 A
HETATM    8  C16 UNL     1       2.347  10.738  12.491  1.00  0.00     0.051 A
HETATM    9  N3  UNL     1       2.035  11.549  11.483  1.00  0.00    -0.310 N
ENDROOT
BRANCH   1  10
HETATM   10  S2  UNL     1      -2.027  14.832  14.257  1.00  0.00     0.264 S
HETATM   11  O1  UNL     1      -2.976  13.867  14.957  1.00  0.00    -0.200 OA
HETATM   12  O2  UNL     1      -2.889  15.524  13.222  1.00  0.00    -0.200 OA
BRANCH  10  13
HETATM   13  N2  UNL     1      -1.374  15.898  15.380  1.00  0.00    -0.256 N
ATOM     14  H2  UNL     1      -1.951  16.718  15.566  1.00  0.00     0.181 HD
BRANCH  13  15
HETATM   15  C8  UNL     1      -0.164  15.858  16.114  1.00  0.00     0.186 C
HETATM   16  S1  UNL     1      -0.289  15.307  17.674  1.00  0.00    -0.040 SA
BRANCH  15  17
HETATM   17  N1  UNL     1       1.045  16.276  15.563  1.00  0.00    -0.332 N
ATOM     18  H1  UNL     1       1.276  17.244  15.783  1.00  0.00     0.168 HD
BRANCH  17  19
HETATM   19  C7  UNL     1       2.003  15.645  14.775  1.00  0.00     0.040 A
HETATM   20  C2  UNL     1       2.263  16.088  13.472  1.00  0.00    -0.035 A
HETATM   21  C1  UNL     1       1.497  17.280  12.981  1.00  0.00     0.050 C
HETATM   22  C3  UNL     1       3.183  15.485  12.643  1.00  0.00     0.009 A
HETATM   23  C4  UNL     1       3.891  14.403  13.083  1.00  0.00     0.001 A
HETATM   24  C5  UNL     1       3.675  13.930  14.349  1.00  0.00     0.002 A
HETATM   25  C6  UNL     1       2.731  14.564  15.172  1.00  0.00     0.030 A
ENDBRANCH  17  19
ENDBRANCH  15  17
ENDBRANCH  13  15
ENDBRANCH  10  13
ENDBRANCH   1  10
BRANCH   9  26
HETATM   26  C23 UNL     1       2.529  11.649  10.155  1.00  0.00     0.042 A
HETATM   27  C24 UNL     1       3.781  12.226   9.911  1.00  0.00     0.030 A
HETATM   28  C25 UNL     1       4.303  12.290   8.641  1.00  0.00     0.004 A
HETATM   29  C26 UNL     1       3.621  11.792   7.556  1.00  0.00     0.027 A
HETATM   30  C27 UNL     1       2.384  11.222   7.791  1.00  0.00     0.048 A
HETATM   31  N4  UNL     1       1.679  10.702   6.643  1.00  0.00    -0.102 NA
HETATM   32  C28 UNL     1       1.842  11.146   9.053  1.00  0.00     0.056 A
ENDBRANCH   9  26
BRANCH   8  33
HETATM   33  C17 UNL     1       3.315   9.676  12.577  1.00  0.00    -0.009 A
HETATM   34  C18 UNL     1       3.673   9.187  13.827  1.00  0.00     0.014 A
HETATM   35  C19 UNL     1       4.573   8.140  13.971  1.00  0.00     0.001 A
HETATM   36  C20 UNL     1       5.152   7.541  12.880  1.00  0.00     0.000 A
HETATM   37  C21 UNL     1       4.805   8.017  11.645  1.00  0.00     0.001 A
HETATM   38  C22 UNL     1       3.886   9.084  11.492  1.00  0.00     0.014 A
ENDBRANCH   8  33
TORSDOF 7
ENDMDL