MODEL 3
REMARK VINA RESULT: -10.443113174      1.756      5.005
REMARK  10 active torsions:
REMARK  status: ('A' for Active; 'I' for Inactive)
REMARK    1  A    between atoms: O1_1  and  C1_3
REMARK    2  A    between atoms: C1_3  and  C2_4
REMARK    3  A    between atoms: C2_4  and  O2_5
REMARK    4  A    between atoms: C2_4  and  C3_7
REMARK    5  A    between atoms: C7_11  and  C8_12
REMARK    6  A    between atoms: C12_16  and  C13_17
REMARK    7  A    between atoms: C13_17  and  C14_18
REMARK    8  A    between atoms: C14_18  and  C15_19
REMARK    9  A    between atoms: C16_22  and  N2_23
REMARK   10  A    between atoms: N2_23  and  C17_25
ROOT
HETATM    1  C15 UNL     1       2.898  15.040  12.946  1.00  0.00     0.115 A
HETATM    2  N1  UNL     1       2.561  15.213  14.224  1.00  0.00    -0.183 N
ATOM      3  H1  UNL     1       2.389  16.165  14.545  1.00  0.00     0.185 HD
HETATM    4  C16 UNL     1       2.430  14.218  15.120  1.00  0.00     0.684 A
HETATM    5  N3  UNL     1       2.658  12.949  14.690  1.00  0.00    -0.191 N
ATOM      6  H3  UNL     1       2.564  12.180  15.354  1.00  0.00     0.184 HD
HETATM    7  C27 UNL     1       3.000  12.674  13.430  1.00  0.00     0.062 A
HETATM    8  C28 UNL     1       3.228  11.391  13.007  1.00  0.00     0.031 A
HETATM    9  C29 UNL     1       3.587  11.117  11.680  1.00  0.00     0.002 A
HETATM   10  C30 UNL     1       3.711  12.157  10.792  1.00  0.00     0.001 A
HETATM   11  C31 UNL     1       3.477  13.443  11.239  1.00  0.00     0.017 A
HETATM   12  C32 UNL     1       3.124  13.717  12.545  1.00  0.00     0.027 A
ENDROOT
BRANCH   1  13
HETATM   13  C14 UNL     1       3.021  16.146  12.039  1.00  0.00    -0.042 C
BRANCH  13  14
HETATM   14  C13 UNL     1       3.117  17.089  11.290  1.00  0.00    -0.060 C
BRANCH  14  15
HETATM   15  C12 UNL     1       3.235  18.225  10.418  1.00  0.00     0.019 A
HETATM   16  C11 UNL     1       2.678  18.226   9.133  1.00  0.00     0.020 A
HETATM   17  C10 UNL     1       2.791  19.310   8.301  1.00  0.00     0.002 A
HETATM   18  C9  UNL     1       3.469  20.427   8.739  1.00  0.00     0.014 A
HETATM   19  C8  UNL     1       4.038  20.490   9.988  1.00  0.00    -0.008 A
HETATM   20  C33 UNL     1       3.902  19.365  10.809  1.00  0.00     0.034 A
BRANCH  19  21
HETATM   21  C7  UNL     1       4.766  21.627  10.523  1.00  0.00     0.042 A
HETATM   22  C6  UNL     1       6.079  21.875  10.199  1.00  0.00     0.030 A
HETATM   23  C5  UNL     1       6.771  22.960  10.710  1.00  0.00     0.004 A
HETATM   24  C4  UNL     1       6.129  23.818  11.569  1.00  0.00     0.028 A
HETATM   25  C3  UNL     1       4.821  23.560  11.884  1.00  0.00     0.040 A
HETATM   26  N4  UNL     1       4.183  22.502  11.371  1.00  0.00    -0.357 N
ATOM     27  H4  UNL     1       3.209  22.348  11.634  1.00  0.00     0.166 HD
BRANCH  25  28
HETATM   28  C2  UNL     1       4.119  24.483  12.813  1.00  0.00     0.191 C
BRANCH  28  29
HETATM   29  C1  UNL     1       3.500  25.629  12.052  1.00  0.00     0.202 C
BRANCH  29  30
HETATM   30  O1  UNL     1       2.508  26.175  12.883  1.00  0.00    -0.398 OA
ATOM     31  H1  UNL     1       2.545  27.117  12.768  1.00  0.00     0.209 HD
ENDBRANCH  29  30
ENDBRANCH  28  29
BRANCH  28  32
HETATM   32  O2  UNL     1       3.111  23.714  13.437  1.00  0.00    -0.387 OA
ATOM     33  H2  UNL     1       3.504  23.059  14.002  1.00  0.00     0.210 HD
ENDBRANCH  28  32
ENDBRANCH  25  28
ENDBRANCH  19  21
ENDBRANCH  14  15
ENDBRANCH  13  14
ENDBRANCH   1  13
BRANCH   4  34
HETATM   34  N2  UNL     1       2.103  14.402  16.353  1.00  0.00    -0.191 N
ATOM     35  H2  UNL     1       2.811  14.290  17.079  1.00  0.00     0.184 HD
BRANCH  34  36
HETATM   36  C17 UNL     1       0.793  14.753  16.721  1.00  0.00     0.060 A
HETATM   37  C18 UNL     1       0.216  15.911  16.214  1.00  0.00     0.031 A
HETATM   38  C19 UNL     1      -1.061  16.284  16.551  1.00  0.00     0.003 A
HETATM   39  C20 UNL     1      -1.802  15.506  17.409  1.00  0.00     0.012 A
HETATM   40  C21 UNL     1      -1.247  14.362  17.917  1.00  0.00    -0.024 A
HETATM   41  C22 UNL     1      -2.000  13.588  18.777  1.00  0.00     0.012 A
HETATM   42  C26 UNL     1       0.030  13.993  17.576  1.00  0.00     0.001 A
HETATM   43  C23 UNL     1      -1.448  12.447  19.282  1.00  0.00     0.001 A
HETATM   44  C24 UNL     1      -0.150  12.070  18.937  1.00  0.00     0.001 A
HETATM   45  C25 UNL     1       0.604  12.841  18.079  1.00  0.00     0.014 A
ENDBRANCH  34  36
ENDBRANCH   4  34
TORSDOF 10
ENDMDL