MODEL 4
REMARK VINA RESULT: -7.834563310      5.359      9.445
REMARK  7 active torsions:
REMARK  status: ('A' for Active; 'I' for Inactive)
REMARK    1  A    between atoms: C6_6  and  N1_7
REMARK    2  A    between atoms: N1_7  and  C7_9
REMARK    3  A    between atoms: C14_20  and  C15_21
REMARK    4  A    between atoms: C17_24  and  N4_25
REMARK    5  A    between atoms: N4_25  and  C18_27
REMARK    6  A    between atoms: C18_27  and  C19_28
REMARK    7  A    between atoms: C19_28  and  C20_29
ROOT
HETATM    1  C7  UNL     1       1.894  13.917  13.175  1.00  0.00     0.136 A
HETATM    2  N2  UNL     1       1.242  13.447  14.293  1.00  0.00    -0.339 N
ATOM      3  H2  UNL     1       0.744  12.558  14.239  1.00  0.00     0.167 HD
HETATM    4  C8  UNL     1       1.242  14.120  15.448  1.00  0.00     0.060 A
HETATM    5  C9  UNL     1       0.595  13.665  16.574  1.00  0.00     0.032 A
HETATM    6  C10 UNL     1       0.623  14.393  17.736  1.00  0.00     0.002 A
HETATM    7  C11 UNL     1       1.288  15.594  17.827  1.00  0.00     0.002 A
HETATM    8  C12 UNL     1       1.932  16.042  16.701  1.00  0.00     0.032 A
HETATM    9  C13 UNL     1       1.915  15.324  15.523  1.00  0.00     0.059 A
HETATM   10  N3  UNL     1       2.537  15.751  14.420  1.00  0.00    -0.350 N
ATOM     11  H3  UNL     1       3.034  16.640  14.473  1.00  0.00     0.166 HD
HETATM   12  C14 UNL     1       2.557  15.091  13.234  1.00  0.00     0.105 A
ENDROOT
BRANCH  12  13
HETATM   13  C15 UNL     1       3.283  15.654  12.058  1.00  0.00     0.071 A
HETATM   14  C16 UNL     1       4.313  15.016  11.450  1.00  0.00     0.085 A
HETATM   15  S1  UNL     1       4.735  16.126  10.179  1.00  0.00    -0.064 SA
HETATM   16  C17 UNL     1       3.573  17.305  10.519  1.00  0.00     0.144 A
HETATM   17  N7  UNL     1       2.923  16.825  11.561  1.00  0.00    -0.334 N
ATOM     18  H7  UNL     1       2.155  17.350  11.978  1.00  0.00     0.168 HD
BRANCH  16  19
HETATM   19  N4  UNL     1       3.367  18.439   9.887  1.00  0.00    -0.370 N
ATOM     20  H4  UNL     1       2.441  18.682   9.536  1.00  0.00     0.161 HD
BRANCH  19  21
HETATM   21  C18 UNL     1       4.486  19.326   9.702  1.00  0.00     0.126 C
BRANCH  21  22
HETATM   22  C19 UNL     1       3.955  20.735   9.901  1.00  0.00     0.060 C
BRANCH  22  23
HETATM   23  C20 UNL     1       4.858  21.421  10.857  1.00  0.00    -0.027 A
HETATM   24  C21 UNL     1       5.938  20.852  11.514  1.00  0.00     0.097 A
HETATM   25  N5  UNL     1       6.500  21.778  12.282  1.00  0.00    -0.351 N
HETATM   26  C22 UNL     1       5.831  22.940  12.157  1.00  0.00     0.115 A
ATOM     27  H5  UNL     1       7.316  21.632  12.876  1.00  0.00     0.166 HD
HETATM   28  N6  UNL     1       5.991  24.171  12.712  1.00  0.00    -0.352 N
HETATM   29  C26 UNL     1       4.808  22.727  11.274  1.00  0.00     0.016 A
HETATM   30  C23 UNL     1       5.180  25.205  12.432  1.00  0.00     0.089 A
ATOM     31  H6  UNL     1       6.759  24.315  13.368  1.00  0.00     0.166 HD
HETATM   32  C24 UNL     1       4.152  24.990  11.543  1.00  0.00     0.018 A
HETATM   33  C25 UNL     1       3.963  23.752  10.962  1.00  0.00     0.017 A
ENDBRANCH  22  23
ENDBRANCH  21  22
ENDBRANCH  19  21
ENDBRANCH  16  19
ENDBRANCH  12  13
BRANCH   1  34
HETATM   34  N1  UNL     1       1.814  13.173  12.138  1.00  0.00    -0.341 N
ATOM     35  H1  UNL     1       1.175  13.478  11.404  1.00  0.00     0.167 HD
BRANCH  34  36
HETATM   36  C6  UNL     1       2.515  11.978  11.908  1.00  0.00     0.034 A
HETATM   37  C5  UNL     1       2.795  11.121  12.959  1.00  0.00     0.041 A
HETATM   38  C4  UNL     1       3.477   9.935  12.796  1.00  0.00    -0.024 A
HETATM   39  C3  UNL     1       3.741   9.098  13.871  1.00  0.00     0.012 A
HETATM   40  C29 UNL     1       3.907   9.564  11.556  1.00  0.00    -0.026 A
HETATM   41  C2  UNL     1       4.426   7.918  13.673  1.00  0.00     0.001 A
HETATM   42  C1  UNL     1       4.859   7.546  12.419  1.00  0.00     0.001 A
HETATM   43  C30 UNL     1       4.590   8.384  11.364  1.00  0.00     0.012 A
HETATM   44  C28 UNL     1       3.636  10.415  10.477  1.00  0.00     0.014 A
HETATM   45  C27 UNL     1       2.955  11.594  10.654  1.00  0.00     0.030 A
ENDBRANCH  34  36
ENDBRANCH   1  34
TORSDOF 7
ENDMDL