MODEL 5
REMARK VINA RESULT: -9.746043943      4.429      7.462
REMARK  5 active torsions:
REMARK  status: ('A' for Active; 'I' for Inactive)
REMARK    1  A    between atoms: C4_4  and  N1_5
REMARK    2  A    between atoms: N1_5  and  S1_7
REMARK    3  A    between atoms: S1_7  and  C5_10
REMARK    4  A    between atoms: C14_20  and  C15_21
REMARK    5  A    between atoms: C20_28  and  N4_29
ROOT
HETATM    1  C5  UNL     1       0.596  16.517  16.029  1.00  0.00     0.081 A
HETATM    2  C6  UNL     1       1.517  17.509  15.674  1.00  0.00     0.025 A
HETATM    3  C7  UNL     1       1.311  18.349  14.609  1.00  0.00     0.003 A
HETATM    4  C8  UNL     1       0.180  18.258  13.833  1.00  0.00     0.023 A
HETATM    5  C9  UNL     1      -0.755  17.281  14.159  1.00  0.00     0.046 A
HETATM    6  C10 UNL     1      -1.931  17.203  13.332  1.00  0.00     0.099 C
HETATM    7  N2  UNL     1      -2.872  17.122  12.660  1.00  0.00    -0.191 NA
HETATM    8  C11 UNL     1      -0.532  16.445  15.233  1.00  0.00     0.048 A
ENDROOT
BRANCH   1   9
HETATM    9  S1  UNL     1       0.859  15.451  17.378  1.00  0.00     0.263 S
HETATM   10  O1  UNL     1      -0.448  15.417  18.160  1.00  0.00    -0.200 OA
HETATM   11  O2  UNL     1       1.853  16.081  18.358  1.00  0.00    -0.200 OA
BRANCH   9  12
HETATM   12  N1  UNL     1       1.298  13.865  16.990  1.00  0.00    -0.281 N
ATOM     13  H1  UNL     1       1.250  13.186  17.750  1.00  0.00     0.179 HD
BRANCH  12  14
HETATM   14  C4  UNL     1       1.725  13.366  15.729  1.00  0.00     0.043 A
HETATM   15  C3  UNL     1       1.046  12.459  14.962  1.00  0.00     0.037 A
HETATM   16  C2  UNL     1       1.549  12.007  13.736  1.00  0.00    -0.049 A
HETATM   17  C1  UNL     1       0.733  11.023  12.968  1.00  0.00     0.049 C
HETATM   18  C14 UNL     1       2.750  12.450  13.242  1.00  0.00    -0.018 A
HETATM   19  C13 UNL     1       3.450  13.364  14.001  1.00  0.00     0.015 A
HETATM   20  C12 UNL     1       2.954  13.807  15.203  1.00  0.00     0.031 A
BRANCH  18  21
HETATM   21  C15 UNL     1       3.249  11.953  11.963  1.00  0.00     0.003 A
HETATM   22  C16 UNL     1       3.596  10.665  11.582  1.00  0.00     0.101 A
HETATM   23  N3  UNL     1       4.019  10.677  10.304  1.00  0.00    -0.364 N
HETATM   24  C17 UNL     1       3.951  11.949   9.858  1.00  0.00     0.043 A
ATOM     25  H3  UNL     1       4.335   9.868   9.768  1.00  0.00     0.165 HD
HETATM   26  C18 UNL     1       4.259  12.540   8.635  1.00  0.00     0.033 A
HETATM   27  C29 UNL     1       3.478  12.779  10.854  1.00  0.00     0.005 A
HETATM   28  C19 UNL     1       4.100  13.892   8.425  1.00  0.00     0.034 A
HETATM   29  C20 UNL     1       3.628  14.719   9.420  1.00  0.00     0.061 A
HETATM   30  C28 UNL     1       3.322  14.137  10.631  1.00  0.00     0.046 A
BRANCH  29  31
HETATM   31  N4  UNL     1       3.468  16.137   9.195  1.00  0.00    -0.220 N
HETATM   32  N5  UNL     1       4.088  17.096   9.858  1.00  0.00    -0.290 N
HETATM   33  C21 UNL     1       3.742  18.322   9.430  1.00  0.00     0.064 A
ATOM     34  H5  UNL     1       4.754  16.924  10.610  1.00  0.00     0.187 HD
HETATM   35  C22 UNL     1       4.107  19.607   9.797  1.00  0.00     0.032 A
HETATM   36  C26 UNL     1       2.835  18.126   8.420  1.00  0.00     0.062 A
HETATM   37  C23 UNL     1       3.584  20.717   9.175  1.00  0.00     0.002 A
HETATM   38  C24 UNL     1       2.672  20.522   8.159  1.00  0.00     0.001 A
HETATM   39  C25 UNL     1       2.318  19.235   7.804  1.00  0.00     0.019 A
HETATM   40  C27 UNL     1       2.688  16.760   8.301  1.00  0.00     0.279 A
HETATM   41  O3  UNL     1       1.944  16.165   7.486  1.00  0.00    -0.265 OA
ENDBRANCH  29  31
ENDBRANCH  18  21
ENDBRANCH  12  14
ENDBRANCH   9  12
ENDBRANCH   1   9
TORSDOF 5
ENDMDL