MODEL 4
REMARK VINA RESULT: -9.330798587      7.043      9.505
REMARK  6 active torsions:
REMARK  status: ('A' for Active; 'I' for Inactive)
REMARK    1  A    between atoms: C6_7  and  N2_8
REMARK       I    between atoms: N2_8  and  C7_10
REMARK    2  A    between atoms: C7_10  and  C8_12
REMARK    3  A    between atoms: C12_16  and  N3_17
REMARK       I    between atoms: C13_19  and  N4_20
REMARK       I    between atoms: C13_19  and  N6_34
REMARK    4  A    between atoms: N4_20  and  C14_22
REMARK    5  A    between atoms: C15_25  and  C16_26
REMARK    6  A    between atoms: N6_34  and  C23_36
ROOT
HETATM    1  N1  UNL     1       8.257  25.979  11.884  1.00  0.00    -0.191 NA
HETATM    2  C1  UNL     1       7.291  25.371  11.976  1.00  0.00     0.099 C
HETATM    3  C2  UNL     1       6.095  24.601  12.071  1.00  0.00     0.046 A
HETATM    4  C3  UNL     1       4.923  25.175  12.498  1.00  0.00     0.023 A
HETATM    5  C4  UNL     1       3.773  24.427  12.591  1.00  0.00     0.004 A
HETATM    6  C5  UNL     1       3.787  23.113  12.260  1.00  0.00     0.029 A
HETATM    7  C6  UNL     1       4.938  22.469  11.822  1.00  0.00     0.036 A
HETATM    8  C29 UNL     1       6.072  23.237  11.738  1.00  0.00     0.052 A
ENDROOT
BRANCH   7   9
HETATM    9  N2  UNL     1       4.910  21.100  11.498  1.00  0.00    -0.323 N
HETATM   10  C7  UNL     1       4.337  20.447  10.418  1.00  0.00     0.256 C
HETATM   11  O1  UNL     1       3.716  21.023   9.508  1.00  0.00    -0.267 OA
ATOM     12  H2  UNL     1       5.385  20.492  12.165  1.00  0.00     0.169 HD
BRANCH  10  13
HETATM   13  C8  UNL     1       4.427  18.973  10.271  1.00  0.00     0.034 A
HETATM   14  C9  UNL     1       5.426  18.395   9.536  1.00  0.00     0.017 A
HETATM   15  C10 UNL     1       5.537  17.016   9.405  1.00  0.00     0.003 A
HETATM   16  C11 UNL     1       4.601  16.236  10.044  1.00  0.00     0.030 A
HETATM   17  C12 UNL     1       3.567  16.776  10.802  1.00  0.00     0.050 A
HETATM   18  C28 UNL     1       3.507  18.164  10.896  1.00  0.00     0.047 A
BRANCH  17  19
HETATM   19  N3  UNL     1       2.586  16.041  11.478  1.00  0.00    -0.192 N
HETATM   20  C13 UNL     1       2.043  15.000  11.089  1.00  0.00     0.685 C
HETATM   21  N4  UNL     1       2.351  14.384   9.859  1.00  0.00    -0.170 N
HETATM   22  N6  UNL     1       1.034  14.375  11.871  1.00  0.00    -0.190 N
ATOM     23  H4  UNL     1       2.288  14.934   9.003  1.00  0.00     0.186 HD
ATOM     24  H6  UNL     1       0.187  14.092  11.378  1.00  0.00     0.184 HD
ATOM     25  H3  UNL     1       2.288  16.401  12.384  1.00  0.00     0.184 HD
BRANCH  21  26
HETATM   26  C14 UNL     1       2.713  13.130   9.782  1.00  0.00     0.164 A
HETATM   27  N5  UNL     1       3.025  12.282  10.753  1.00  0.00    -0.335 N
HETATM   28  C15 UNL     1       3.353  11.055  10.441  1.00  0.00     0.051 A
ATOM     29  H5  UNL     1       3.008  12.582  11.729  1.00  0.00     0.168 HD
HETATM   30  C22 UNL     1       3.354  10.724   9.106  1.00  0.00     0.083 A
HETATM   31  S1  UNL     1       2.880  12.197   8.377  1.00  0.00    -0.063 SA
BRANCH  28  32
HETATM   32  C16 UNL     1       3.724  10.033  11.459  1.00  0.00    -0.009 A
HETATM   33  C17 UNL     1       4.306   8.860  11.062  1.00  0.00     0.014 A
HETATM   34  C18 UNL     1       4.671   7.884  11.995  1.00  0.00     0.001 A
HETATM   35  C19 UNL     1       4.454   8.080  13.334  1.00  0.00     0.000 A
HETATM   36  C20 UNL     1       3.868   9.258  13.746  1.00  0.00     0.001 A
HETATM   37  C21 UNL     1       3.516  10.208  12.800  1.00  0.00     0.014 A
ENDBRANCH  28  32
ENDBRANCH  21  26
BRANCH  22  38
HETATM   38  C23 UNL     1       1.074  14.104  13.247  1.00  0.00     0.064 A
HETATM   39  C24 UNL     1       1.917  13.212  13.871  1.00  0.00     0.033 A
HETATM   40  C25 UNL     1       1.931  12.975  15.233  1.00  0.00     0.019 A
HETATM   41  C26 UNL     1       1.030  13.690  16.002  1.00  0.00     0.088 A
HETATM   42  N7  UNL     1       0.193  14.568  15.422  1.00  0.00    -0.373 N
HETATM   43  C27 UNL     1       0.196  14.785  14.097  1.00  0.00     0.117 A
ATOM     44  H7  UNL     1      -0.463  15.084  16.007  1.00  0.00     0.164 HD
ENDBRANCH  22  38
ENDBRANCH  17  19
ENDBRANCH  10  13
ENDBRANCH   7   9
TORSDOF 6
ENDMDL