MODEL 5
REMARK VINA RESULT: -4.183461324     10.648     11.804
REMARK  3 active torsions:
REMARK  status: ('A' for Active; 'I' for Inactive)
REMARK    1  A    between atoms: C3_5  and  C4_6
REMARK    2  A    between atoms: C4_6  and  N2_7
REMARK    3  A    between atoms: N2_7  and  C5_10
ROOT
HETATM    1  N2  UNL     1       1.469  -2.245   8.102  1.00  0.00    -0.061 N
ATOM      2  H21 UNL     1       2.029  -2.717   7.392  1.00  0.00     0.278 HD
ATOM      3  H22 UNL     1       0.905  -1.641   7.503  1.00  0.00     0.278 HD
ENDROOT
BRANCH   1   4
HETATM    4  C4  UNL     1       2.309  -1.456   8.963  1.00  0.00     0.308 C
BRANCH   4   5
HETATM    5  C3  UNL     1       3.733  -1.686   8.622  1.00  0.00     0.106 A
HETATM    6  N1  UNL     1       4.785  -0.882   8.700  1.00  0.00    -0.353 N
HETATM    7  C2  UNL     1       5.894  -1.533   8.277  1.00  0.00     0.106 A
ATOM      8  H1  UNL     1       4.761   0.083   9.030  1.00  0.00     0.166 HD
HETATM    9  C1  UNL     1       5.479  -2.797   7.928  1.00  0.00     0.106 A
HETATM   10  N4  UNL     1       4.168  -2.862   8.146  1.00  0.00    -0.353 N
ATOM     11  H4  UNL     1       3.584  -3.680   7.977  1.00  0.00     0.166 HD
ENDBRANCH   4   5
ENDBRANCH   1   4
BRANCH   1  12
HETATM   12  C5  UNL     1       0.635  -3.187   8.794  1.00  0.00     0.237 C
HETATM   13  C6  UNL     1       0.690  -3.118  10.303  1.00  0.00     0.267 C
HETATM   14  N3  UNL     1       0.484  -4.574  10.295  1.00  0.00    -0.071 N
HETATM   15  C7  UNL     1       1.109  -4.582   8.974  1.00  0.00     0.267 C
ATOM     16  H32 UNL     1       0.834  -5.162  11.051  1.00  0.00     0.277 HD
ATOM     17  H31 UNL     1      -0.441  -4.978  10.444  1.00  0.00     0.277 HD
ENDBRANCH   1  12
TORSDOF 3
ENDMDL