MODEL 4
REMARK VINA RESULT: -4.129655843      9.931     10.952
REMARK  3 active torsions:
REMARK  status: ('A' for Active; 'I' for Inactive)
REMARK    1  A    between atoms: C2_2  and  C3_3
REMARK    2  A    between atoms: C3_3  and  N1_4
REMARK    3  A    between atoms: N1_4  and  C4_6
ROOT
HETATM    1  C4  UNL     1       9.079  -2.156  17.545  1.00  0.00     0.176 A
HETATM    2  N2  UNL     1       7.854  -2.405  17.904  1.00  0.00    -0.355 N
ATOM      3  H2  UNL     1       7.233  -3.064  17.436  1.00  0.00     0.163 HD
HETATM    4  C5  UNL     1       7.500  -1.624  19.046  1.00  0.00     0.198 A
HETATM    5  C6  UNL     1       8.688  -0.776  19.306  1.00  0.00     0.095 A
HETATM    6  N3  UNL     1       8.834   0.140  20.214  1.00  0.00    -0.387 N
ATOM      7  H31 UNL     1       9.652   0.723  20.392  1.00  0.00     0.157 HD
ATOM      8  H32 UNL     1       8.134   0.425  20.899  1.00  0.00     0.157 HD
HETATM    9  N4  UNL     1       9.668  -1.174  18.346  1.00  0.00    -0.317 N
ATOM     10  H4  UNL     1      10.617  -0.811  18.261  1.00  0.00     0.170 HD
ENDROOT
BRANCH   1  11
HETATM   11  N1  UNL     1       9.676  -2.827  16.407  1.00  0.00    -0.362 N
ATOM     12  H1  UNL     1      10.632  -3.176  16.472  1.00  0.00     0.162 HD
BRANCH  11  13
HETATM   13  C3  UNL     1       8.933  -3.006  15.187  1.00  0.00     0.122 C
BRANCH  13  14
HETATM   14  C2  UNL     1       8.600  -1.586  14.673  1.00  0.00     0.015 C
HETATM   15  C1  UNL     1       9.792  -0.930  14.045  1.00  0.00     0.006 C
ENDBRANCH  13  14
ENDBRANCH  11  13
ENDBRANCH   1  11
TORSDOF 3
ENDMDL