MODEL 4
REMARK VINA RESULT: -3.704755906     13.506     14.414
REMARK  4 active torsions:
REMARK  status: ('A' for Active; 'I' for Inactive)
REMARK    1  A    between atoms: C2_2  and  C3_3
REMARK    2  A    between atoms: C3_3  and  N1_4
REMARK    3  A    between atoms: N1_4  and  C4_7
REMARK    4  A    between atoms: C8_14  and  N3_15
ROOT
HETATM    1  C4  UNL     1       6.209  -0.602  21.712  1.00  0.00     0.219 C
HETATM    2  C5  UNL     1       7.406   0.273  21.796  1.00  0.00     0.062 C
HETATM    3  C6  UNL     1       7.611   0.932  23.135  1.00  0.00     0.234 C
HETATM    4  N2  UNL     1       6.730   0.441  24.166  1.00  0.00    -0.073 N
ATOM      5  H21 UNL     1       5.776   0.794  24.087  1.00  0.00     0.277 HD
ATOM      6  H22 UNL     1       6.930   0.827  25.088  1.00  0.00     0.277 HD
HETATM    7  C7  UNL     1       6.816  -1.013  24.116  1.00  0.00     0.267 C
HETATM    8  C8  UNL     1       5.924  -1.409  22.943  1.00  0.00     0.239 C
ENDROOT
BRANCH   1   9
HETATM    9  N1  UNL     1       6.222  -1.410  20.522  1.00  0.00    -0.066 N
ATOM     10  H12 UNL     1       5.419  -1.209  19.925  1.00  0.00     0.278 HD
ATOM     11  H11 UNL     1       6.021  -2.388  20.733  1.00  0.00     0.278 HD
BRANCH   9  12
HETATM   12  C3  UNL     1       7.479  -1.268  19.793  1.00  0.00     0.259 C
BRANCH  12  13
HETATM   13  C2  UNL     1       7.375  -1.826  18.418  1.00  0.00    -0.010 C
HETATM   14  C1  UNL     1       8.368  -2.469  17.856  1.00  0.00     0.008 C
ENDBRANCH  12  13
ENDBRANCH   9  12
ENDBRANCH   1   9
BRANCH   8  15
HETATM   15  N3  UNL     1       6.062  -2.821  22.795  1.00  0.00    -0.071 N
ATOM     16  H33 UNL     1       6.633  -3.033  21.977  1.00  0.00     0.274 HD
ATOM     17  H32 UNL     1       6.660  -3.193  23.533  1.00  0.00     0.274 HD
ATOM     18  H31 UNL     1       5.187  -3.345  22.757  1.00  0.00     0.274 HD
ENDBRANCH   8  15
TORSDOF 4
ENDMDL