MODEL 4
REMARK VINA RESULT: -4.100436238      0.939      2.007
REMARK  4 active torsions:
REMARK  status: ('A' for Active; 'I' for Inactive)
REMARK    1  A    between atoms: N1_2  and  C2_5
REMARK    2  A    between atoms: C2_5  and  C3_6
REMARK    3  A    between atoms: C3_6  and  C4_7
REMARK    4  A    between atoms: C7_14  and  N4_15
ROOT
HETATM    1  C4  UNL     1       9.125  -1.882  17.909  1.00  0.00     0.054 A
HETATM    2  N2  UNL     1      10.229  -1.190  18.281  1.00  0.00    -0.365 N
ATOM      3  H2  UNL     1      11.122  -1.357  17.818  1.00  0.00     0.165 HD
HETATM    4  C5  UNL     1      10.133  -0.268  19.278  1.00  0.00     0.105 A
HETATM    5  C6  UNL     1       8.940  -0.009  19.928  1.00  0.00     0.106 A
HETATM    6  N3  UNL     1       7.848  -0.696  19.558  1.00  0.00    -0.350 N
ATOM      7  H3  UNL     1       6.952  -0.532  20.017  1.00  0.00     0.166 HD
HETATM    8  C7  UNL     1       7.954  -1.621  18.554  1.00  0.00     0.121 A
ENDROOT
BRANCH   1   9
HETATM    9  C3  UNL     1       9.154  -2.868  16.820  1.00  0.00     0.088 C
BRANCH   9  10
HETATM   10  C2  UNL     1       8.829  -2.291  15.464  1.00  0.00     0.238 C
BRANCH  10  11
HETATM   11  N1  UNL     1       9.977  -1.445  15.091  1.00  0.00    -0.079 N
HETATM   12  C1  UNL     1       9.507  -0.754  13.879  1.00  0.00     0.267 C
ATOM     13  H12 UNL     1      10.856  -1.950  14.979  1.00  0.00     0.276 HD
ATOM     14  H11 UNL     1      10.306  -0.826  15.832  1.00  0.00     0.276 HD
ENDBRANCH  10  11
ENDBRANCH   9  10
ENDBRANCH   1   9
BRANCH   8  15
HETATM   15  N4  UNL     1       6.854  -2.233  18.259  1.00  0.00    -0.384 N
ATOM     16  H42 UNL     1       6.969  -3.077  17.697  1.00  0.00     0.157 HD
ATOM     17  H41 UNL     1       5.944  -1.894  18.570  1.00  0.00     0.157 HD
ENDBRANCH   8  15
TORSDOF 4
ENDMDL