MODEL 5
REMARK VINA RESULT: -4.353383043      1.886      2.775
REMARK  4 active torsions:
REMARK  status: ('A' for Active; 'I' for Inactive)
REMARK    1  A    between atoms: C2_2  and  N1_3
REMARK    2  A    between atoms: C5_7  and  C6_8
REMARK    3  A    between atoms: C6_8  and  C7_9
REMARK    4  A    between atoms: C7_9  and  N2_10
ROOT
HETATM    1  N1  UNL     1       7.804   0.782  22.268  1.00  0.00    -0.377 N
ATOM      2  H1  UNL     1       8.714   1.242  22.256  1.00  0.00     0.161 HD
HETATM    3  C3  UNL     1       7.569  -0.024  21.307  1.00  0.00     0.103 A
HETATM    4  C4  UNL     1       8.583  -0.182  20.354  1.00  0.00     0.073 A
HETATM    5  C5  UNL     1       8.441  -1.023  19.277  1.00  0.00     0.015 A
HETATM    6  N3  UNL     1       7.283  -1.695  19.172  1.00  0.00    -0.356 N
ATOM      7  H3  UNL     1       7.139  -2.330  18.386  1.00  0.00     0.166 HD
HETATM    8  C8  UNL     1       6.309  -1.542  20.091  1.00  0.00     0.182 A
HETATM    9  N4  UNL     1       6.428  -0.722  21.154  1.00  0.00    -0.339 N
ATOM     10  H4  UNL     1       5.669  -0.632  21.829  1.00  0.00     0.168 HD
ENDROOT
BRANCH   5  11
HETATM   11  C6  UNL     1       9.554  -1.146  18.301  1.00  0.00     0.084 C
BRANCH  11  12
HETATM   12  C7  UNL     1       9.246  -2.199  17.265  1.00  0.00     0.235 C
BRANCH  12  13
HETATM   13  N2  UNL     1      10.141  -1.932  16.128  1.00  0.00    -0.079 N
ATOM     14  H23 UNL     1       9.688  -2.042  15.220  1.00  0.00     0.274 HD
ATOM     15  H22 UNL     1      10.386  -0.948  16.027  1.00  0.00     0.274 HD
ATOM     16  H21 UNL     1      10.950  -2.541  16.253  1.00  0.00     0.274 HD
ENDBRANCH  12  13
ENDBRANCH  11  12
ENDBRANCH   5  11
BRANCH   1  17
HETATM   17  C2  UNL     1       6.952   1.114  23.349  1.00  0.00     0.116 C
HETATM   18  C1  UNL     1       7.383   0.333  24.582  1.00  0.00     0.026 C
ENDBRANCH   1  17
TORSDOF 4
ENDMDL