MODEL 1
REMARK VINA RESULT: -3.583891521      0.000      0.000
REMARK  5 active torsions:
REMARK  status: ('A' for Active; 'I' for Inactive)
REMARK    1  A    between atoms: N1_1  and  C1_5
REMARK    2  A    between atoms: C1_5  and  C2_6
REMARK    3  A    between atoms: C2_6  and  N2_7
REMARK    4  A    between atoms: C2_6  and  C3_11
REMARK    5  A    between atoms: C3_11  and  C4_12
ROOT
HETATM    1  C2  UNL     1       7.649  -0.487  20.020  1.00  0.00     0.209 C
ENDROOT
BRANCH   1   2
HETATM    2  C1  UNL     1       7.808  -1.718  19.160  1.00  0.00     0.262 C
BRANCH   2   3
HETATM    3  N1  UNL     1       6.599  -1.755  18.323  1.00  0.00    -0.077 N
ATOM      4  H13 UNL     1       5.934  -2.481  18.589  1.00  0.00     0.274 HD
ATOM      5  H12 UNL     1       5.972  -0.964  18.467  1.00  0.00     0.274 HD
ATOM      6  H11 UNL     1       6.944  -1.841  17.367  1.00  0.00     0.274 HD
ENDBRANCH   2   3
ENDBRANCH   1   2
BRANCH   1   7
HETATM    7  N2  UNL     1       8.918   0.222  20.156  1.00  0.00    -0.073 N
ATOM      8  H23 UNL     1       9.655  -0.390  20.507  1.00  0.00     0.274 HD
ATOM      9  H22 UNL     1       9.324   0.445  19.246  1.00  0.00     0.274 HD
ATOM     10  H21 UNL     1       8.810   1.053  20.736  1.00  0.00     0.274 HD
ENDBRANCH   1   7
BRANCH   1  11
HETATM   11  C3  UNL     1       7.086  -0.867  21.350  1.00  0.00     0.040 C
BRANCH  11  12
HETATM   12  C4  UNL     1       7.153   0.282  22.295  1.00  0.00     0.013 C
HETATM   13  C5  UNL     1       7.865  -0.150  23.572  1.00  0.00     0.008 C
HETATM   14  C6  UNL     1       7.299   0.495  24.795  1.00  0.00     0.028 C
HETATM   15  C7  UNL     1       6.787   1.885  24.578  1.00  0.00     0.232 C
HETATM   16  N3  UNL     1       5.955   2.008  23.403  1.00  0.00    -0.075 N
HETATM   17  C8  UNL     1       5.752   0.696  22.770  1.00  0.00     0.237 C
ATOM     18  H32 UNL     1       5.070   2.468  23.613  1.00  0.00     0.277 HD
ATOM     19  H31 UNL     1       6.330   2.692  22.745  1.00  0.00     0.277 HD
ENDBRANCH  11  12
ENDBRANCH   1  11
TORSDOF 5
ENDMDL