MODEL 5
REMARK VINA RESULT: -8.149107791      4.227      7.668
REMARK  12 active torsions:
REMARK  status: ('A' for Active; 'I' for Inactive)
REMARK    1  A    between atoms: C4_5  and  C5_6
REMARK    2  A    between atoms: C5_6  and  C6_7
REMARK    3  A    between atoms: C6_7  and  C7_8
REMARK    4  A    between atoms: C12_13  and  N1_14
REMARK       I    between atoms: N1_14  and  C13_16
REMARK    5  A    between atoms: C18_25  and  C19_26
REMARK    6  A    between atoms: C19_26  and  C20_28
REMARK    7  A    between atoms: C20_28  and  C21_29
REMARK    8  A    between atoms: C21_29  and  C22_30
REMARK    9  A    between atoms: C22_30  and  C23_31
REMARK   10  A    between atoms: C23_31  and  C24_32
REMARK   11  A    between atoms: C24_32  and  C25_33
REMARK   12  A    between atoms: C26_36  and  O4_37
ROOT
HETATM    1  C1  UNL     1      35.693  38.842  -9.107  1.00  0.00     0.025 C
HETATM    2  C2  UNL     1      34.394  39.516  -8.716  1.00  0.00     0.029 C
HETATM    3  C3  UNL     1      34.643  40.787  -7.946  1.00  0.00     0.141 C
HETATM    4  O1  UNL     1      35.403  41.048  -7.048  1.00  0.00    -0.297 OA
HETATM    5  C4  UNL     1      33.613  41.449  -8.755  1.00  0.00     0.065 C
HETATM    6  C14 UNL     1      33.827  40.393  -9.798  1.00  0.00     0.035 C
HETATM    7  C15 UNL     1      32.629  39.878 -10.460  1.00  0.00    -0.024 C
HETATM    8  C16 UNL     1      31.860  39.005  -9.883  1.00  0.00    -0.024 C
HETATM    9  C17 UNL     1      32.109  38.460  -8.544  1.00  0.00     0.027 C
HETATM   10  C18 UNL     1      31.833  36.952  -8.641  1.00  0.00     0.092 C
HETATM   11  C26 UNL     1      32.768  36.447  -7.539  1.00  0.00     0.130 C
HETATM   12  C27 UNL     1      34.038  37.210  -7.946  1.00  0.00     0.039 C
HETATM   13  C28 UNL     1      33.468  38.638  -8.018  1.00  0.00     0.013 C
ENDROOT
BRANCH   5  14
HETATM   14  C5  UNL     1      33.842  42.886  -9.137  1.00  0.00     0.013 C
BRANCH  14  15
HETATM   15  C6  UNL     1      32.645  43.503  -9.715  1.00  0.00     0.007 C
BRANCH  15  16
HETATM   16  C7  UNL     1      32.702  43.909 -11.146  1.00  0.00     0.008 C
HETATM   17  C8  UNL     1      32.310  45.347 -11.418  1.00  0.00     0.007 C
HETATM   18  C9  UNL     1      32.019  45.562 -12.890  1.00  0.00     0.001 C
HETATM   19  C10 UNL     1      32.955  44.694 -13.691  1.00  0.00     0.002 C
HETATM   20  C11 UNL     1      32.742  43.214 -13.467  1.00  0.00     0.025 C
HETATM   21  C12 UNL     1      32.067  42.956 -12.120  1.00  0.00     0.088 C
BRANCH  21  22
HETATM   22  N1  UNL     1      30.657  43.029 -12.203  1.00  0.00    -0.360 N
HETATM   23  C13 UNL     1      29.953  42.098 -12.996  1.00  0.00     0.182 C
HETATM   24  N2  UNL     1      30.381  40.890 -13.046  1.00  0.00    -0.374 N
HETATM   25  N3  UNL     1      28.790  42.433 -13.741  1.00  0.00    -0.064 NA
ATOM     26  H22 UNL     1      31.215  40.650 -12.511  1.00  0.00     0.158 HD
ATOM     27  H21 UNL     1      29.871  40.217 -13.619  1.00  0.00     0.158 HD
ATOM     28  H1  UNL     1      30.151  43.753 -11.693  1.00  0.00     0.162 HD
ENDBRANCH  21  22
ENDBRANCH  15  16
ENDBRANCH  14  15
ENDBRANCH   5  14
BRANCH  10  29
HETATM   29  C19 UNL     1      30.452  36.636  -8.252  1.00  0.00     0.134 C
HETATM   30  O2  UNL     1      30.217  35.899  -7.311  1.00  0.00    -0.297 OA
BRANCH  29  31
HETATM   31  C20 UNL     1      29.323  37.213  -9.006  1.00  0.00     0.079 C
BRANCH  31  32
HETATM   32  C21 UNL     1      28.105  36.320  -8.996  1.00  0.00     0.007 C
BRANCH  32  33
HETATM   33  C22 UNL     1      27.198  36.552 -10.182  1.00  0.00     0.001 C
BRANCH  33  34
HETATM   34  C23 UNL     1      26.458  37.844 -10.106  1.00  0.00     0.009 C
BRANCH  34  35
HETATM   35  C24 UNL     1      26.303  38.404 -11.496  1.00  0.00     0.099 C
BRANCH  35  36
HETATM   36  C25 UNL     1      27.573  39.033 -11.903  1.00  0.00     0.231 C
HETATM   37  N4  UNL     1      28.054  38.817 -13.218  1.00  0.00    -0.062 NA
HETATM   38  O3  UNL     1      28.206  39.740 -11.100  1.00  0.00    -0.277 OA
ENDBRANCH  35  36
ENDBRANCH  34  35
ENDBRANCH  33  34
ENDBRANCH  32  33
ENDBRANCH  31  32
ENDBRANCH  29  31
ENDBRANCH  10  29
BRANCH  11  39
HETATM   39  O4  UNL     1      32.382  37.010  -6.320  1.00  0.00    -0.395 OA
ATOM     40  H4  UNL     1      33.052  37.621  -6.035  1.00  0.00     0.210 HD
ENDBRANCH  11  39
TORSDOF 12
ENDMDL