MODEL 2
REMARK VINA RESULT: -6.549683492      2.688      4.942
REMARK  12 active torsions:
REMARK  status: ('A' for Active; 'I' for Inactive)
REMARK    1  A    between atoms: C2_2  and  C3_4
REMARK    2  A    between atoms: C3_4  and  C4_5
REMARK    3  A    between atoms: C4_5  and  C5_6
REMARK    4  A    between atoms: C5_6  and  C6_7
REMARK    5  A    between atoms: C6_7  and  C7_8
REMARK    6  A    between atoms: C7_8  and  C8_9
REMARK    7  A    between atoms: C10_14  and  C11_15
REMARK    8  A    between atoms: C11_15  and  C12_16
REMARK    9  A    between atoms: C15_21  and  O3_22
REMARK   10  A    between atoms: C16_24  and  C17_25
REMARK   11  A    between atoms: C17_25  and  C18_26
REMARK   12  A    between atoms: C21_31  and  C22_32
ROOT
HETATM    1  C8  UNL     1      33.421  39.020  -7.772  1.00  0.00     0.177 C
HETATM    2  N1  UNL     1      33.931  39.093  -9.186  1.00  0.00    -0.346 N
ATOM      3  H1  UNL     1      34.765  38.556  -9.422  1.00  0.00     0.163 HD
HETATM    4  C9  UNL     1      33.335  39.843 -10.187  1.00  0.00     0.241 C
HETATM    5  O2  UNL     1      33.651  39.583 -11.401  1.00  0.00    -0.271 OA
HETATM    6  C10 UNL     1      32.354  40.939  -9.982  1.00  0.00     0.175 C
HETATM    7  N2  UNL     1      31.002  40.596  -9.764  1.00  0.00    -0.359 N
ATOM      8  H2  UNL     1      30.609  41.177  -9.023  1.00  0.00     0.162 HD
HETATM    9  C15 UNL     1      30.041  39.720 -10.240  1.00  0.00     0.135 C
HETATM   10  C16 UNL     1      29.943  38.322 -10.552  1.00  0.00     0.152 C
HETATM   11  N3  UNL     1      31.037  37.481 -10.514  1.00  0.00    -0.399 N
ATOM     12  H3  UNL     1      31.692  37.606 -11.285  1.00  0.00     0.154 HD
HETATM   13  C21 UNL     1      31.389  36.521  -9.630  1.00  0.00     0.148 C
HETATM   14  C25 UNL     1      31.189  36.659  -8.182  1.00  0.00     0.100 C
HETATM   15  N4  UNL     1      29.995  36.670  -7.649  1.00  0.00    -0.387 N
ATOM     16  H41 UNL     1      29.856  36.766  -6.642  1.00  0.00     0.157 HD
ATOM     17  H42 UNL     1      29.233  36.582  -8.322  1.00  0.00     0.157 HD
HETATM   18  N5  UNL     1      32.250  36.782  -7.244  1.00  0.00    -0.314 N
ATOM     19  H5  UNL     1      32.165  36.249  -6.379  1.00  0.00     0.170 HD
HETATM   20  C26 UNL     1      33.422  37.580  -7.399  1.00  0.00     0.245 C
HETATM   21  O4  UNL     1      34.541  37.035  -7.212  1.00  0.00    -0.271 OA
ENDROOT
BRANCH   1  22
HETATM   22  C7  UNL     1      34.376  39.806  -6.955  1.00  0.00     0.035 C
BRANCH  22  23
HETATM   23  C6  UNL     1      34.495  41.276  -7.092  1.00  0.00     0.002 C
BRANCH  23  24
HETATM   24  C5  UNL     1      34.794  42.105  -5.920  1.00  0.00     0.000 C
BRANCH  24  25
HETATM   25  C4  UNL     1      35.978  41.778  -5.082  1.00  0.00     0.007 C
BRANCH  25  26
HETATM   26  C3  UNL     1      35.962  42.104  -3.645  1.00  0.00     0.077 C
BRANCH  26  27
HETATM   27  C2  UNL     1      37.165  42.637  -3.048  1.00  0.00     0.123 C
HETATM   28  C1  UNL     1      37.054  43.702  -1.992  1.00  0.00     0.091 C
HETATM   29  O1  UNL     1      38.279  42.297  -3.328  1.00  0.00    -0.298 OA
ENDBRANCH  26  27
ENDBRANCH  25  26
ENDBRANCH  24  25
ENDBRANCH  23  24
ENDBRANCH  22  23
ENDBRANCH   1  22
BRANCH   6  30
HETATM   30  C11 UNL     1      32.616  42.031 -11.007  1.00  0.00     0.038 C
BRANCH  30  31
HETATM   31  C12 UNL     1      33.373  43.200 -10.447  1.00  0.00    -0.020 C
HETATM   32  C13 UNL     1      32.665  43.587  -9.141  1.00  0.00     0.009 C
HETATM   33  C14 UNL     1      33.351  44.422 -11.312  1.00  0.00     0.009 C
ENDBRANCH  30  31
ENDBRANCH   6  30
BRANCH  13  34
HETATM   34  C22 UNL     1      30.802  35.176 -10.119  1.00  0.00     0.007 C
HETATM   35  C23 UNL     1      31.045  34.958 -11.574  1.00  0.00     0.012 C
HETATM   36  C24 UNL     1      31.316  34.016  -9.337  1.00  0.00     0.012 C
ENDBRANCH  13  34
BRANCH   9  37
HETATM   37  O3  UNL     1      28.864  40.275 -10.485  1.00  0.00    -0.348 OA
ATOM     38  H3  UNL     1      28.273  39.737 -11.000  1.00  0.00     0.219 HD
ENDBRANCH   9  37
BRANCH  10  39
HETATM   39  C17 UNL     1      29.240  38.064 -11.846  1.00  0.00     0.037 C
BRANCH  39  40
HETATM   40  C18 UNL     1      28.040  37.228 -11.901  1.00  0.00    -0.020 C
HETATM   41  C19 UNL     1      27.525  36.979 -10.438  1.00  0.00     0.009 C
HETATM   42  C20 UNL     1      26.813  37.788 -12.569  1.00  0.00     0.009 C
ENDBRANCH  39  40
ENDBRANCH  10  39
TORSDOF 12
ENDMDL