MODEL 1
REMARK VINA RESULT: -8.384443445      0.000      0.000
REMARK  14 active torsions:
REMARK  status: ('A' for Active; 'I' for Inactive)
REMARK    1  A    between atoms: C2_2  and  C3_3
REMARK    2  A    between atoms: C3_3  and  C4_4
REMARK    3  A    between atoms: C4_4  and  C5_5
REMARK    4  A    between atoms: C5_5  and  C6_6
REMARK    5  A    between atoms: C6_6  and  N1_7
REMARK    6  A    between atoms: N1_7  and  C7_9
REMARK    7  A    between atoms: C7_9  and  N2_11
REMARK    8  A    between atoms: N2_11  and  C8_13
REMARK    9  A    between atoms: C8_13  and  C9_14
REMARK   10  A    between atoms: C9_14  and  C10_15
REMARK   11  A    between atoms: C10_15  and  N3_16
REMARK   12  A    between atoms: N3_16  and  C11_19
REMARK   13  A    between atoms: C11_19  and  C12_20
REMARK   14  A    between atoms: C25_36  and  O2_37
ROOT
HETATM    1  N1  UNL     1      32.298  42.661  -9.329  1.00  0.00    -0.367 N
ATOM      2  H1  UNL     1      31.304  42.495  -9.168  1.00  0.00     0.161 HD
ENDROOT
BRANCH   1   3
HETATM    3  C6  UNL     1      32.736  43.947  -9.748  1.00  0.00     0.122 C
BRANCH   3   4
HETATM    4  C5  UNL     1      33.410  43.923 -11.137  1.00  0.00     0.022 C
BRANCH   4   5
HETATM    5  C4  UNL     1      32.594  44.678 -12.087  1.00  0.00     0.033 C
BRANCH   5   6
HETATM    6  C3  UNL     1      31.872  43.995 -13.194  1.00  0.00     0.038 C
HETATM    7  N4  UNL     1      32.705  42.813 -13.492  1.00  0.00    -0.351 N
HETATM    8  C21 UNL     1      32.179  41.706 -14.153  1.00  0.00     0.228 C
ATOM      9  H4  UNL     1      33.685  42.807 -13.208  1.00  0.00     0.163 HD
HETATM   10  O1  UNL     1      32.807  41.117 -15.086  1.00  0.00    -0.273 OA
HETATM   11  C22 UNL     1      30.846  41.191 -13.762  1.00  0.00     0.060 C
HETATM   12  C23 UNL     1      29.869  41.121 -14.880  1.00  0.00     0.028 C
HETATM   13  C24 UNL     1      31.056  39.756 -13.257  1.00  0.00     0.028 C
HETATM   14  C25 UNL     1      30.416  42.007 -12.576  1.00  0.00     0.141 C
HETATM   15  C26 UNL     1      30.519  43.482 -12.792  1.00  0.00     0.040 C
HETATM   16  C27 UNL     1      29.364  43.940 -13.606  1.00  0.00     0.015 C
BRANCH   6  17
HETATM   17  C2  UNL     1      31.887  44.747 -14.485  1.00  0.00     0.027 C
HETATM   18  C1  UNL     1      33.154  45.199 -15.064  1.00  0.00     0.007 C
ENDBRANCH   6  17
BRANCH  14  19
HETATM   19  O2  UNL     1      29.121  41.688 -12.243  1.00  0.00    -0.394 OA
ATOM     20  H2  UNL     1      28.547  42.412 -12.466  1.00  0.00     0.210 HD
ENDBRANCH  14  19
ENDBRANCH   5   6
ENDBRANCH   4   5
ENDBRANCH   3   4
ENDBRANCH   1   3
BRANCH   1  21
HETATM   21  C7  UNL     1      33.241  41.588  -9.129  1.00  0.00     0.167 C
HETATM   22  S1  UNL     1      33.153  40.298 -10.128  1.00  0.00    -0.041 SA
BRANCH  21  23
HETATM   23  N2  UNL     1      34.212  41.664  -8.123  1.00  0.00    -0.367 N
ATOM     24  H2  UNL     1      34.953  42.360  -8.211  1.00  0.00     0.161 HD
BRANCH  23  25
HETATM   25  C8  UNL     1      34.211  40.811  -6.982  1.00  0.00     0.123 C
BRANCH  25  26
HETATM   26  C9  UNL     1      35.414  40.934  -6.084  1.00  0.00     0.047 C
BRANCH  26  27
HETATM   27  C10 UNL     1      35.340  42.181  -5.250  1.00  0.00     0.234 C
BRANCH  27  28
HETATM   28  N3  UNL     1      35.448  41.952  -3.847  1.00  0.00    -0.071 N
ATOM     29  H32 UNL     1      34.626  42.275  -3.338  1.00  0.00     0.277 HD
ATOM     30  H31 UNL     1      35.383  40.962  -3.611  1.00  0.00     0.277 HD
BRANCH  28  31
HETATM   31  C11 UNL     1      36.679  42.559  -3.355  1.00  0.00     0.271 C
BRANCH  31  32
HETATM   32  C12 UNL     1      36.894  42.297  -1.930  1.00  0.00    -0.026 A
HETATM   33  C13 UNL     1      36.626  41.037  -1.425  1.00  0.00     0.009 A
HETATM   34  C14 UNL     1      36.833  40.821  -0.090  1.00  0.00     0.001 A
HETATM   35  C15 UNL     1      37.295  41.812   0.745  1.00  0.00     0.007 A
HETATM   36  C16 UNL     1      37.569  43.074   0.264  1.00  0.00    -0.051 A
HETATM   37  C17 UNL     1      37.354  43.280  -1.089  1.00  0.00    -0.044 A
HETATM   38  C20 UNL     1      38.065  44.324   0.891  1.00  0.00     0.039 C
HETATM   39  C18 UNL     1      37.704  44.701  -1.430  1.00  0.00     0.040 C
HETATM   40  C19 UNL     1      37.754  45.424  -0.116  1.00  0.00     0.009 C
ENDBRANCH  31  32
ENDBRANCH  28  31
ENDBRANCH  27  28
ENDBRANCH  26  27
ENDBRANCH  25  26
ENDBRANCH  23  25
ENDBRANCH  21  23
ENDBRANCH   1  21
TORSDOF 14
ENDMDL