MODEL 3
REMARK VINA RESULT: -7.851279472      2.978     10.275
REMARK  13 active torsions:
REMARK  status: ('A' for Active; 'I' for Inactive)
REMARK    1  A    between atoms: C2_2  and  N2_6
REMARK    2  A    between atoms: N2_6  and  C3_8
REMARK    3  A    between atoms: N5_15  and  C5_16
REMARK    4  A    between atoms: C5_16  and  C6_17
REMARK    5  A    between atoms: C9_20  and  C10_21
REMARK       I    between atoms: C10_21  and  N6_23
REMARK    6  A    between atoms: N6_23  and  C11_25
REMARK    7  A    between atoms: C11_25  and  C12_26
REMARK    8  A    between atoms: C12_26  and  C13_27
REMARK    9  A    between atoms: C13_27  and  C14_28
REMARK   10  A    between atoms: C14_28  and  C15_29
REMARK   11  A    between atoms: C15_29  and  C16_30
REMARK   12  A    between atoms: N7_32  and  C18_34
REMARK   13  A    between atoms: C20_36  and  C21_37
ROOT
HETATM    1  C6  UNL     1      33.301  41.515  -8.982  1.00  0.00     0.005 C
HETATM    2  C7  UNL     1      33.167  42.602  -7.972  1.00  0.00     0.007 C
HETATM    3  C8  UNL     1      34.366  42.624  -7.026  1.00  0.00     0.014 C
HETATM    4  C9  UNL     1      34.552  41.248  -6.417  1.00  0.00     0.078 C
HETATM    5  C22 UNL     1      34.862  40.293  -7.547  1.00  0.00     0.014 C
HETATM    6  C23 UNL     1      33.543  40.167  -8.346  1.00  0.00     0.007 C
ENDROOT
BRANCH   4   7
HETATM    7  C10 UNL     1      35.642  41.304  -5.415  1.00  0.00     0.221 C
HETATM    8  O1  UNL     1      36.455  40.346  -5.347  1.00  0.00    -0.273 OA
HETATM    9  N6  UNL     1      35.783  42.398  -4.544  1.00  0.00    -0.361 N
ATOM     10  H6  UNL     1      35.128  43.178  -4.592  1.00  0.00     0.162 HD
BRANCH   9  11
HETATM   11  C11 UNL     1      36.852  42.416  -3.585  1.00  0.00     0.122 C
BRANCH  11  12
HETATM   12  C12 UNL     1      36.400  43.022  -2.285  1.00  0.00     0.020 C
BRANCH  12  13
HETATM   13  C13 UNL     1      36.351  41.963  -1.224  1.00  0.00     0.002 C
BRANCH  13  14
HETATM   14  C14 UNL     1      37.442  40.962  -1.438  1.00  0.00     0.006 C
BRANCH  14  15
HETATM   15  C15 UNL     1      36.927  39.579  -1.130  1.00  0.00     0.052 C
BRANCH  15  16
HETATM   16  C16 UNL     1      37.779  38.643  -1.947  1.00  0.00    -0.017 C
HETATM   17  C17 UNL     1      38.160  37.359  -1.314  1.00  0.00     0.063 C
HETATM   18  N7  UNL     1      38.110  39.019  -3.116  1.00  0.00    -0.367 N
ATOM     19  H7  UNL     1      37.784  39.930  -3.440  1.00  0.00     0.165 HD
BRANCH  18  20
HETATM   20  C18 UNL     1      38.913  38.237  -3.998  1.00  0.00     0.011 C
HETATM   21  C19 UNL     1      40.378  38.454  -3.932  1.00  0.00     0.068 C
HETATM   22  C20 UNL     1      38.420  37.365  -4.832  1.00  0.00     0.108 C
BRANCH  22  23
HETATM   23  C21 UNL     1      39.193  36.553  -5.740  1.00  0.00     0.200 C
HETATM   24  O2  UNL     1      39.468  36.857  -6.927  1.00  0.00    -0.644 OA
HETATM   25  O3  UNL     1      39.705  35.311  -5.321  1.00  0.00    -0.644 OA
ENDBRANCH  22  23
ENDBRANCH  18  20
ENDBRANCH  15  16
ENDBRANCH  14  15
ENDBRANCH  13  14
ENDBRANCH  12  13
ENDBRANCH  11  12
ENDBRANCH   9  11
ENDBRANCH   4   7
BRANCH   1  26
HETATM   26  C5  UNL     1      32.160  41.503  -9.934  1.00  0.00     0.156 C
BRANCH  26  27
HETATM   27  N5  UNL     1      32.417  42.110 -11.195  1.00  0.00    -0.144 N
HETATM   28  C4  UNL     1      32.601  41.467 -12.454  1.00  0.00     0.682 A
HETATM   29  N3  UNL     1      32.804  42.495 -13.408  1.00  0.00    -0.171 N
HETATM   30  N4  UNL     1      32.582  40.224 -12.747  1.00  0.00    -0.234 N
HETATM   31  C3  UNL     1      32.763  43.658 -12.877  1.00  0.00     0.191 A
ATOM     32  H3  UNL     1      32.964  42.326 -14.401  1.00  0.00     0.186 HD
HETATM   33  C24 UNL     1      32.517  43.517 -11.442  1.00  0.00     0.306 A
HETATM   34  O4  UNL     1      32.414  44.448 -10.605  1.00  0.00    -0.263 OA
ATOM     35  H42 UNL     1      32.713  39.764 -13.648  1.00  0.00     0.174 HD
ATOM     36  H41 UNL     1      32.436  39.484 -12.060  1.00  0.00     0.174 HD
BRANCH  31  37
HETATM   37  N2  UNL     1      32.927  44.926 -13.535  1.00  0.00    -0.328 N
ATOM     38  H2  UNL     1      33.251  45.733 -13.003  1.00  0.00     0.169 HD
BRANCH  37  39
HETATM   39  C2  UNL     1      32.641  45.063 -14.914  1.00  0.00     0.072 C
HETATM   40  C1  UNL     1      31.292  44.873 -15.493  1.00  0.00     0.088 C
HETATM   41  N1  UNL     1      33.607  45.373 -15.725  1.00  0.00    -0.389 N
ATOM     42  H12 UNL     1      33.401  45.472 -16.719  1.00  0.00     0.157 HD
ATOM     43  H11 UNL     1      34.537  45.504 -15.326  1.00  0.00     0.157 HD
ENDBRANCH  37  39
ENDBRANCH  31  37
ENDBRANCH  26  27
ENDBRANCH   1  26
TORSDOF 13
ENDMDL