MODEL 5
REMARK VINA RESULT: -7.605971926      4.605     11.845
REMARK  15 active torsions:
REMARK  status: ('A' for Active; 'I' for Inactive)
REMARK    1  A    between atoms: C6_6  and  N1_7
REMARK    2  A    between atoms: N1_7  and  C7_9
REMARK    3  A    between atoms: C7_9  and  N2_11
REMARK    4  A    between atoms: N2_11  and  C8_13
REMARK    5  A    between atoms: C8_13  and  C9_14
REMARK    6  A    between atoms: C9_14  and  C10_15
REMARK    7  A    between atoms: C10_15  and  C11_16
REMARK    8  A    between atoms: C11_16  and  C12_17
REMARK    9  A    between atoms: C12_17  and  C13_18
REMARK   10  A    between atoms: C13_18  and  N3_19
REMARK   11  A    between atoms: N3_19  and  C14_22
REMARK   12  A    between atoms: C14_22  and  C15_23
REMARK   13  A    between atoms: C15_23  and  N4_24
REMARK       I    between atoms: N4_24  and  C16_26
REMARK   14  A    between atoms: C16_26  and  O2_28
REMARK   15  A    between atoms: O2_28  and  C17_29
ROOT
HETATM    1  N3  UNL     1      32.769  37.793  -7.186  1.00  0.00    -0.074 N
ATOM      2  H31 UNL     1      32.793  38.613  -6.580  1.00  0.00     0.277 HD
ATOM      3  H32 UNL     1      32.720  37.056  -6.483  1.00  0.00     0.277 HD
ENDROOT
BRANCH   1   4
HETATM    4  C13 UNL     1      33.984  37.690  -7.932  1.00  0.00     0.232 C
BRANCH   4   5
HETATM    5  C12 UNL     1      35.035  38.684  -7.480  1.00  0.00     0.027 C
BRANCH   5   6
HETATM    6  C11 UNL     1      34.320  39.834  -6.825  1.00  0.00     0.002 C
BRANCH   6   7
HETATM    7  C10 UNL     1      34.993  41.164  -7.076  1.00  0.00     0.002 C
BRANCH   7   8
HETATM    8  C9  UNL     1      34.660  42.184  -5.999  1.00  0.00     0.020 C
BRANCH   8   9
HETATM    9  C8  UNL     1      35.822  42.168  -5.031  1.00  0.00     0.122 C
BRANCH   9  10
HETATM   10  N2  UNL     1      35.380  41.811  -3.718  1.00  0.00    -0.367 N
ATOM     11  H2  UNL     1      34.379  41.774  -3.532  1.00  0.00     0.161 HD
BRANCH  10  12
HETATM   12  C7  UNL     1      36.277  41.507  -2.669  1.00  0.00     0.173 C
HETATM   13  S1  UNL     1      37.762  40.902  -3.025  1.00  0.00    -0.041 SA
BRANCH  12  14
HETATM   14  N1  UNL     1      35.965  41.695  -1.299  1.00  0.00    -0.319 N
ATOM     15  H1  UNL     1      35.137  41.238  -0.917  1.00  0.00     0.169 HD
BRANCH  14  16
HETATM   16  C6  UNL     1      36.679  42.413  -0.528  1.00  0.00     0.107 A
HETATM   17  C5  UNL     1      37.173  41.884   0.650  1.00  0.00     0.048 A
HETATM   18  C4  UNL     1      37.940  42.663   1.475  1.00  0.00     0.006 A
HETATM   19  C3  UNL     1      38.210  43.969   1.117  1.00  0.00     0.025 A
HETATM   20  C2  UNL     1      37.709  44.484  -0.063  1.00  0.00     0.007 A
HETATM   21  C1  UNL     1      37.981  45.880  -0.476  1.00  0.00     0.068 C
HETATM   22  N6  UNL     1      36.970  43.701  -0.838  1.00  0.00    -0.346 N
ATOM     23  H6  UNL     1      36.604  44.085  -1.709  1.00  0.00     0.167 HD
ENDBRANCH  14  16
ENDBRANCH  12  14
ENDBRANCH  10  12
ENDBRANCH   9  10
ENDBRANCH   8   9
ENDBRANCH   7   8
ENDBRANCH   6   7
ENDBRANCH   5   6
ENDBRANCH   4   5
ENDBRANCH   1   4
BRANCH   1  24
HETATM   24  C14 UNL     1      31.572  37.799  -7.992  1.00  0.00     0.252 C
BRANCH  24  25
HETATM   25  C15 UNL     1      31.745  38.462  -9.314  1.00  0.00     0.152 C
BRANCH  25  26
HETATM   26  N4  UNL     1      31.661  39.902  -9.294  1.00  0.00    -0.335 N
HETATM   27  C16 UNL     1      32.552  40.722 -10.015  1.00  0.00     0.361 C
HETATM   28  O1  UNL     1      33.458  40.241 -10.702  1.00  0.00    -0.239 OA
ATOM     29  H4  UNL     1      30.929  40.343  -8.736  1.00  0.00     0.164 HD
BRANCH  27  30
HETATM   30  O2  UNL     1      32.501  42.102 -10.022  1.00  0.00    -0.296 OA
BRANCH  30  31
HETATM   31  C17 UNL     1      32.587  42.913 -11.143  1.00  0.00     0.164 C
HETATM   32  C18 UNL     1      32.466  44.396 -10.764  1.00  0.00     0.039 C
HETATM   33  C19 UNL     1      32.619  45.291 -11.942  1.00  0.00    -0.010 C
HETATM   34  C20 UNL     1      31.252  45.772 -12.430  1.00  0.00     0.009 C
HETATM   35  C24 UNL     1      33.467  44.767 -13.046  1.00  0.00     0.037 C
HETATM   36  C21 UNL     1      30.637  44.677 -13.249  1.00  0.00    -0.010 C
HETATM   37  C22 UNL     1      31.479  44.500 -14.481  1.00  0.00     0.037 C
HETATM   38  C26 UNL     1      30.487  43.463 -12.414  1.00  0.00     0.040 C
HETATM   39  C23 UNL     1      32.775  43.865 -14.019  1.00  0.00     0.187 C
HETATM   40  N5  UNL     1      32.453  42.570 -13.525  1.00  0.00    -0.064 N
HETATM   41  C25 UNL     1      31.698  42.596 -12.285  1.00  0.00     0.216 C
ATOM     42  H52 UNL     1      31.964  42.025 -14.234  1.00  0.00     0.278 HD
ATOM     43  H51 UNL     1      33.294  42.002 -13.425  1.00  0.00     0.278 HD
ENDBRANCH  30  31
ENDBRANCH  27  30
ENDBRANCH  25  26
ENDBRANCH  24  25
ENDBRANCH   1  24
TORSDOF 15
ENDMDL