MODEL 2
REMARK VINA RESULT: -6.621888578      1.046      1.405
REMARK  13 active torsions:
REMARK  status: ('A' for Active; 'I' for Inactive)
REMARK    1  A    between atoms: C2_2  and  C4_4
REMARK    2  A    between atoms: C4_4  and  C5_5
REMARK    3  A    between atoms: C8_9  and  C9_10
REMARK    4  A    between atoms: C12_13  and  O1_14
REMARK    5  A    between atoms: C13_18  and  C14_19
REMARK    6  A    between atoms: C14_19  and  C15_20
REMARK    7  A    between atoms: C15_20  and  C16_21
REMARK    8  A    between atoms: C16_21  and  C17_22
REMARK    9  A    between atoms: C17_22  and  C18_23
REMARK   10  A    between atoms: C18_23  and  C19_24
REMARK   11  A    between atoms: C20_27  and  O4_28
REMARK   12  A    between atoms: C21_32  and  C22_33
REMARK   13  A    between atoms: C22_33  and  C23_34
ROOT
HETATM    1  C5  UNL     1      30.480  37.034  -9.404  1.00  0.00     0.022 C
HETATM    2  C6  UNL     1      30.195  38.453  -9.638  1.00  0.00     0.085 C
HETATM    3  N1  UNL     1      30.210  39.030 -10.901  1.00  0.00    -0.282 NA
HETATM    4  C7  UNL     1      28.974  38.573 -11.579  1.00  0.00     0.117 C
HETATM    5  C8  UNL     1      31.217  38.973 -11.829  1.00  0.00     0.139 C
HETATM    6  C12 UNL     1      32.595  39.369 -11.610  1.00  0.00     0.131 C
HETATM    7  N2  UNL     1      33.317  40.276 -10.889  1.00  0.00    -0.361 N
ATOM      8  H2  UNL     1      33.932  40.796 -11.514  1.00  0.00     0.162 HD
HETATM    9  C13 UNL     1      33.498  40.741  -9.546  1.00  0.00     0.157 C
HETATM   10  C20 UNL     1      33.621  39.780  -8.471  1.00  0.00     0.135 C
HETATM   11  N3  UNL     1      33.453  38.417  -8.313  1.00  0.00    -0.359 N
ATOM     12  H3  UNL     1      32.822  38.148  -7.558  1.00  0.00     0.162 HD
HETATM   13  C21 UNL     1      34.036  37.295  -9.056  1.00  0.00     0.176 C
HETATM   14  C26 UNL     1      32.976  36.277  -9.275  1.00  0.00     0.244 C
HETATM   15  O5  UNL     1      33.305  35.094  -8.893  1.00  0.00    -0.271 OA
HETATM   16  N4  UNL     1      31.695  36.440  -9.831  1.00  0.00    -0.328 N
ATOM     17  H4  UNL     1      31.622  36.034 -10.764  1.00  0.00     0.168 HD
ENDROOT
BRANCH   9  18
HETATM   18  C14 UNL     1      32.439  41.789  -9.318  1.00  0.00     0.033 C
BRANCH  18  19
HETATM   19  C15 UNL     1      32.857  43.185  -9.077  1.00  0.00     0.002 C
BRANCH  19  20
HETATM   20  C16 UNL     1      33.598  43.849 -10.204  1.00  0.00     0.001 C
BRANCH  20  21
HETATM   21  C17 UNL     1      32.739  43.841 -11.443  1.00  0.00     0.010 C
BRANCH  21  22
HETATM   22  C18 UNL     1      32.095  45.166 -11.729  1.00  0.00     0.113 C
BRANCH  22  23
HETATM   23  C19 UNL     1      32.972  45.963 -12.663  1.00  0.00     0.172 C
HETATM   24  O2  UNL     1      33.492  45.466 -13.679  1.00  0.00    -0.648 OA
HETATM   25  O3  UNL     1      33.181  47.296 -12.339  1.00  0.00    -0.648 OA
ENDBRANCH  22  23
ENDBRANCH  21  22
ENDBRANCH  20  21
ENDBRANCH  19  20
ENDBRANCH  18  19
ENDBRANCH   9  18
BRANCH  10  26
HETATM   26  O4  UNL     1      33.983  40.324  -7.347  1.00  0.00    -0.348 OA
ATOM     27  H4  UNL     1      34.866  40.086  -7.089  1.00  0.00     0.219 HD
ENDBRANCH  10  26
BRANCH   6  28
HETATM   28  O1  UNL     1      33.402  38.618 -12.342  1.00  0.00    -0.348 OA
ATOM     29  H1  UNL     1      34.017  38.160 -11.780  1.00  0.00     0.219 HD
ENDBRANCH   6  28
BRANCH   5  30
HETATM   30  C9  UNL     1      30.672  39.663 -13.116  1.00  0.00     0.003 C
HETATM   31  C10 UNL     1      31.186  38.930 -14.335  1.00  0.00     0.011 C
HETATM   32  C11 UNL     1      31.160  41.090 -13.205  1.00  0.00     0.011 C
ENDBRANCH   5  30
BRANCH  13  33
HETATM   33  C22 UNL     1      35.127  36.787  -8.148  1.00  0.00     0.038 C
BRANCH  33  34
HETATM   34  C23 UNL     1      36.507  36.736  -8.700  1.00  0.00    -0.020 C
HETATM   35  C24 UNL     1      36.598  37.795  -9.800  1.00  0.00     0.009 C
HETATM   36  C25 UNL     1      36.741  35.409  -9.465  1.00  0.00     0.009 C
ENDBRANCH  33  34
ENDBRANCH  13  33
BRANCH   1  37
HETATM   37  C4  UNL     1      30.064  36.684  -7.982  1.00  0.00     0.062 C
BRANCH  37  38
HETATM   38  C2  UNL     1      28.942  35.715  -7.872  1.00  0.00    -0.017 C
HETATM   39  C1  UNL     1      29.595  34.312  -7.899  1.00  0.00     0.010 C
HETATM   40  C3  UNL     1      27.950  35.769  -8.985  1.00  0.00     0.010 C
ENDBRANCH  37  38
ENDBRANCH   1  37
TORSDOF 13
ENDMDL