MODEL 2
REMARK VINA RESULT: -9.301630790      1.059      1.545
REMARK  11 active torsions:
REMARK  status: ('A' for Active; 'I' for Inactive)
REMARK    1  A    between atoms: C5_5  and  N1_6
REMARK    2  A    between atoms: N1_6  and  C6_9
REMARK    3  A    between atoms: N2_12  and  C9_13
REMARK    4  A    between atoms: C9_13  and  C10_14
REMARK    5  A    between atoms: C10_14  and  C11_15
REMARK    6  A    between atoms: C15_21  and  C16_22
REMARK    7  A    between atoms: C16_22  and  C17_23
REMARK    8  A    between atoms: C17_23  and  C18_24
REMARK    9  A    between atoms: C18_24  and  C19_25
REMARK   10  A    between atoms: C19_25  and  C20_26
REMARK   11  A    between atoms: C20_26  and  N4_27
REMARK       I    between atoms: N4_27  and  C21_29
ROOT
HETATM    1  C11 UNL     1      33.788  40.255  -9.448  1.00  0.00    -0.055 A
HETATM    2  C12 UNL     1      33.426  41.584  -9.204  1.00  0.00     0.009 A
HETATM    3  C13 UNL     1      33.818  42.166  -8.023  1.00  0.00     0.031 A
HETATM    4  C14 UNL     1      34.551  41.488  -7.072  1.00  0.00     0.049 A
HETATM    5  N3  UNL     1      34.956  42.035  -5.916  1.00  0.00    -0.345 N
ATOM      6  H3  UNL     1      34.702  43.004  -5.723  1.00  0.00     0.167 HD
HETATM    7  C15 UNL     1      35.673  41.375  -5.006  1.00  0.00     0.084 A
HETATM    8  N7  UNL     1      36.022  40.099  -5.232  1.00  0.00    -0.312 N
ATOM      9  H7  UNL     1      36.570  39.596  -4.534  1.00  0.00     0.170 HD
HETATM   10  C22 UNL     1      35.658  39.474  -6.365  1.00  0.00     0.259 A
HETATM   11  O1  UNL     1      35.962  38.281  -6.618  1.00  0.00    -0.267 OA
HETATM   12  C23 UNL     1      34.920  40.171  -7.291  1.00  0.00     0.059 A
HETATM   13  C24 UNL     1      34.516  39.585  -8.499  1.00  0.00     0.026 A
ENDROOT
BRANCH   1  14
HETATM   14  C10 UNL     1      33.381  39.603 -10.725  1.00  0.00     0.068 C
BRANCH  14  15
HETATM   15  C9  UNL     1      31.934  39.195 -10.606  1.00  0.00     0.277 C
BRANCH  15  16
HETATM   16  N2  UNL     1      31.325  39.071 -11.882  1.00  0.00     0.088 N
HETATM   17  C8  UNL     1      29.919  39.414 -11.931  1.00  0.00     0.274 C
HETATM   18  C7  UNL     1      29.678  40.879 -11.769  1.00  0.00     0.063 C
HETATM   19  C6  UNL     1      30.711  41.689 -12.482  1.00  0.00     0.189 C
HETATM   20  C26 UNL     1      31.348  40.844 -13.563  1.00  0.00     0.063 C
HETATM   21  C25 UNL     1      32.050  39.636 -12.973  1.00  0.00     0.274 C
BRANCH  19  22
HETATM   22  N1  UNL     1      30.199  42.873 -13.131  1.00  0.00    -0.067 N
ATOM     23  H12 UNL     1      29.195  42.977 -12.977  1.00  0.00     0.278 HD
ATOM     24  H11 UNL     1      30.195  42.768 -14.146  1.00  0.00     0.278 HD
BRANCH  22  25
HETATM   25  C5  UNL     1      30.931  44.084 -12.722  1.00  0.00     0.186 C
HETATM   26  C4  UNL     1      31.854  43.692 -11.628  1.00  0.00     0.033 C
HETATM   27  C3  UNL     1      33.107  44.466 -11.483  1.00  0.00     0.006 C
HETATM   28  C2  UNL     1      33.396  45.445 -12.595  1.00  0.00    -0.019 C
HETATM   29  C1  UNL     1      32.665  46.738 -12.462  1.00  0.00     0.010 C
HETATM   30  C28 UNL     1      33.061  44.763 -13.894  1.00  0.00     0.006 C
HETATM   31  C27 UNL     1      31.572  44.608 -13.965  1.00  0.00     0.033 C
ENDBRANCH  22  25
ENDBRANCH  19  22
ENDBRANCH  15  16
ENDBRANCH  14  15
ENDBRANCH   1  14
BRANCH   7  32
HETATM   32  C16 UNL     1      36.124  42.070  -3.724  1.00  0.00     0.076 C
BRANCH  32  33
HETATM   33  C17 UNL     1      37.404  41.485  -3.257  1.00  0.00     0.007 C
BRANCH  33  34
HETATM   34  C18 UNL     1      37.445  40.826  -1.943  1.00  0.00     0.002 C
BRANCH  34  35
HETATM   35  C19 UNL     1      36.490  41.111  -0.875  1.00  0.00     0.020 C
BRANCH  35  36
HETATM   36  C20 UNL     1      36.750  42.167   0.127  1.00  0.00     0.122 C
BRANCH  36  37
HETATM   37  N4  UNL     1      37.669  43.181  -0.325  1.00  0.00    -0.365 N
HETATM   38  C21 UNL     1      37.293  44.379  -0.968  1.00  0.00     0.181 C
HETATM   39  N5  UNL     1      36.070  44.573  -1.298  1.00  0.00    -0.374 N
HETATM   40  N6  UNL     1      38.214  45.409  -1.275  1.00  0.00    -0.064 NA
ATOM     41  H52 UNL     1      35.407  43.831  -1.077  1.00  0.00     0.158 HD
ATOM     42  H51 UNL     1      35.798  45.439  -1.763  1.00  0.00     0.158 HD
ATOM     43  H4  UNL     1      38.663  43.021  -0.168  1.00  0.00     0.162 HD
ENDBRANCH  36  37
ENDBRANCH  35  36
ENDBRANCH  34  35
ENDBRANCH  33  34
ENDBRANCH  32  33
ENDBRANCH   7  32
TORSDOF 11
ENDMDL