MODEL 4
REMARK VINA RESULT: -7.572959251      1.194      1.768
REMARK  13 active torsions:
REMARK  status: ('A' for Active; 'I' for Inactive)
REMARK    1  A    between atoms: C2_2  and  C3_3
REMARK    2  A    between atoms: C3_3  and  C4_4
REMARK    3  A    between atoms: C4_4  and  C5_5
REMARK    4  A    between atoms: C5_5  and  N1_6
REMARK    5  A    between atoms: N1_6  and  C6_8
REMARK    6  A    between atoms: C6_8  and  C7_9
REMARK    7  A    between atoms: C7_9  and  C8_10
REMARK    8  A    between atoms: C8_10  and  N2_11
REMARK    9  A    between atoms: N2_11  and  C9_13
REMARK   10  A    between atoms: C9_13  and  C10_17
REMARK   11  A    between atoms: C11_21  and  C12_22
REMARK   12  A    between atoms: C12_22  and  C13_23
REMARK   13  A    between atoms: C23_33  and  O1_34
ROOT
HETATM    1  C10 UNL     1      32.487  41.193  -8.940  1.00  0.00     0.261 C
HETATM    2  N4  UNL     1      32.821  42.587  -9.165  1.00  0.00    -0.059 N
ATOM      3  H41 UNL     1      33.736  42.845  -8.795  1.00  0.00     0.278 HD
ATOM      4  H42 UNL     1      32.266  43.228  -8.599  1.00  0.00     0.278 HD
HETATM    5  C11 UNL     1      32.696  42.828 -10.581  1.00  0.00     0.195 C
HETATM    6  C16 UNL     1      32.536  41.500 -11.245  1.00  0.00     0.064 C
HETATM    7  C17 UNL     1      31.773  40.756 -10.155  1.00  0.00     0.066 C
HETATM    8  C18 UNL     1      31.675  39.346 -10.449  1.00  0.00    -0.042 A
HETATM    9  C19 UNL     1      31.161  38.784  -9.302  1.00  0.00     0.015 A
HETATM   10  C20 UNL     1      30.921  37.441  -9.186  1.00  0.00    -0.059 A
HETATM   11  C21 UNL     1      30.374  36.800  -7.952  1.00  0.00     0.048 C
HETATM   12  C22 UNL     1      31.205  36.642 -10.254  1.00  0.00     0.044 A
HETATM   13  C23 UNL     1      31.737  37.188 -11.458  1.00  0.00     0.073 A
HETATM   14  C24 UNL     1      31.959  38.542 -11.521  1.00  0.00    -0.018 A
HETATM   15  C25 UNL     1      32.496  38.879 -12.868  1.00  0.00     0.049 C
HETATM   16  C26 UNL     1      31.745  39.954 -13.564  1.00  0.00     0.025 C
HETATM   17  C27 UNL     1      32.500  41.279 -13.628  1.00  0.00     0.049 C
HETATM   18  C28 UNL     1      31.727  41.694 -12.485  1.00  0.00     0.095 A
HETATM   19  O2  UNL     1      30.468  41.706 -12.139  1.00  0.00    -0.368 OA
HETATM   20  C29 UNL     1      30.670  40.719 -13.001  1.00  0.00     0.162 A
ENDROOT
BRANCH   1  21
HETATM   21  C9  UNL     1      33.605  40.396  -8.470  1.00  0.00     0.102 C
HETATM   22  N3  UNL     1      34.561  40.065  -9.254  1.00  0.00    -0.387 N
ATOM     23  H32 UNL     1      35.347  39.505  -8.924  1.00  0.00     0.157 HD
ATOM     24  H31 UNL     1      34.523  40.364 -10.228  1.00  0.00     0.157 HD
BRANCH  21  25
HETATM   25  N2  UNL     1      33.658  39.975  -7.099  1.00  0.00    -0.378 N
ATOM     26  H2  UNL     1      32.893  39.435  -6.698  1.00  0.00     0.160 HD
BRANCH  25  27
HETATM   27  C8  UNL     1      34.823  40.328  -6.280  1.00  0.00     0.122 C
BRANCH  27  28
HETATM   28  C7  UNL     1      34.965  41.778  -6.015  1.00  0.00     0.039 C
BRANCH  28  29
HETATM   29  C6  UNL     1      35.959  42.132  -4.934  1.00  0.00     0.115 C
BRANCH  29  30
HETATM   30  N1  UNL     1      35.472  41.853  -3.623  1.00  0.00    -0.421 N
ATOM     31  H1  UNL     1      34.478  41.724  -3.434  1.00  0.00     0.153 HD
BRANCH  30  32
HETATM   32  C5  UNL     1      36.449  41.764  -2.596  1.00  0.00     0.113 C
BRANCH  32  33
HETATM   33  C4  UNL     1      37.790  41.264  -2.985  1.00  0.00     0.019 C
BRANCH  33  34
HETATM   34  C3  UNL     1      38.064  39.821  -2.807  1.00  0.00     0.001 C
BRANCH  34  35
HETATM   35  C2  UNL     1      37.504  39.153  -1.605  1.00  0.00    -0.004 C
HETATM   36  C1  UNL     1      38.186  37.772  -1.495  1.00  0.00     0.005 C
ENDBRANCH  34  35
ENDBRANCH  33  34
ENDBRANCH  32  33
ENDBRANCH  30  32
ENDBRANCH  29  30
ENDBRANCH  28  29
ENDBRANCH  27  28
ENDBRANCH  25  27
ENDBRANCH  21  25
ENDBRANCH   1  21
BRANCH   5  37
HETATM   37  C12 UNL     1      33.691  43.789 -11.103  1.00  0.00     0.037 C
BRANCH  37  38
HETATM   38  C13 UNL     1      33.258  44.981 -11.841  1.00  0.00    -0.021 C
HETATM   39  C14 UNL     1      31.775  45.211 -11.421  1.00  0.00     0.009 C
HETATM   40  C15 UNL     1      33.193  44.912 -13.340  1.00  0.00     0.009 C
ENDBRANCH  37  38
ENDBRANCH   5  37
BRANCH  13  41
HETATM   41  O1  UNL     1      31.995  36.331 -12.471  1.00  0.00    -0.360 OA
ATOM     42  H1  UNL     1      32.248  35.444 -12.243  1.00  0.00     0.217 HD
ENDBRANCH  13  41
TORSDOF 13
ENDMDL