MODEL 1
REMARK VINA RESULT: -8.627520709      0.000      0.000
REMARK  11 active torsions:
REMARK  status: ('A' for Active; 'I' for Inactive)
REMARK    1  A    between atoms: N1_2  and  C2_5
REMARK    2  A    between atoms: N2_11  and  C7_12
REMARK    3  A    between atoms: C7_12  and  C8_13
REMARK       I    between atoms: C8_13  and  N3_15
REMARK    4  A    between atoms: N3_15  and  C9_17
REMARK    5  A    between atoms: C9_17  and  C10_18
REMARK    6  A    between atoms: C13_25  and  C14_26
REMARK    7  A    between atoms: C14_26  and  C15_27
REMARK    8  A    between atoms: C18_32  and  N6_33
REMARK    9  A    between atoms: N6_33  and  C19_36
REMARK   10  A    between atoms: C19_36  and  C20_37
REMARK   11  A    between atoms: C20_37  and  C21_38
ROOT
HETATM    1  C2  UNL     1      32.794  39.476 -12.471  1.00  0.00     0.216 C
HETATM    2  C3  UNL     1      33.546  38.386 -11.749  1.00  0.00     0.036 C
HETATM    3  C4  UNL     1      33.833  38.741 -10.316  1.00  0.00     0.017 C
HETATM    4  C5  UNL     1      32.675  39.366  -9.604  1.00  0.00     0.084 C
HETATM    5  C6  UNL     1      33.189  40.087  -8.407  1.00  0.00     0.225 C
HETATM    6  O1  UNL     1      33.453  39.482  -7.328  1.00  0.00    -0.273 OA
HETATM    7  N2  UNL     1      33.384  41.466  -8.482  1.00  0.00    -0.338 N
HETATM    8  C13 UNL     1      33.459  42.049  -9.830  1.00  0.00     0.098 C
HETATM    9  C16 UNL     1      32.133  41.692 -10.462  1.00  0.00     0.033 C
HETATM   10  C17 UNL     1      31.782  40.224 -10.386  1.00  0.00     0.033 C
HETATM   11  C18 UNL     1      31.498  39.673 -11.763  1.00  0.00     0.221 C
ENDROOT
BRANCH   7  12
HETATM   12  C7  UNL     1      33.505  42.278  -7.311  1.00  0.00     0.228 C
BRANCH  12  13
HETATM   13  C8  UNL     1      34.835  42.083  -6.632  1.00  0.00     0.235 C
HETATM   14  O2  UNL     1      35.803  41.793  -7.379  1.00  0.00    -0.272 OA
HETATM   15  N3  UNL     1      34.937  42.233  -5.231  1.00  0.00    -0.353 N
ATOM     16  H3  UNL     1      34.106  42.474  -4.691  1.00  0.00     0.162 HD
BRANCH  15  17
HETATM   17  C9  UNL     1      36.191  42.052  -4.555  1.00  0.00     0.199 C
BRANCH  17  18
HETATM   18  C10 UNL     1      35.999  42.266  -3.106  1.00  0.00     0.099 A
HETATM   19  N4  UNL     1      36.609  43.155  -2.307  1.00  0.00    -0.353 N
HETATM   20  C11 UNL     1      36.149  43.042  -1.053  1.00  0.00     0.106 A
ATOM     21  H4  UNL     1      37.320  43.821  -2.610  1.00  0.00     0.166 HD
HETATM   22  C12 UNL     1      35.204  42.037  -1.055  1.00  0.00     0.106 A
HETATM   23  N5  UNL     1      35.144  41.589  -2.331  1.00  0.00    -0.353 N
ATOM     24  H5  UNL     1      34.533  40.840  -2.657  1.00  0.00     0.166 HD
ENDBRANCH  17  18
ENDBRANCH  15  17
ENDBRANCH  12  13
ENDBRANCH   7  12
BRANCH   8  25
HETATM   25  C14 UNL     1      33.513  43.550  -9.704  1.00  0.00     0.138 C
BRANCH  25  26
HETATM   26  C15 UNL     1      33.032  44.183 -10.940  1.00  0.00     0.174 C
HETATM   27  O3  UNL     1      33.484  44.003 -12.080  1.00  0.00    -0.648 OA
HETATM   28  O4  UNL     1      31.967  45.073 -10.819  1.00  0.00    -0.648 OA
ENDBRANCH  25  26
ENDBRANCH   8  25
BRANCH  11  29
HETATM   29  N6  UNL     1      30.825  38.361 -11.624  1.00  0.00    -0.069 N
ATOM     30  H62 UNL     1      31.063  37.722 -12.383  1.00  0.00     0.277 HD
ATOM     31  H61 UNL     1      31.203  37.814 -10.851  1.00  0.00     0.277 HD
BRANCH  29  32
HETATM   32  C19 UNL     1      29.404  38.562 -11.506  1.00  0.00     0.233 C
BRANCH  32  33
HETATM   33  C20 UNL     1      28.713  38.164 -10.278  1.00  0.00     0.032 C
BRANCH  33  34
HETATM   34  C21 UNL     1      28.935  36.834  -9.677  1.00  0.00    -0.013 C
HETATM   35  C22 UNL     1      27.535  36.381  -9.122  1.00  0.00     0.005 C
HETATM   36  C23 UNL     1      27.648  35.012  -8.540  1.00  0.00     0.000 C
HETATM   37  C24 UNL     1      28.513  35.099  -7.292  1.00  0.00     0.000 C
HETATM   38  C25 UNL     1      29.898  35.518  -7.796  1.00  0.00     0.000 C
HETATM   39  C26 UNL     1      29.735  36.915  -8.377  1.00  0.00     0.005 C
ENDBRANCH  33  34
ENDBRANCH  32  33
ENDBRANCH  29  32
ENDBRANCH  11  29
BRANCH   1  40
HETATM   40  N1  UNL     1      32.552  39.035 -13.821  1.00  0.00    -0.073 N
HETATM   41  C1  UNL     1      33.718  38.307 -14.278  1.00  0.00     0.267 C
ATOM     42  H12 UNL     1      32.298  39.801 -14.445  1.00  0.00     0.277 HD
ATOM     43  H11 UNL     1      31.691  38.493 -13.909  1.00  0.00     0.277 HD
ENDBRANCH   1  40
TORSDOF 11
ENDMDL