MODEL 3
REMARK VINA RESULT: -7.670529463      5.437      9.269
REMARK  12 active torsions:
REMARK  status: ('A' for Active; 'I' for Inactive)
REMARK    1  A    between atoms: C2_2  and  C3_3
REMARK    2  A    between atoms: C3_3  and  C4_4
REMARK    3  A    between atoms: C4_4  and  N1_5
REMARK    4  A    between atoms: C4_4  and  C6_11
REMARK    5  A    between atoms: N1_5  and  S1_7
REMARK    6  A    between atoms: C6_11  and  O3_12
REMARK    7  A    between atoms: C6_11  and  C7_14
REMARK    8  A    between atoms: C7_14  and  N2_15
REMARK    9  A    between atoms: C13_21  and  C14_22
REMARK   10  A    between atoms: C14_22  and  C15_23
REMARK   11  A    between atoms: C15_23  and  C16_24
REMARK   12  A    between atoms: C16_24  and  N3_25
REMARK       I    between atoms: N3_25  and  C17_27
ROOT
HETATM    1  C6  UNL     1      32.375  39.598 -10.413  1.00  0.00     0.170 C
ENDROOT
BRANCH   1   2
HETATM    2  C4  UNL     1      32.350  38.101 -10.686  1.00  0.00     0.135 C
BRANCH   2   3
HETATM    3  C3  UNL     1      31.980  37.310  -9.433  1.00  0.00     0.000 C
HETATM    4  C19 UNL     1      30.718  37.887  -8.763  1.00  0.00     0.015 C
HETATM    5  C20 UNL     1      29.483  37.701  -9.539  1.00  0.00     0.001 C
HETATM    6  C21 UNL     1      28.708  36.457  -9.208  1.00  0.00     0.000 C
HETATM    7  C22 UNL     1      29.047  35.751  -7.959  1.00  0.00     0.004 C
HETATM    8  C23 UNL     1      30.313  34.972  -7.913  1.00  0.00     0.027 C
HETATM    9  C24 UNL     1      31.133  34.856  -9.113  1.00  0.00    -0.030 C
HETATM   10  C25 UNL     1      31.802  35.899  -9.832  1.00  0.00    -0.019 C
BRANCH   3  11
HETATM   11  C2  UNL     1      33.001  37.412  -8.325  1.00  0.00     0.011 C
HETATM   12  C1  UNL     1      32.558  37.904  -7.017  1.00  0.00     0.006 C
ENDBRANCH   3  11
ENDBRANCH   2   3
BRANCH   2  13
HETATM   13  N1  UNL     1      33.449  37.630 -11.416  1.00  0.00    -0.311 N
ATOM     14  H1  UNL     1      34.301  37.529 -10.863  1.00  0.00     0.172 HD
BRANCH  13  15
HETATM   15  S1  UNL     1      33.620  37.219 -12.956  1.00  0.00     0.223 S
HETATM   16  C5  UNL     1      32.080  37.086 -13.841  1.00  0.00     0.185 C
HETATM   17  O1  UNL     1      34.268  35.856 -13.220  1.00  0.00    -0.206 OA
HETATM   18  O2  UNL     1      34.403  38.138 -13.902  1.00  0.00    -0.206 OA
ENDBRANCH  13  15
ENDBRANCH   2  13
ENDBRANCH   1   2
BRANCH   1  19
HETATM   19  O3  UNL     1      33.597  40.111 -10.188  1.00  0.00    -0.392 OA
ATOM     20  H3  UNL     1      33.660  41.053 -10.295  1.00  0.00     0.210 HD
ENDBRANCH   1  19
BRANCH   1  21
HETATM   21  C7  UNL     1      31.630  40.313 -11.567  1.00  0.00     0.306 C
BRANCH  21  22
HETATM   22  N2  UNL     1      32.426  41.228 -12.307  1.00  0.00     0.096 N
HETATM   23  C8  UNL     1      32.413  41.049 -13.700  1.00  0.00     0.273 C
HETATM   24  C9  UNL     1      31.116  41.750 -14.159  1.00  0.00     0.037 C
HETATM   25  C10 UNL     1      31.020  42.898 -13.206  1.00  0.00     0.021 C
HETATM   26  C11 UNL     1      31.561  44.126 -13.912  1.00  0.00     0.007 C
HETATM   27  C18 UNL     1      31.926  42.583 -12.075  1.00  0.00     0.231 C
HETATM   28  C12 UNL     1      32.967  44.289 -13.446  1.00  0.00     0.007 C
HETATM   29  C13 UNL     1      33.028  43.594 -12.140  1.00  0.00     0.019 C
BRANCH  29  30
HETATM   30  C14 UNL     1      32.842  44.580 -11.008  1.00  0.00     0.008 C
BRANCH  30  31
HETATM   31  C15 UNL     1      32.568  43.888  -9.692  1.00  0.00     0.020 C
BRANCH  31  32
HETATM   32  C16 UNL     1      33.787  43.215  -9.136  1.00  0.00     0.122 C
BRANCH  32  33
HETATM   33  N3  UNL     1      33.601  43.013  -7.709  1.00  0.00    -0.365 N
HETATM   34  C17 UNL     1      34.562  42.226  -6.971  1.00  0.00     0.181 C
HETATM   35  N4  UNL     1      34.938  41.124  -7.553  1.00  0.00    -0.374 N
HETATM   36  N5  UNL     1      35.057  42.612  -5.721  1.00  0.00    -0.064 NA
ATOM     37  H42 UNL     1      34.577  40.842  -8.465  1.00  0.00     0.158 HD
ATOM     38  H41 UNL     1      35.615  40.568  -7.032  1.00  0.00     0.158 HD
ATOM     39  H3  UNL     1      32.798  43.424  -7.232  1.00  0.00     0.162 HD
ENDBRANCH  32  33
ENDBRANCH  31  32
ENDBRANCH  30  31
ENDBRANCH  29  30
ENDBRANCH  21  22
ENDBRANCH   1  21
TORSDOF 12
ENDMDL