MODEL 2
REMARK VINA RESULT: -6.442524931      1.331      1.516
REMARK  13 active torsions:
REMARK  status: ('A' for Active; 'I' for Inactive)
REMARK    1  A    between atoms: C2_2  and  N1_3
REMARK    2  A    between atoms: N1_3  and  C3_6
REMARK    3  A    between atoms: C3_6  and  C4_7
REMARK    4  A    between atoms: C4_7  and  N2_8
REMARK    5  A    between atoms: N2_8  and  C5_10
REMARK    6  A    between atoms: C5_10  and  N3_12
REMARK    7  A    between atoms: N3_12  and  C6_14
REMARK    8  A    between atoms: C6_14  and  C7_15
REMARK    9  A    between atoms: C7_15  and  S2_16
REMARK   10  A    between atoms: S2_16  and  C8_17
REMARK   11  A    between atoms: C8_17  and  C9_18
REMARK   12  A    between atoms: C9_18  and  C10_19
REMARK   13  A    between atoms: C10_19  and  N4_20
REMARK       I    between atoms: N4_20  and  C11_22
REMARK       I    between atoms: C11_22  and  N5_24
ROOT
HETATM    1  C7  UNL     1      31.293  37.749  -8.502  1.00  0.00     0.093 C
ENDROOT
BRANCH   1   2
HETATM    2  C6  UNL     1      31.885  38.020  -9.867  1.00  0.00     0.132 C
BRANCH   2   3
HETATM    3  N3  UNL     1      31.253  39.176 -10.434  1.00  0.00    -0.367 N
ATOM      4  H3  UNL     1      30.279  39.068 -10.717  1.00  0.00     0.161 HD
BRANCH   3   5
HETATM    5  C5  UNL     1      31.829  40.442 -10.642  1.00  0.00     0.167 C
HETATM    6  S1  UNL     1      32.510  40.790 -12.104  1.00  0.00    -0.041 SA
BRANCH   5   7
HETATM    7  N2  UNL     1      31.872  41.455  -9.652  1.00  0.00    -0.366 N
ATOM      8  H2  UNL     1      31.007  41.675  -9.157  1.00  0.00     0.161 HD
BRANCH   7   9
HETATM    9  C4  UNL     1      33.063  42.196  -9.298  1.00  0.00     0.149 C
BRANCH   9  10
HETATM   10  C3  UNL     1      32.753  43.622  -8.987  1.00  0.00     0.251 C
BRANCH  10  11
HETATM   11  N1  UNL     1      32.176  44.307 -10.121  1.00  0.00    -0.074 N
ATOM     12  H12 UNL     1      31.783  45.205  -9.840  1.00  0.00     0.277 HD
ATOM     13  H11 UNL     1      31.323  43.840 -10.430  1.00  0.00     0.277 HD
BRANCH  11  14
HETATM   14  C2  UNL     1      33.098  44.471 -11.222  1.00  0.00     0.228 C
HETATM   15  C1  UNL     1      32.718  45.653 -12.095  1.00  0.00     0.034 C
ENDBRANCH  11  14
ENDBRANCH  10  11
ENDBRANCH   9  10
ENDBRANCH   7   9
ENDBRANCH   5   7
ENDBRANCH   3   5
ENDBRANCH   2   3
ENDBRANCH   1   2
BRANCH   1  16
HETATM   16  S2  UNL     1      32.584  37.513  -7.259  1.00  0.00    -0.164 SA
BRANCH  16  17
HETATM   17  C8  UNL     1      33.921  38.751  -7.658  1.00  0.00     0.102 C
BRANCH  17  18
HETATM   18  C9  UNL     1      34.013  39.620  -6.472  1.00  0.00     0.000 C
BRANCH  18  19
HETATM   19  C10 UNL     1      35.082  40.589  -6.264  1.00  0.00     0.089 C
BRANCH  19  20
HETATM   20  N4  UNL     1      35.366  40.993  -4.944  1.00  0.00    -0.319 N
HETATM   21  C11 UNL     1      36.222  41.989  -4.522  1.00  0.00     0.322 C
HETATM   22  O1  UNL     1      36.906  42.700  -5.275  1.00  0.00    -0.247 OA
HETATM   23  N5  UNL     1      36.370  42.265  -3.118  1.00  0.00    -0.334 N
HETATM   24  C12 UNL     1      37.233  43.324  -2.621  1.00  0.00     0.127 C
HETATM   25  C16 UNL     1      35.671  41.472  -2.140  1.00  0.00     0.127 C
HETATM   26  C13 UNL     1      36.481  44.058  -1.533  1.00  0.00     0.020 C
HETATM   27  C14 UNL     1      36.230  43.108  -0.380  1.00  0.00     0.003 C
HETATM   28  C15 UNL     1      36.404  41.669  -0.801  1.00  0.00     0.020 C
ATOM     29  H4  UNL     1      34.877  40.484  -4.207  1.00  0.00     0.169 HD
ENDBRANCH  19  20
ENDBRANCH  18  19
ENDBRANCH  17  18
ENDBRANCH  16  17
ENDBRANCH   1  16
TORSDOF 13
ENDMDL