MODEL 3
REMARK VINA RESULT: -7.659477554      1.035      1.217
REMARK  11 active torsions:
REMARK  status: ('A' for Active; 'I' for Inactive)
REMARK    1  A    between atoms: O1_2  and  C2_3
REMARK    2  A    between atoms: C2_3  and  C3_4
REMARK    3  A    between atoms: C3_4  and  N1_5
REMARK    4  A    between atoms: N1_5  and  C4_6
REMARK       I    between atoms: N1_5  and  C11_14
REMARK    5  A    between atoms: C4_6  and  C5_7
REMARK    6  A    between atoms: C5_7  and  C6_8
REMARK       I    between atoms: C11_14  and  N2_16
REMARK    7  A    between atoms: N2_16  and  C12_18
REMARK    8  A    between atoms: C12_18  and  C13_19
REMARK    9  A    between atoms: C13_19  and  N3_20
REMARK   10  A    between atoms: N3_20  and  C14_22
REMARK   11  A    between atoms: C14_22  and  C15_23
ROOT
HETATM    1  N1  UNL     1      34.127  41.133  -8.316  1.00  0.00    -0.332 N
HETATM    2  C11 UNL     1      34.890  40.707  -7.153  1.00  0.00     0.318 C
HETATM    3  O2  UNL     1      35.212  39.469  -7.044  1.00  0.00    -0.247 OA
HETATM    4  N2  UNL     1      35.306  41.566  -6.128  1.00  0.00    -0.341 N
ATOM      5  H2  UNL     1      35.060  42.554  -6.182  1.00  0.00     0.164 HD
ENDROOT
BRANCH   1   6
HETATM    6  C3  UNL     1      33.794  40.096  -9.240  1.00  0.00     0.153 C
BRANCH   6   7
HETATM    7  C2  UNL     1      32.527  39.365  -9.063  1.00  0.00     0.187 C
BRANCH   7   8
HETATM    8  O1  UNL     1      32.688  38.004  -8.802  1.00  0.00    -0.394 OA
HETATM    9  C1  UNL     1      32.085  37.758  -7.566  1.00  0.00     0.201 C
ENDBRANCH   7   8
ENDBRANCH   6   7
ENDBRANCH   1   6
BRANCH   1  10
HETATM   10  C4  UNL     1      33.879  42.522  -8.439  1.00  0.00     0.128 C
BRANCH  10  11
HETATM   11  C5  UNL     1      32.770  43.031  -9.240  1.00  0.00     0.025 C
BRANCH  11  12
HETATM   12  C6  UNL     1      32.973  43.444 -10.642  1.00  0.00    -0.004 C
HETATM   13  C7  UNL     1      32.184  42.439 -11.506  1.00  0.00     0.006 C
HETATM   14  C8  UNL     1      32.786  42.389 -12.883  1.00  0.00     0.010 C
HETATM   15  C9  UNL     1      32.415  43.618 -13.694  1.00  0.00     0.074 C
HETATM   16  S1  UNL     1      32.682  45.127 -12.720  1.00  0.00    -0.169 SA
HETATM   17  C10 UNL     1      32.419  44.809 -10.956  1.00  0.00     0.078 C
ENDBRANCH  11  12
ENDBRANCH  10  11
ENDBRANCH   1  10
BRANCH   4  18
HETATM   18  C12 UNL     1      36.071  41.099  -5.001  1.00  0.00     0.144 C
BRANCH  18  19
HETATM   19  C13 UNL     1      36.103  42.141  -3.858  1.00  0.00     0.138 C
BRANCH  19  20
HETATM   20  N3  UNL     1      35.089  41.846  -2.916  1.00  0.00    -0.399 N
ATOM     21  H3  UNL     1      34.145  41.655  -3.253  1.00  0.00     0.158 HD
BRANCH  20  22
HETATM   22  C14 UNL     1      35.332  41.806  -1.548  1.00  0.00     0.088 C
BRANCH  22  23
HETATM   23  C15 UNL     1      36.352  42.689  -0.968  1.00  0.00     0.223 C
HETATM   24  C16 UNL     1      36.659  42.496   0.487  1.00  0.00     0.038 C
HETATM   25  C17 UNL     1      38.048  43.149   0.723  1.00  0.00     0.004 C
HETATM   26  C18 UNL     1      38.010  44.575   0.247  1.00  0.00     0.027 C
HETATM   27  C19 UNL     1      37.226  44.836  -0.982  1.00  0.00     0.233 C
HETATM   28  N4  UNL     1      35.980  44.100  -1.112  1.00  0.00    -0.066 N
ATOM     29  H42 UNL     1      35.467  44.306  -1.970  1.00  0.00     0.278 HD
ATOM     30  H41 UNL     1      35.252  44.402  -0.465  1.00  0.00     0.278 HD
ENDBRANCH  22  23
ENDBRANCH  20  22
ENDBRANCH  19  20
ENDBRANCH  18  19
ENDBRANCH   4  18
TORSDOF 11
ENDMDL