MODEL 3
REMARK VINA RESULT: -6.819721798      4.022     10.005
REMARK  13 active torsions:
REMARK  status: ('A' for Active; 'I' for Inactive)
REMARK    1  A    between atoms: N1_2  and  C2_3
REMARK    2  A    between atoms: N1_2  and  C16_23
REMARK    3  A    between atoms: C2_3  and  C3_4
REMARK    4  A    between atoms: C3_4  and  C4_5
REMARK    5  A    between atoms: C4_5  and  C5_6
REMARK    6  A    between atoms: C5_6  and  C6_7
REMARK    7  A    between atoms: C6_7  and  C7_8
REMARK    8  A    between atoms: C7_8  and  C8_9
REMARK    9  A    between atoms: C8_9  and  C9_10
REMARK   10  A    between atoms: C13_14  and  O1_15
REMARK   11  A    between atoms: C15_18  and  N2_19
REMARK   12  A    between atoms: C16_23  and  C17_24
REMARK       I    between atoms: C17_24  and  N3_26
REMARK   13  A    between atoms: N3_26  and  C18_28
ROOT
HETATM    1  C5  UNL     1      38.450  39.421  -3.259  1.00  0.00     0.000 C
ENDROOT
BRANCH   1   2
HETATM    2  C4  UNL     1      37.958  38.707  -4.511  1.00  0.00     0.002 C
BRANCH   2   3
HETATM    3  C3  UNL     1      38.931  37.594  -4.872  1.00  0.00     0.020 C
BRANCH   3   4
HETATM    4  C2  UNL     1      38.038  36.459  -5.403  1.00  0.00     0.122 C
BRANCH   4   5
HETATM    5  N1  UNL     1      38.342  36.234  -6.753  1.00  0.00    -0.390 N
HETATM    6  C1  UNL     1      39.615  35.707  -7.006  1.00  0.00     0.149 C
BRANCH   5   7
HETATM    7  C16 UNL     1      37.271  35.971  -7.616  1.00  0.00     0.160 C
BRANCH   7   8
HETATM    8  C17 UNL     1      36.054  36.776  -7.473  1.00  0.00     0.256 C
HETATM    9  O2  UNL     1      35.001  36.199  -7.101  1.00  0.00    -0.267 OA
HETATM   10  N3  UNL     1      36.021  38.155  -7.734  1.00  0.00    -0.352 N
ATOM     11  H3  UNL     1      36.868  38.635  -8.039  1.00  0.00     0.163 HD
BRANCH  10  12
HETATM   12  C18 UNL     1      34.773  38.909  -7.572  1.00  0.00     0.084 C
HETATM   13  C19 UNL     1      34.983  39.878  -6.443  1.00  0.00     0.025 C
HETATM   14  C20 UNL     1      34.978  41.251  -7.123  1.00  0.00     0.002 C
HETATM   15  C21 UNL     1      33.920  41.033  -8.193  1.00  0.00     0.002 C
HETATM   16  C22 UNL     1      34.440  39.724  -8.804  1.00  0.00     0.025 C
ENDBRANCH  10  12
ENDBRANCH   7   8
ENDBRANCH   5   7
ENDBRANCH   4   5
ENDBRANCH   3   4
ENDBRANCH   2   3
ENDBRANCH   1   2
BRANCH   1  17
HETATM   17  C6  UNL     1      38.193  38.503  -2.113  1.00  0.00     0.000 C
BRANCH  17  18
HETATM   18  C7  UNL     1      37.176  39.073  -1.107  1.00  0.00     0.000 C
BRANCH  18  19
HETATM   19  C8  UNL     1      37.277  40.564  -1.059  1.00  0.00     0.007 C
BRANCH  19  20
HETATM   20  C9  UNL     1      36.153  41.328  -0.502  1.00  0.00     0.019 C
HETATM   21  C10 UNL     1      36.734  42.099   0.718  1.00  0.00     0.033 C
HETATM   22  C11 UNL     1      37.902  42.906   0.361  1.00  0.00    -0.028 C
HETATM   23  C12 UNL     1      38.113  43.704  -0.686  1.00  0.00     0.001 C
HETATM   24  C13 UNL     1      37.128  43.958  -1.791  1.00  0.00     0.142 C
HETATM   25  C14 UNL     1      35.747  43.687  -1.315  1.00  0.00     0.069 C
HETATM   26  C15 UNL     1      35.341  42.226  -1.333  1.00  0.00     0.190 C
BRANCH  24  27
HETATM   27  O1  UNL     1      37.470  43.356  -2.975  1.00  0.00    -0.392 OA
ATOM     28  H1  UNL     1      37.115  43.796  -3.739  1.00  0.00     0.210 HD
ENDBRANCH  24  27
BRANCH  26  29
HETATM   29  N2  UNL     1      35.045  41.872  -2.672  1.00  0.00    -0.075 N
ATOM     30  H23 UNL     1      35.841  41.359  -3.054  1.00  0.00     0.274 HD
ATOM     31  H22 UNL     1      34.324  41.151  -2.664  1.00  0.00     0.274 HD
ATOM     32  H21 UNL     1      34.775  42.593  -3.339  1.00  0.00     0.274 HD
ENDBRANCH  26  29
ENDBRANCH  19  20
ENDBRANCH  18  19
ENDBRANCH  17  18
ENDBRANCH   1  17
TORSDOF 13
ENDMDL