MODEL 4
REMARK VINA RESULT: -6.976839350      3.242      5.259
REMARK  14 active torsions:
REMARK  status: ('A' for Active; 'I' for Inactive)
REMARK    1  A    between atoms: C2_2  and  C3_3
REMARK    2  A    between atoms: C2_2  and  C4_5
REMARK    3  A    between atoms: C4_5  and  C5_6
REMARK    4  A    between atoms: C6_7  and  C7_8
REMARK    5  A    between atoms: C7_8  and  O2_9
REMARK    6  A    between atoms: C7_8  and  C8_11
REMARK    7  A    between atoms: C9_12  and  C10_13
REMARK    8  A    between atoms: C11_14  and  C12_15
REMARK    9  A    between atoms: C12_15  and  C13_16
REMARK   10  A    between atoms: C18_21  and  C19_22
REMARK   11  A    between atoms: C20_23  and  O3_24
REMARK   12  A    between atoms: C20_23  and  C22_26
REMARK   13  A    between atoms: C22_26  and  N1_27
REMARK   14  A    between atoms: C22_26  and  O4_31
ROOT
HETATM    1  C8  UNL     1      34.084  39.556  -8.395  1.00  0.00     0.034 C
HETATM    2  C9  UNL     1      33.142  40.209  -9.402  1.00  0.00     0.019 C
HETATM    3  C16 UNL     1      33.873  39.533 -10.511  1.00  0.00    -0.002 C
HETATM    4  C17 UNL     1      32.965  38.784 -11.492  1.00  0.00     0.011 C
HETATM    5  C18 UNL     1      34.384  38.533  -9.470  1.00  0.00     0.022 C
ENDROOT
BRANCH   5   6
HETATM    6  C19 UNL     1      35.787  38.146  -9.619  1.00  0.00     0.015 C
HETATM    7  C20 UNL     1      36.122  36.879  -9.710  1.00  0.00     0.098 C
BRANCH   7   8
HETATM    8  O3  UNL     1      35.163  35.865  -9.669  1.00  0.00    -0.356 OA
HETATM    9  C21 UNL     1      35.151  34.775 -10.550  1.00  0.00     0.209 C
ENDBRANCH   7   8
BRANCH   7  10
HETATM   10  C22 UNL     1      37.536  36.427  -9.863  1.00  0.00     0.373 C
BRANCH  10  11
HETATM   11  N1  UNL     1      38.181  36.254  -8.578  1.00  0.00    -0.047 N
ATOM     12  H13 UNL     1      38.968  36.893  -8.466  1.00  0.00     0.277 HD
ATOM     13  H12 UNL     1      37.593  36.595  -7.817  1.00  0.00     0.277 HD
ATOM     14  H11 UNL     1      38.462  35.286  -8.428  1.00  0.00     0.277 HD
ENDBRANCH  10  11
BRANCH  10  15
HETATM   15  O4  UNL     1      38.206  37.389 -10.631  1.00  0.00    -0.365 OA
ATOM     16  H4  UNL     1      39.084  37.066 -10.792  1.00  0.00     0.212 HD
ENDBRANCH  10  15
ENDBRANCH   7  10
ENDBRANCH   5   6
BRANCH   1  17
HETATM   17  C7  UNL     1      33.255  39.035  -7.232  1.00  0.00     0.146 C
BRANCH  17  18
HETATM   18  C6  UNL     1      33.178  37.570  -7.207  1.00  0.00     0.001 C
HETATM   19  C5  UNL     1      32.119  36.959  -7.669  1.00  0.00    -0.024 C
BRANCH  19  20
HETATM   20  C4  UNL     1      30.978  37.715  -8.226  1.00  0.00     0.067 C
BRANCH  20  21
HETATM   21  C2  UNL     1      29.833  36.820  -8.560  1.00  0.00    -0.026 C
HETATM   22  C1  UNL     1      28.902  37.256  -9.369  1.00  0.00     0.022 C
BRANCH  21  23
HETATM   23  C3  UNL     1      29.815  35.491  -7.959  1.00  0.00     0.265 C
HETATM   24  O1  UNL     1      28.970  35.287  -7.041  1.00  0.00    -0.302 OA
ENDBRANCH  21  23
ENDBRANCH  20  21
ENDBRANCH  19  20
ENDBRANCH  17  18
BRANCH  17  25
HETATM   25  O2  UNL     1      33.928  39.454  -6.073  1.00  0.00    -0.391 OA
ATOM     26  H2  UNL     1      33.658  40.345  -5.883  1.00  0.00     0.210 HD
ENDBRANCH  17  25
ENDBRANCH   1  17
BRANCH   2  27
HETATM   27  C10 UNL     1      33.101  41.673  -9.385  1.00  0.00    -0.025 C
HETATM   28  C11 UNL     1      33.148  42.436 -10.456  1.00  0.00    -0.030 C
BRANCH  28  29
HETATM   29  C12 UNL     1      33.102  43.931 -10.373  1.00  0.00     0.030 C
BRANCH  29  30
HETATM   30  C13 UNL     1      33.185  44.530 -11.768  1.00  0.00    -0.019 C
HETATM   31  C14 UNL     1      32.779  43.463 -12.743  1.00  0.00     0.010 C
HETATM   32  C15 UNL     1      32.253  45.698 -11.874  1.00  0.00     0.010 C
ENDBRANCH  29  30
ENDBRANCH  28  29
ENDBRANCH   2  27
TORSDOF 14
ENDMDL