MODEL 4
REMARK VINA RESULT: -7.549273757      0.895      2.111
REMARK  12 active torsions:
REMARK  status: ('A' for Active; 'I' for Inactive)
REMARK    1  A    between atoms: C2_2  and  C3_3
REMARK    2  A    between atoms: C3_3  and  N1_4
REMARK    3  A    between atoms: N1_4  and  C4_5
REMARK    4  A    between atoms: C4_5  and  C5_6
REMARK    5  A    between atoms: C5_6  and  N2_7
REMARK    6  A    between atoms: N2_7  and  C6_9
REMARK    7  A    between atoms: C6_9  and  O1_10
REMARK    8  A    between atoms: C6_9  and  C7_12
REMARK    9  A    between atoms: C9_14  and  C10_15
REMARK   10  A    between atoms: C14_19  and  C15_20
REMARK   11  A    between atoms: N3_21  and  O2_23
REMARK   12  A    between atoms: C16_25  and  C17_26
ROOT
HETATM    1  C7  UNL     1      34.177  40.904  -7.303  1.00  0.00     0.004 A
HETATM    2  C8  UNL     1      34.154  39.543  -7.038  1.00  0.00     0.020 A
HETATM    3  C9  UNL     1      33.417  38.706  -7.845  1.00  0.00    -0.053 A
HETATM    4  C13 UNL     1      32.716  39.213  -8.899  1.00  0.00     0.021 A
HETATM    5  C14 UNL     1      32.720  40.581  -9.192  1.00  0.00    -0.004 A
HETATM    6  C16 UNL     1      33.474  41.401  -8.356  1.00  0.00     0.024 A
ENDROOT
BRANCH   1   7
HETATM    7  C6  UNL     1      35.023  41.798  -6.455  1.00  0.00     0.252 C
BRANCH   7   8
HETATM    8  N2  UNL     1      35.103  41.346  -5.129  1.00  0.00    -0.371 N
ATOM      9  H2  UNL     1      34.578  40.506  -4.883  1.00  0.00     0.161 HD
BRANCH   8  10
HETATM   10  C5  UNL     1      35.843  41.959  -4.128  1.00  0.00     0.086 C
BRANCH  10  11
HETATM   11  C4  UNL     1      36.879  41.232  -3.367  1.00  0.00     0.281 C
BRANCH  11  12
HETATM   12  N1  UNL     1      36.889  41.492  -1.949  1.00  0.00    -0.060 N
HETATM   13  C18 UNL     1      37.872  42.462  -1.524  1.00  0.00     0.238 C
HETATM   14  C19 UNL     1      37.423  42.740  -0.083  1.00  0.00     0.030 C
HETATM   15  C20 UNL     1      35.961  42.417  -0.049  1.00  0.00     0.030 C
HETATM   16  C21 UNL     1      35.653  42.057  -1.474  1.00  0.00     0.238 C
BRANCH  12  17
HETATM   17  C3  UNL     1      37.135  40.261  -1.240  1.00  0.00     0.264 C
BRANCH  17  18
HETATM   18  C2  UNL     1      37.723  39.179  -2.042  1.00  0.00    -0.009 C
HETATM   19  C1  UNL     1      37.851  37.950  -1.568  1.00  0.00     0.008 C
ENDBRANCH  17  18
ENDBRANCH  12  17
ENDBRANCH  11  12
ENDBRANCH  10  11
ENDBRANCH   8  10
ENDBRANCH   7   8
BRANCH   7  20
HETATM   20  O1  UNL     1      36.121  42.183  -7.124  1.00  0.00    -0.373 OA
ATOM     21  H1  UNL     1      36.261  41.925  -8.027  1.00  0.00     0.212 HD
ENDBRANCH   7  20
ENDBRANCH   1   7
BRANCH   6  22
HETATM   22  C17 UNL     1      33.427  42.817  -8.669  1.00  0.00     0.271 C
HETATM   23  O3  UNL     1      34.426  43.352  -9.235  1.00  0.00    -0.301 OA
ENDBRANCH   6  22
BRANCH   3  24
HETATM   24  C10 UNL     1      33.414  37.237  -7.554  1.00  0.00     0.010 C
HETATM   25  C11 UNL     1      32.011  36.691  -7.700  1.00  0.00     0.015 C
HETATM   26  C12 UNL     1      34.338  36.475  -8.439  1.00  0.00     0.015 C
ENDBRANCH   3  24
BRANCH   5  27
HETATM   27  C15 UNL     1      31.965  41.043 -10.341  1.00  0.00     0.126 C
HETATM   28  N3  UNL     1      30.711  40.925 -10.412  1.00  0.00    -0.280 N
ATOM     29  H3  UNL     1      30.257  40.485  -9.612  1.00  0.00     0.193 HD
BRANCH  28  30
HETATM   30  O2  UNL     1      29.899  41.312 -11.418  1.00  0.00    -0.290 OA
ATOM     31  H2  UNL     1      29.342  42.081 -11.455  1.00  0.00     0.244 HD
ENDBRANCH  28  30
ENDBRANCH   5  27
TORSDOF 12
ENDMDL