MODEL 2
REMARK VINA RESULT: -7.930426168      1.255      1.357
REMARK  13 active torsions:
REMARK  status: ('A' for Active; 'I' for Inactive)
REMARK    1  A    between atoms: C1_2  and  C2_3
REMARK       I    between atoms: C1_2  and  N1_23
REMARK    2  A    between atoms: C2_3  and  C3_4
REMARK    3  A    between atoms: C3_4  and  C4_5
REMARK    4  A    between atoms: C4_5  and  C5_6
REMARK    5  A    between atoms: C6_7  and  C7_8
REMARK    6  A    between atoms: C7_8  and  C8_9
REMARK    7  A    between atoms: C13_14  and  C14_15
REMARK    8  A    between atoms: C14_15  and  C15_16
REMARK    9  A    between atoms: C15_16  and  C16_17
REMARK   10  A    between atoms: C16_17  and  O2_18
REMARK   11  A    between atoms: C17_20  and  O3_21
REMARK   12  A    between atoms: N1_23  and  C18_25
REMARK   13  A    between atoms: C18_25  and  C19_26
ROOT
HETATM    1  C5  UNL     1      35.351  39.223  -8.134  1.00  0.00    -0.031 C
HETATM    2  C6  UNL     1      34.855  38.606  -9.151  1.00  0.00    -0.030 C
ENDROOT
BRANCH   1   3
HETATM    3  C4  UNL     1      34.567  39.962  -7.133  1.00  0.00     0.027 C
BRANCH   3   4
HETATM    4  C3  UNL     1      35.027  41.397  -7.067  1.00  0.00     0.013 C
BRANCH   4   5
HETATM    5  C2  UNL     1      34.614  42.145  -5.868  1.00  0.00     0.103 C
BRANCH   5   6
HETATM    6  C1  UNL     1      35.741  42.240  -4.868  1.00  0.00     0.221 C
HETATM    7  O1  UNL     1      36.838  42.595  -5.322  1.00  0.00    -0.273 OA
HETATM    8  N1  UNL     1      35.430  41.919  -3.552  1.00  0.00    -0.339 N
ATOM      9  H1  UNL     1      34.450  41.672  -3.413  1.00  0.00     0.167 HD
BRANCH   8  10
HETATM   10  C18 UNL     1      36.190  41.867  -2.384  1.00  0.00     0.096 C
BRANCH  10  11
HETATM   11  C19 UNL     1      35.949  42.869  -1.331  1.00  0.00     0.224 C
HETATM   12  C20 UNL     1      36.223  44.286  -1.518  1.00  0.00     0.040 C
HETATM   13  C21 UNL     1      37.502  44.562  -0.764  1.00  0.00     0.030 C
HETATM   14  C22 UNL     1      37.850  43.283  -0.068  1.00  0.00     0.233 C
HETATM   15  N2  UNL     1      36.652  42.463  -0.097  1.00  0.00    -0.066 N
ATOM     16  H22 UNL     1      36.083  42.530   0.747  1.00  0.00     0.278 HD
ATOM     17  H21 UNL     1      36.833  41.461  -0.033  1.00  0.00     0.278 HD
ENDBRANCH  10  11
ENDBRANCH   8  10
ENDBRANCH   5   6
ENDBRANCH   4   5
ENDBRANCH   3   4
ENDBRANCH   1   3
BRANCH   2  18
HETATM   18  C7  UNL     1      33.424  38.489  -9.554  1.00  0.00     0.032 C
BRANCH  18  19
HETATM   19  C8  UNL     1      33.228  39.365 -10.733  1.00  0.00    -0.000 C
HETATM   20  C9  UNL     1      31.897  39.199 -11.444  1.00  0.00     0.019 C
HETATM   21  C10 UNL     1      30.945  39.614 -10.349  1.00  0.00     0.008 C
HETATM   22  C17 UNL     1      31.959  40.381 -12.415  1.00  0.00     0.127 C
HETATM   23  C11 UNL     1      31.695  40.778  -9.682  1.00  0.00     0.006 C
HETATM   24  C12 UNL     1      33.002  40.852 -10.376  1.00  0.00    -0.003 C
HETATM   25  C13 UNL     1      32.910  41.336 -11.830  1.00  0.00     0.019 C
BRANCH  25  26
HETATM   26  C14 UNL     1      32.860  42.755 -12.051  1.00  0.00     0.009 C
BRANCH  26  27
HETATM   27  C15 UNL     1      33.345  43.777 -11.133  1.00  0.00     0.027 C
BRANCH  27  28
HETATM   28  C16 UNL     1      32.294  44.565 -10.389  1.00  0.00     0.164 C
BRANCH  28  29
HETATM   29  O2  UNL     1      32.106  44.144  -9.083  1.00  0.00    -0.401 OA
ATOM     30  H2  UNL     1      31.300  44.464  -8.693  1.00  0.00     0.209 HD
ENDBRANCH  28  29
ENDBRANCH  27  28
ENDBRANCH  26  27
ENDBRANCH  25  26
BRANCH  22  31
HETATM   31  O3  UNL     1      32.472  39.805 -13.609  1.00  0.00    -0.395 OA
ATOM     32  H3  UNL     1      32.866  38.993 -13.312  1.00  0.00     0.210 HD
ENDBRANCH  22  31
ENDBRANCH  18  19
ENDBRANCH   2  18
TORSDOF 13
ENDMDL