MODEL 4
REMARK VINA RESULT: -5.932074867      2.057      2.982
REMARK  14 active torsions:
REMARK  status: ('A' for Active; 'I' for Inactive)
REMARK    1  A    between atoms: C2_2  and  C3_3
REMARK    2  A    between atoms: C3_3  and  N1_4
REMARK    3  A    between atoms: N1_4  and  C6_7
REMARK    4  A    between atoms: C6_7  and  C7_8
REMARK    5  A    between atoms: C7_8  and  C8_9
REMARK    6  A    between atoms: C8_9  and  C9_10
REMARK    7  A    between atoms: C9_10  and  C10_11
REMARK    8  A    between atoms: C10_11  and  C11_12
REMARK    9  A    between atoms: C11_12  and  N2_13
REMARK   10  A    between atoms: N2_13  and  C12_15
REMARK   11  A    between atoms: C12_15  and  C13_16
REMARK   12  A    between atoms: C13_16  and  N3_17
REMARK   13  A    between atoms: C19_26  and  O1_27
REMARK   14  A    between atoms: C21_30  and  O2_31
ROOT
HETATM    1  N1  UNL     1      30.150  39.372 -12.050  1.00  0.00    -0.074 N
HETATM    2  C4  UNL     1      28.999  40.116 -11.503  1.00  0.00     0.272 C
HETATM    3  C5  UNL     1      29.652  38.906 -13.354  1.00  0.00     0.272 C
ENDROOT
BRANCH   1   4
HETATM    4  C3  UNL     1      31.208  40.239 -12.321  1.00  0.00     0.246 C
BRANCH   4   5
HETATM    5  C2  UNL     1      32.142  40.722 -11.291  1.00  0.00    -0.013 C
HETATM    6  C1  UNL     1      33.273  39.722 -11.148  1.00  0.00     0.017 C
HETATM    7  C14 UNL     1      31.519  41.046  -9.964  1.00  0.00     0.011 C
HETATM    8  C15 UNL     1      32.612  41.325  -8.963  1.00  0.00     0.001 C
HETATM    9  C16 UNL     1      33.604  42.330  -9.418  1.00  0.00     0.005 C
HETATM   10  C17 UNL     1      33.426  42.855 -10.802  1.00  0.00    -0.005 C
HETATM   11  C18 UNL     1      32.814  44.261 -10.683  1.00  0.00     0.037 C
HETATM   12  C22 UNL     1      32.780  42.004 -11.805  1.00  0.00     0.028 C
HETATM   13  C19 UNL     1      32.739  44.979 -11.983  1.00  0.00     0.120 C
HETATM   14  C20 UNL     1      32.734  44.016 -13.130  1.00  0.00     0.063 C
HETATM   15  C21 UNL     1      31.861  42.828 -12.674  1.00  0.00     0.125 C
BRANCH  13  16
HETATM   16  O1  UNL     1      33.789  45.891 -12.154  1.00  0.00    -0.395 OA
ATOM     17  H1  UNL     1      33.483  46.759 -12.389  1.00  0.00     0.210 HD
ENDBRANCH  13  16
BRANCH  15  18
HETATM   18  O2  UNL     1      30.783  43.383 -12.049  1.00  0.00    -0.395 OA
ATOM     19  H2  UNL     1      30.088  42.739 -12.117  1.00  0.00     0.210 HD
ENDBRANCH  15  18
ENDBRANCH   4   5
ENDBRANCH   1   4
BRANCH   1  20
HETATM   20  C6  UNL     1      30.320  38.198 -11.276  1.00  0.00     0.236 C
BRANCH  20  21
HETATM   21  C7  UNL     1      29.253  38.258 -10.156  1.00  0.00     0.028 C
BRANCH  21  22
HETATM   22  C8  UNL     1      29.781  37.470  -8.951  1.00  0.00     0.002 C
BRANCH  22  23
HETATM   23  C9  UNL     1      31.283  37.316  -9.016  1.00  0.00     0.002 C
BRANCH  23  24
HETATM   24  C10 UNL     1      31.969  37.849  -7.794  1.00  0.00     0.019 C
BRANCH  24  25
HETATM   25  C11 UNL     1      33.132  36.949  -7.458  1.00  0.00     0.113 C
BRANCH  25  26
HETATM   26  N2  UNL     1      32.652  35.776  -6.799  1.00  0.00    -0.420 N
ATOM     27  H2  UNL     1      31.985  35.830  -6.029  1.00  0.00     0.153 HD
BRANCH  26  28
HETATM   28  C12 UNL     1      33.146  34.533  -7.266  1.00  0.00     0.141 C
BRANCH  28  29
HETATM   29  C13 UNL     1      31.975  33.592  -7.541  1.00  0.00     0.248 C
BRANCH  29  30
HETATM   30  N3  UNL     1      30.707  34.175  -7.194  1.00  0.00    -0.078 N
ATOM     31  H33 UNL     1      30.684  34.445  -6.210  1.00  0.00     0.274 HD
ATOM     32  H32 UNL     1      30.597  35.095  -7.620  1.00  0.00     0.274 HD
ATOM     33  H31 UNL     1      29.922  33.567  -7.426  1.00  0.00     0.274 HD
ENDBRANCH  29  30
ENDBRANCH  28  29
ENDBRANCH  26  28
ENDBRANCH  25  26
ENDBRANCH  24  25
ENDBRANCH  23  24
ENDBRANCH  22  23
ENDBRANCH  21  22
ENDBRANCH  20  21
ENDBRANCH   1  20
TORSDOF 14
ENDMDL