MODEL 4
REMARK VINA RESULT: -7.861459246      3.744      5.299
REMARK  13 active torsions:
REMARK  status: ('A' for Active; 'I' for Inactive)
REMARK    1  A    between atoms: C3_3  and  C4_4
REMARK    2  A    between atoms: C4_4  and  C5_5
REMARK    3  A    between atoms: C5_5  and  C6_6
REMARK    4  A    between atoms: C6_6  and  C7_7
REMARK    5  A    between atoms: C7_7  and  N1_8
REMARK    6  A    between atoms: N1_8  and  S1_10
REMARK    7  A    between atoms: S1_10  and  N2_13
REMARK    8  A    between atoms: N2_13  and  C8_15
REMARK    9  A    between atoms: C8_15  and  C9_16
REMARK   10  A    between atoms: C11_18  and  C12_19
REMARK   11  A    between atoms: C15_22  and  C16_23
REMARK   12  A    between atoms: C16_23  and  O3_24
REMARK   13  A    between atoms: N3_26  and  O4_28
ROOT
HETATM    1  C1  UNL     1      37.598  45.510  -0.403  1.00  0.00     0.012 C
HETATM    2  C2  UNL     1      37.869  44.416   0.060  1.00  0.00    -0.117 C
HETATM    3  C3  UNL     1      38.216  43.103   0.604  1.00  0.00     0.093 C
ENDROOT
BRANCH   3   4
HETATM    4  C4  UNL     1      36.882  42.375   0.850  1.00  0.00     0.012 C
BRANCH   4   5
HETATM    5  C5  UNL     1      36.082  42.507  -0.421  1.00  0.00     0.002 C
BRANCH   5   6
HETATM    6  C6  UNL     1      36.438  41.399  -1.351  1.00  0.00     0.020 C
BRANCH   6   7
HETATM    7  C7  UNL     1      36.653  41.954  -2.739  1.00  0.00     0.133 C
BRANCH   7   8
HETATM    8  N1  UNL     1      35.354  41.814  -3.413  1.00  0.00    -0.303 N
ATOM      9  H1  UNL     1      34.451  41.715  -2.948  1.00  0.00     0.173 HD
BRANCH   8  10
HETATM   10  S1  UNL     1      35.606  41.845  -5.099  1.00  0.00     0.314 S
HETATM   11  O1  UNL     1      36.841  42.645  -5.460  1.00  0.00    -0.183 OA
HETATM   12  O2  UNL     1      35.886  40.446  -5.640  1.00  0.00    -0.183 OA
BRANCH  10  13
HETATM   13  N2  UNL     1      34.222  42.416  -5.889  1.00  0.00    -0.302 N
ATOM     14  H2  UNL     1      33.364  42.642  -5.386  1.00  0.00     0.173 HD
BRANCH  13  15
HETATM   15  C8  UNL     1      34.336  42.563  -7.324  1.00  0.00     0.138 C
BRANCH  15  16
HETATM   16  C9  UNL     1      33.375  41.578  -7.941  1.00  0.00     0.009 A
HETATM   17  C10 UNL     1      33.045  41.613  -9.379  1.00  0.00     0.012 A
HETATM   18  C11 UNL     1      34.028  40.613  -8.938  1.00  0.00    -0.004 A
BRANCH  18  19
HETATM   19  C12 UNL     1      33.721  39.168  -8.744  1.00  0.00    -0.010 C
HETATM   20  C13 UNL     1      35.051  38.457  -8.412  1.00  0.00     0.006 C
HETATM   21  C14 UNL     1      35.871  38.488  -9.681  1.00  0.00     0.013 C
HETATM   22  C15 UNL     1      35.233  37.634 -10.699  1.00  0.00     0.062 C
HETATM   23  C17 UNL     1      33.780  37.942 -10.967  1.00  0.00     0.013 C
HETATM   24  C18 UNL     1      33.000  38.488  -9.841  1.00  0.00     0.006 C
BRANCH  22  25
HETATM   25  C16 UNL     1      35.468  36.209 -10.485  1.00  0.00     0.139 C
HETATM   26  N3  UNL     1      36.543  35.616 -10.598  1.00  0.00    -0.251 N
ATOM     27  H3  UNL     1      36.390  34.631 -10.384  1.00  0.00     0.196 HD
BRANCH  25  28
HETATM   28  O3  UNL     1      34.361  35.391 -10.109  1.00  0.00    -0.348 OA
ATOM     29  H3  UNL     1      33.854  35.643  -9.346  1.00  0.00     0.219 HD
ENDBRANCH  25  28
BRANCH  26  30
HETATM   30  O4  UNL     1      37.800  35.779 -10.888  1.00  0.00    -0.288 OA
ATOM     31  H4  UNL     1      38.402  36.290 -11.417  1.00  0.00     0.244 HD
ENDBRANCH  26  30
ENDBRANCH  22  25
ENDBRANCH  18  19
ENDBRANCH  15  16
ENDBRANCH  13  15
ENDBRANCH  10  13
ENDBRANCH   8  10
ENDBRANCH   7   8
ENDBRANCH   6   7
ENDBRANCH   5   6
ENDBRANCH   4   5
ENDBRANCH   3   4
TORSDOF 13
ENDMDL