MODEL 1
REMARK VINA RESULT: -7.535572855      0.000      0.000
REMARK  13 active torsions:
REMARK  status: ('A' for Active; 'I' for Inactive)
REMARK    1  A    between atoms: C1_2  and  C2_4
REMARK    2  A    between atoms: C2_4  and  C3_5
REMARK    3  A    between atoms: C3_5  and  C4_6
REMARK    4  A    between atoms: C4_6  and  C5_7
REMARK    5  A    between atoms: C6_8  and  C7_9
REMARK    6  A    between atoms: C7_9  and  C8_10
REMARK    7  A    between atoms: C9_11  and  C10_12
REMARK    8  A    between atoms: C11_13  and  C12_14
REMARK    9  A    between atoms: C12_14  and  O3_15
REMARK   10  A    between atoms: C12_14  and  C13_17
REMARK   11  A    between atoms: C14_18  and  C15_19
REMARK   12  A    between atoms: C19_23  and  O4_24
REMARK   13  A    between atoms: C20_26  and  C21_27
ROOT
HETATM    1  C8  UNL     1      33.141  40.683  -8.990  1.00  0.00     0.013 C
HETATM    2  C9  UNL     1      33.988  39.560  -8.346  1.00  0.00     0.015 C
HETATM    3  C18 UNL     1      34.226  40.165  -7.001  1.00  0.00     0.041 C
HETATM    4  C19 UNL     1      34.435  41.662  -7.276  1.00  0.00     0.133 C
HETATM    5  C20 UNL     1      34.076  41.839  -8.757  1.00  0.00     0.120 C
ENDROOT
BRANCH   2   6
HETATM    6  C10 UNL     1      33.349  38.258  -8.372  1.00  0.00    -0.023 C
HETATM    7  C11 UNL     1      32.161  38.062  -7.830  1.00  0.00     0.005 C
BRANCH   7   8
HETATM    8  C12 UNL     1      31.520  36.709  -7.870  1.00  0.00     0.163 C
BRANCH   8   9
HETATM    9  O3  UNL     1      32.368  35.843  -8.565  1.00  0.00    -0.388 OA
ATOM     10  H3  UNL     1      32.285  36.026  -9.493  1.00  0.00     0.210 HD
ENDBRANCH   8   9
BRANCH   8  11
HETATM   11  C13 UNL     1      30.220  36.834  -8.555  1.00  0.00     0.005 C
HETATM   12  C14 UNL     1      30.009  37.835  -9.389  1.00  0.00    -0.023 C
BRANCH  12  13
HETATM   13  C15 UNL     1      28.715  38.011 -10.110  1.00  0.00     0.008 A
HETATM   14  C16 UNL     1      28.492  39.439 -10.586  1.00  0.00     0.009 A
HETATM   15  C17 UNL     1      28.647  38.313 -11.539  1.00  0.00     0.009 A
ENDBRANCH  12  13
ENDBRANCH   8  11
ENDBRANCH   7   8
ENDBRANCH   2   6
BRANCH   1  16
HETATM   16  C7  UNL     1      32.905  40.338 -10.437  1.00  0.00     0.033 C
BRANCH  16  17
HETATM   17  C6  UNL     1      31.653  40.802 -11.011  1.00  0.00    -0.030 C
HETATM   18  C5  UNL     1      31.547  41.702 -11.967  1.00  0.00    -0.031 C
BRANCH  18  19
HETATM   19  C4  UNL     1      32.695  42.387 -12.617  1.00  0.00     0.027 C
BRANCH  19  20
HETATM   20  C3  UNL     1      32.143  43.626 -13.300  1.00  0.00     0.014 C
BRANCH  20  21
HETATM   21  C2  UNL     1      33.143  44.741 -13.326  1.00  0.00     0.113 C
BRANCH  21  22
HETATM   22  C1  UNL     1      32.686  45.796 -12.388  1.00  0.00     0.172 C
HETATM   23  O1  UNL     1      31.787  45.537 -11.552  1.00  0.00    -0.648 OA
HETATM   24  O2  UNL     1      33.219  47.057 -12.405  1.00  0.00    -0.648 OA
ENDBRANCH  21  22
ENDBRANCH  20  21
ENDBRANCH  19  20
ENDBRANCH  18  19
ENDBRANCH  16  17
ENDBRANCH   1  16
BRANCH   5  25
HETATM   25  C21 UNL     1      33.518  43.166  -9.011  1.00  0.00     0.179 C
HETATM   26  O5  UNL     1      34.065  43.953  -9.857  1.00  0.00    -0.648 OA
HETATM   27  O6  UNL     1      32.387  43.656  -8.369  1.00  0.00    -0.648 OA
ENDBRANCH   5  25
BRANCH   4  28
HETATM   28  O4  UNL     1      35.745  42.043  -7.069  1.00  0.00    -0.395 OA
ATOM     29  H4  UNL     1      36.276  41.919  -7.847  1.00  0.00     0.210 HD
ENDBRANCH   4  28
TORSDOF 13
ENDMDL