MODEL 5
REMARK VINA RESULT: -7.508295680      1.997      3.574
REMARK  13 active torsions:
REMARK  status: ('A' for Active; 'I' for Inactive)
REMARK    1  A    between atoms: C1_2  and  C2_4
REMARK    2  A    between atoms: C2_4  and  C3_5
REMARK    3  A    between atoms: C3_5  and  C4_6
REMARK    4  A    between atoms: C6_11  and  C7_12
REMARK    5  A    between atoms: C7_12  and  C8_13
REMARK    6  A    between atoms: C9_14  and  C10_15
REMARK    7  A    between atoms: C10_15  and  C11_16
REMARK    8  A    between atoms: C11_16  and  C12_17
REMARK    9  A    between atoms: C12_17  and  C13_18
REMARK   10  A    between atoms: C13_18  and  C14_19
REMARK   11  A    between atoms: C14_19  and  C15_20
REMARK   12  A    between atoms: C20_25  and  O3_26
REMARK   13  A    between atoms: C21_28  and  O4_29
ROOT
HETATM    1  C4  UNL     1      37.160  41.823  -1.395  1.00  0.00     0.116 C
HETATM    2  N2  UNL     1      37.607  40.812  -2.360  1.00  0.00    -0.353 N
ATOM      3  H2  UNL     1      38.257  40.079  -2.074  1.00  0.00     0.163 HD
HETATM    4  C5  UNL     1      37.127  40.861  -3.705  1.00  0.00     0.225 C
HETATM    5  O2  UNL     1      37.184  39.797  -4.373  1.00  0.00    -0.273 OA
HETATM    6  C6  UNL     1      36.575  42.086  -4.332  1.00  0.00     0.112 C
HETATM    7  C20 UNL     1      36.360  43.121  -3.286  1.00  0.00     0.162 C
HETATM    8  C21 UNL     1      35.914  42.428  -2.000  1.00  0.00     0.170 C
ENDROOT
BRANCH   6   9
HETATM    9  C7  UNL     1      35.348  41.780  -5.165  1.00  0.00     0.043 C
BRANCH   9  10
HETATM   10  C8  UNL     1      35.657  41.737  -6.611  1.00  0.00    -0.030 C
HETATM   11  C9  UNL     1      34.809  42.090  -7.561  1.00  0.00    -0.031 C
BRANCH  11  12
HETATM   12  C10 UNL     1      33.428  42.584  -7.363  1.00  0.00     0.027 C
BRANCH  12  13
HETATM   13  C11 UNL     1      33.001  43.205  -8.701  1.00  0.00     0.004 C
BRANCH  13  14
HETATM   14  C12 UNL     1      33.435  42.214  -9.773  1.00  0.00     0.000 C
BRANCH  14  15
HETATM   15  C13 UNL     1      32.492  41.068  -9.895  1.00  0.00     0.000 C
BRANCH  15  16
HETATM   16  C14 UNL     1      33.141  39.934 -10.634  1.00  0.00     0.004 C
BRANCH  16  17
HETATM   17  C15 UNL     1      33.435  38.797  -9.707  1.00  0.00    -0.014 C
HETATM   18  C16 UNL     1      32.543  38.838  -8.480  1.00  0.00     0.004 C
HETATM   19  C17 UNL     1      33.420  38.631  -7.286  1.00  0.00     0.000 C
HETATM   20  C18 UNL     1      34.822  38.403  -7.767  1.00  0.00     0.000 C
HETATM   21  C19 UNL     1      34.851  38.797  -9.228  1.00  0.00     0.004 C
ENDBRANCH  16  17
ENDBRANCH  15  16
ENDBRANCH  14  15
ENDBRANCH  13  14
ENDBRANCH  12  13
ENDBRANCH  11  12
ENDBRANCH   9  10
ENDBRANCH   6   9
BRANCH   7  22
HETATM   22  O3  UNL     1      37.585  43.769  -3.010  1.00  0.00    -0.392 OA
ATOM     23  H3  UNL     1      37.987  43.369  -2.247  1.00  0.00     0.210 HD
ENDBRANCH   7  22
BRANCH   8  24
HETATM   24  O4  UNL     1      35.024  41.405  -2.256  1.00  0.00    -0.391 OA
ATOM     25  H4  UNL     1      34.556  41.216  -1.451  1.00  0.00     0.210 HD
ENDBRANCH   8  24
BRANCH   1  26
HETATM   26  C3  UNL     1      36.926  41.216  -0.044  1.00  0.00     0.036 C
BRANCH  26  27
HETATM   27  C2  UNL     1      37.031  42.216   1.059  1.00  0.00     0.101 C
BRANCH  27  28
HETATM   28  C1  UNL     1      38.084  43.234   0.809  1.00  0.00     0.231 C
HETATM   29  N1  UNL     1      37.724  44.464   0.194  1.00  0.00    -0.062 NA
HETATM   30  O1  UNL     1      39.293  43.071   1.114  1.00  0.00    -0.277 OA
ENDBRANCH  27  28
ENDBRANCH  26  27
ENDBRANCH   1  26
TORSDOF 13
ENDMDL