MODEL 5
REMARK VINA RESULT: -7.044789986      1.518      2.336
REMARK  8 active torsions:
REMARK  status: ('A' for Active; 'I' for Inactive)
REMARK    1  A    between atoms: C2_2  and  O1_3
REMARK    2  A    between atoms: O1_3  and  C3_4
REMARK    3  A    between atoms: C3_4  and  C4_5
REMARK    4  A    between atoms: C4_5  and  O2_6
REMARK    5  A    between atoms: C4_5  and  C5_8
REMARK    6  A    between atoms: C5_8  and  N1_9
REMARK    7  A    between atoms: N1_9  and  C6_11
REMARK    8  A    between atoms: C8_13  and  C9_14
REMARK       I    between atoms: C9_14  and  N2_16
ROOT
HETATM    1  C6  UNL     1      34.247  39.046  -7.853  1.00  0.00     0.117 C
HETATM    2  C7  UNL     1      34.448  39.724  -6.478  1.00  0.00     0.050 C
HETATM    3  C8  UNL     1      35.228  40.943  -6.923  1.00  0.00     0.130 C
HETATM    4  C17 UNL     1      34.494  41.393  -8.111  1.00  0.00     0.031 A
HETATM    5  N3  UNL     1      34.181  42.470  -8.847  1.00  0.00    -0.361 N
ATOM      6  H3  UNL     1      34.468  43.433  -8.668  1.00  0.00     0.165 HD
HETATM    7  C18 UNL     1      33.416  42.038  -9.862  1.00  0.00     0.016 A
HETATM    8  C19 UNL     1      33.233  40.699  -9.791  1.00  0.00    -0.025 A
HETATM    9  C20 UNL     1      33.907  40.257  -8.685  1.00  0.00    -0.004 A
HETATM   10  C21 UNL     1      32.441  39.890 -10.753  1.00  0.00     0.041 C
HETATM   11  C22 UNL     1      32.137  40.595 -12.039  1.00  0.00     0.005 C
HETATM   12  C23 UNL     1      32.916  41.877 -12.207  1.00  0.00     0.006 C
HETATM   13  C24 UNL     1      32.770  42.780 -11.003  1.00  0.00     0.057 C
ENDROOT
BRANCH   1  14
HETATM   14  N1  UNL     1      35.490  38.538  -8.247  1.00  0.00    -0.391 N
ATOM     15  H1  UNL     1      36.205  39.173  -8.603  1.00  0.00     0.159 HD
BRANCH  14  16
HETATM   16  C5  UNL     1      35.765  37.167  -8.158  1.00  0.00     0.089 C
BRANCH  16  17
HETATM   17  C4  UNL     1      34.686  36.260  -7.674  1.00  0.00     0.179 C
BRANCH  17  18
HETATM   18  C3  UNL     1      33.997  35.494  -8.750  1.00  0.00     0.204 C
BRANCH  18  19
HETATM   19  O1  UNL     1      32.803  36.052  -9.098  1.00  0.00    -0.389 OA
BRANCH  19  20
HETATM   20  C2  UNL     1      31.853  36.107  -8.095  1.00  0.00     0.163 C
HETATM   21  C1  UNL     1      30.976  37.347  -8.320  1.00  0.00     0.033 C
ENDBRANCH  19  20
ENDBRANCH  18  19
ENDBRANCH  17  18
BRANCH  17  22
HETATM   22  O2  UNL     1      35.170  35.373  -6.677  1.00  0.00    -0.388 OA
ATOM     23  H2  UNL     1      35.239  35.825  -5.844  1.00  0.00     0.210 HD
ENDBRANCH  17  22
ENDBRANCH  16  17
ENDBRANCH  14  16
ENDBRANCH   1  14
BRANCH   3  24
HETATM   24  C9  UNL     1      35.361  41.925  -5.839  1.00  0.00     0.230 C
HETATM   25  O3  UNL     1      34.592  42.959  -5.879  1.00  0.00    -0.273 OA
HETATM   26  N2  UNL     1      36.251  41.850  -4.750  1.00  0.00    -0.351 N
HETATM   27  C10 UNL     1      37.129  40.726  -4.596  1.00  0.00     0.130 C
HETATM   28  C16 UNL     1      36.293  42.903  -3.768  1.00  0.00     0.130 C
HETATM   29  C11 UNL     1      37.260  40.446  -3.112  1.00  0.00    -0.000 C
HETATM   30  C12 UNL     1      38.029  39.185  -2.834  1.00  0.00     0.011 C
HETATM   31  C13 UNL     1      37.996  41.598  -2.467  1.00  0.00     0.011 C
HETATM   32  C14 UNL     1      37.594  42.933  -3.007  1.00  0.00    -0.000 C
HETATM   33  C15 UNL     1      37.394  43.868  -1.812  1.00  0.00     0.011 C
ENDBRANCH   3  24
TORSDOF 8
ENDMDL