MODEL 4
REMARK VINA RESULT: -7.840482043      2.777      5.587
REMARK  7 active torsions:
REMARK  status: ('A' for Active; 'I' for Inactive)
REMARK    1  A    between atoms: C3_3  and  O1_4
REMARK    2  A    between atoms: O1_4  and  C4_5
REMARK    3  A    between atoms: C8_9  and  C9_10
REMARK    4  A    between atoms: C9_10  and  C10_12
REMARK    5  A    between atoms: C10_12  and  C11_13
REMARK       I    between atoms: C11_13  and  N1_15
REMARK    6  A    between atoms: N1_15  and  C12_17
REMARK    7  A    between atoms: C12_17  and  C13_18
REMARK       I    between atoms: N3_22  and  C15_24
ROOT
HETATM    1  C1  UNL     1      33.288  44.829 -11.840  1.00  0.00     0.014 C
HETATM    2  C2  UNL     1      33.113  43.655 -11.897  1.00  0.00    -0.091 C
HETATM    3  C3  UNL     1      32.896  42.227 -11.990  1.00  0.00     0.268 C
ENDROOT
BRANCH   3   4
HETATM    4  O1  UNL     1      32.329  41.733 -10.793  1.00  0.00    -0.339 OA
BRANCH   4   5
HETATM    5  C4  UNL     1      32.946  40.666 -10.142  1.00  0.00     0.076 A
HETATM    6  C5  UNL     1      32.899  39.382 -10.679  1.00  0.00     0.045 A
HETATM    7  C6  UNL     1      33.528  38.360  -9.992  1.00  0.00    -0.045 A
HETATM    8  C7  UNL     1      33.478  36.990 -10.567  1.00  0.00     0.049 C
HETATM    9  C8  UNL     1      34.174  38.647  -8.807  1.00  0.00     0.023 A
HETATM   10  C19 UNL     1      34.221  39.921  -8.272  1.00  0.00    -0.039 A
HETATM   11  C20 UNL     1      34.933  40.123  -7.009  1.00  0.00     0.050 C
HETATM   12  C21 UNL     1      33.599  40.938  -8.950  1.00  0.00    -0.022 A
HETATM   13  C22 UNL     1      33.624  42.306  -8.417  1.00  0.00     0.052 C
BRANCH   9  14
HETATM   14  C9  UNL     1      34.824  37.503  -8.131  1.00  0.00     0.169 C
HETATM   15  O2  UNL     1      34.310  37.030  -7.105  1.00  0.00    -0.292 OA
BRANCH  14  16
HETATM   16  C10 UNL     1      36.060  36.969  -8.702  1.00  0.00     0.186 C
BRANCH  16  17
HETATM   17  C11 UNL     1      37.208  36.998  -7.764  1.00  0.00     0.225 C
HETATM   18  O3  UNL     1      38.288  36.422  -8.076  1.00  0.00    -0.273 OA
HETATM   19  N1  UNL     1      37.095  37.666  -6.531  1.00  0.00    -0.355 N
ATOM     20  H1  UNL     1      36.221  38.130  -6.284  1.00  0.00     0.162 HD
BRANCH  19  21
HETATM   21  C12 UNL     1      38.206  37.697  -5.617  1.00  0.00     0.182 C
BRANCH  21  22
HETATM   22  C13 UNL     1      38.091  38.817  -4.632  1.00  0.00     0.067 A
HETATM   23  N2  UNL     1      37.064  39.631  -4.367  1.00  0.00    -0.192 N
HETATM   24  C14 UNL     1      37.479  40.469  -3.390  1.00  0.00     0.685 A
ATOM     25  H2  UNL     1      36.147  39.621  -4.814  1.00  0.00     0.184 HD
HETATM   26  N3  UNL     1      36.757  41.399  -2.873  1.00  0.00    -0.160 N
HETATM   27  N4  UNL     1      38.745  40.198  -3.038  1.00  0.00    -0.194 N
HETATM   28  C15 UNL     1      37.297  42.214  -1.858  1.00  0.00     0.231 C
ATOM     29  H3  UNL     1      35.801  41.545  -3.195  1.00  0.00     0.187 HD
HETATM   30  C16 UNL     1      36.664  42.238  -0.523  1.00  0.00     0.118 C
HETATM   31  O4  UNL     1      38.317  42.914  -2.111  1.00  0.00    -0.273 OA
HETATM   32  C17 UNL     1      39.154  39.170  -3.796  1.00  0.00     0.047 A
ATOM     33  H4  UNL     1      39.293  40.683  -2.328  1.00  0.00     0.184 HD
HETATM   34  C18 UNL     1      40.505  38.519  -3.756  1.00  0.00     0.071 C
ENDBRANCH  21  22
ENDBRANCH  19  21
ENDBRANCH  16  17
ENDBRANCH  14  16
ENDBRANCH   9  14
ENDBRANCH   4   5
ENDBRANCH   3   4
TORSDOF 7
ENDMDL