MODEL 3
REMARK VINA RESULT: -8.540335924      1.709      2.621
REMARK  8 active torsions:
REMARK  status: ('A' for Active; 'I' for Inactive)
REMARK    1  A    between atoms: C2_2  and  C3_3
REMARK    2  A    between atoms: C3_3  and  C4_4
REMARK    3  A    between atoms: C4_4  and  N1_5
REMARK    4  A    between atoms: N1_5  and  C5_7
REMARK    5  A    between atoms: C6_10  and  C7_11
REMARK    6  A    between atoms: N3_15  and  C11_16
REMARK    7  A    between atoms: C15_25  and  C16_26
REMARK       I    between atoms: C16_26  and  N6_28
REMARK    8  A    between atoms: N6_28  and  C17_30
ROOT
HETATM    1  C5  UNL     1      35.337  40.108  -6.646  1.00  0.00     0.117 A
HETATM    2  N2  UNL     1      35.762  40.412  -5.375  1.00  0.00    -0.327 N
ATOM      3  H2  UNL     1      36.327  39.725  -4.876  1.00  0.00     0.169 HD
HETATM    4  C6  UNL     1      35.474  41.556  -4.762  1.00  0.00     0.123 A
HETATM    5  N4  UNL     1      34.715  42.427  -5.487  1.00  0.00    -0.327 N
ATOM      6  H4  UNL     1      34.470  43.318  -5.054  1.00  0.00     0.169 HD
HETATM    7  C14 UNL     1      34.271  42.194  -6.724  1.00  0.00     0.122 A
HETATM    8  N5  UNL     1      33.529  42.892  -7.601  1.00  0.00    -0.337 N
ATOM      9  H5  UNL     1      33.149  43.822  -7.422  1.00  0.00     0.167 HD
HETATM   10  C15 UNL     1      33.353  42.209  -8.744  1.00  0.00     0.109 A
HETATM   11  C20 UNL     1      34.005  40.992  -8.633  1.00  0.00    -0.012 A
HETATM   12  C21 UNL     1      34.090  39.923  -9.635  1.00  0.00     0.052 C
HETATM   13  C22 UNL     1      34.572  41.013  -7.350  1.00  0.00     0.060 A
ENDROOT
BRANCH   4  14
HETATM   14  C7  UNL     1      35.913  41.956  -3.429  1.00  0.00     0.072 C
HETATM   15  C8  UNL     1      35.183  41.627  -2.363  1.00  0.00    -0.004 C
HETATM   16  C9  UNL     1      35.485  41.952  -0.974  1.00  0.00     0.048 C
HETATM   17  C10 UNL     1      36.962  42.112  -0.780  1.00  0.00     0.130 C
HETATM   18  N3  UNL     1      37.417  43.049  -1.787  1.00  0.00    -0.348 N
HETATM   19  C13 UNL     1      37.111  42.715  -3.160  1.00  0.00     0.257 C
HETATM   20  O1  UNL     1      37.897  43.101  -4.042  1.00  0.00    -0.267 OA
BRANCH  18  21
HETATM   21  C11 UNL     1      38.133  44.265  -1.476  1.00  0.00     0.121 C
HETATM   22  C12 UNL     1      37.285  45.236  -0.725  1.00  0.00     0.026 C
ENDBRANCH  18  21
ENDBRANCH   4  14
BRANCH   1  23
HETATM   23  N1  UNL     1      35.606  39.013  -7.199  1.00  0.00    -0.375 N
ATOM     24  H1  UNL     1      36.133  39.115  -8.066  1.00  0.00     0.161 HD
BRANCH  23  25
HETATM   25  C4  UNL     1      35.329  37.670  -6.867  1.00  0.00     0.121 C
BRANCH  25  26
HETATM   26  C3  UNL     1      34.109  37.191  -7.600  1.00  0.00     0.019 C
BRANCH  26  27
HETATM   27  C2  UNL     1      32.833  37.535  -6.887  1.00  0.00    -0.003 C
HETATM   28  C1  UNL     1      31.651  37.545  -7.833  1.00  0.00     0.005 C
ENDBRANCH  26  27
ENDBRANCH  25  26
ENDBRANCH  23  25
ENDBRANCH   1  23
BRANCH  10  29
HETATM   29  C16 UNL     1      32.576  42.697  -9.901  1.00  0.00     0.269 C
HETATM   30  O2  UNL     1      31.666  42.028 -10.439  1.00  0.00    -0.266 OA
HETATM   31  N6  UNL     1      32.869  43.979 -10.434  1.00  0.00    -0.351 N
ATOM     32  H6  UNL     1      33.603  44.554 -10.020  1.00  0.00     0.163 HD
BRANCH  31  33
HETATM   33  C17 UNL     1      32.116  44.461 -11.571  1.00  0.00     0.085 A
HETATM   34  C18 UNL     1      32.857  44.789 -12.790  1.00  0.00     0.027 A
HETATM   35  C19 UNL     1      32.246  45.889 -11.981  1.00  0.00     0.027 A
ENDBRANCH  31  33
ENDBRANCH  10  29
TORSDOF 8
ENDMDL