MODEL 3
REMARK VINA RESULT: -7.151862899      4.327      9.662
REMARK  8 active torsions:
REMARK  status: ('A' for Active; 'I' for Inactive)
REMARK    1  A    between atoms: C2_2  and  C3_3
REMARK    2  A    between atoms: C4_4  and  C5_5
REMARK       I    between atoms: C5_5  and  N1_7
REMARK    3  A    between atoms: N1_7  and  C6_9
REMARK    4  A    between atoms: C6_9  and  C9_12
REMARK    5  A    between atoms: C10_13  and  S1_14
REMARK    6  A    between atoms: C15_23  and  C16_24
REMARK    7  A    between atoms: C17_25  and  C18_26
REMARK    8  A    between atoms: C21_29  and  N3_30
ROOT
HETATM    1  C3  UNL     1      35.167  40.413  -7.389  1.00  0.00    -0.021 A
HETATM    2  C4  UNL     1      35.763  39.555  -6.508  1.00  0.00     0.055 A
HETATM    3  C12 UNL     1      35.657  38.185  -6.791  1.00  0.00     0.105 A
HETATM    4  N2  UNL     1      35.003  37.729  -7.875  1.00  0.00    -0.367 N
ATOM      5  H2  UNL     1      34.944  36.726  -8.054  1.00  0.00     0.165 HD
HETATM    6  C13 UNL     1      34.425  38.610  -8.728  1.00  0.00     0.024 A
HETATM    7  C14 UNL     1      33.696  38.102  -9.926  1.00  0.00     0.070 C
HETATM    8  C15 UNL     1      34.476  39.981  -8.528  1.00  0.00     0.047 A
ENDROOT
BRANCH   2   9
HETATM    9  C5  UNL     1      36.502  40.006  -5.343  1.00  0.00     0.254 C
HETATM   10  O1  UNL     1      37.540  39.377  -5.013  1.00  0.00    -0.268 OA
HETATM   11  N1  UNL     1      36.088  41.113  -4.602  1.00  0.00    -0.345 N
ATOM     12  H1  UNL     1      35.256  41.634  -4.880  1.00  0.00     0.163 HD
BRANCH  11  13
HETATM   13  C6  UNL     1      36.867  41.526  -3.406  1.00  0.00     0.044 C
HETATM   14  C7  UNL     1      37.754  42.651  -3.951  1.00  0.00     0.042 C
HETATM   15  C8  UNL     1      37.705  40.396  -2.951  1.00  0.00     0.042 C
BRANCH  13  16
HETATM   16  C9  UNL     1      35.924  42.011  -2.375  1.00  0.00     0.015 C
HETATM   17  C10 UNL     1      36.267  42.242  -0.990  1.00  0.00     0.107 C
BRANCH  17  18
HETATM   18  S1  UNL     1      37.499  43.383  -0.528  1.00  0.00     0.161 S
HETATM   19  C11 UNL     1      37.872  43.151   1.248  1.00  0.00     0.166 C
HETATM   20  O2  UNL     1      37.046  44.796  -0.714  1.00  0.00    -0.224 OA
HETATM   21  O3  UNL     1      38.828  43.172  -1.198  1.00  0.00    -0.224 OA
ENDBRANCH  17  18
ENDBRANCH  13  16
ENDBRANCH  11  13
ENDBRANCH   2   9
BRANCH   1  22
HETATM   22  C2  UNL     1      35.182  41.876  -7.152  1.00  0.00     0.037 C
HETATM   23  C1  UNL     1      33.789  42.353  -6.722  1.00  0.00     0.010 C
ENDBRANCH   1  22
BRANCH   8  24
HETATM   24  C16 UNL     1      33.817  40.880  -9.430  1.00  0.00    -0.059 C
HETATM   25  C17 UNL     1      33.284  41.667 -10.175  1.00  0.00    -0.060 C
BRANCH  25  26
HETATM   26  C18 UNL     1      32.673  42.637 -11.041  1.00  0.00     0.033 A
HETATM   27  C19 UNL     1      32.556  42.358 -12.386  1.00  0.00     0.026 A
HETATM   28  C20 UNL     1      31.987  43.288 -13.257  1.00  0.00     0.049 A
HETATM   29  C21 UNL     1      31.537  44.499 -12.745  1.00  0.00     0.098 A
HETATM   30  N4  UNL     1      31.655  44.758 -11.442  1.00  0.00    -0.351 N
HETATM   31  C22 UNL     1      32.212  43.850 -10.593  1.00  0.00     0.110 A
ATOM     32  H4  UNL     1      31.322  45.650 -11.076  1.00  0.00     0.166 HD
BRANCH  29  33
HETATM   33  N3  UNL     1      31.020  45.346 -13.558  1.00  0.00    -0.385 N
ATOM     34  H32 UNL     1      31.482  46.226 -13.784  1.00  0.00     0.157 HD
ATOM     35  H31 UNL     1      30.122  45.116 -13.986  1.00  0.00     0.157 HD
ENDBRANCH  29  33
ENDBRANCH  25  26
ENDBRANCH   8  24
TORSDOF 8
ENDMDL