MODEL 1
REMARK VINA RESULT: -8.710353945      0.000      0.000
REMARK  7 active torsions:
REMARK  status: ('A' for Active; 'I' for Inactive)
REMARK    1  A    between atoms: C2_2  and  C4_4
REMARK       I    between atoms: C4_4  and  N1_6
REMARK    2  A    between atoms: N1_6  and  C5_8
REMARK    3  A    between atoms: C7_13  and  C8_14
REMARK    4  A    between atoms: C8_14  and  C9_15
REMARK    5  A    between atoms: N3_20  and  C13_21
REMARK    6  A    between atoms: C13_21  and  C14_22
REMARK    7  A    between atoms: C14_22  and  C15_23
ROOT
HETATM    1  C5  UNL     1      35.520  41.053  -4.560  1.00  0.00     0.215 C
HETATM    2  C6  UNL     1      35.671  42.573  -4.623  1.00  0.00     0.280 C
HETATM    3  N2  UNL     1      35.944  43.032  -3.289  1.00  0.00    -0.059 N
ATOM      4  H21 UNL     1      35.123  42.927  -2.694  1.00  0.00     0.278 HD
ATOM      5  H22 UNL     1      36.039  44.047  -3.266  1.00  0.00     0.278 HD
HETATM    6  C7  UNL     1      37.118  42.384  -2.681  1.00  0.00     0.277 C
HETATM    7  C12 UNL     1      37.708  41.418  -3.612  1.00  0.00     0.252 C
HETATM    8  O2  UNL     1      38.948  41.325  -3.716  1.00  0.00    -0.271 OA
HETATM    9  N3  UNL     1      36.876  40.558  -4.431  1.00  0.00    -0.327 N
ENDROOT
BRANCH   9  10
HETATM   10  C13 UNL     1      37.427  39.382  -4.990  1.00  0.00     0.133 C
BRANCH  10  11
HETATM   11  C14 UNL     1      38.219  38.528  -4.024  1.00  0.00     0.061 C
BRANCH  11  12
HETATM   12  C15 UNL     1      39.325  37.866  -4.747  1.00  0.00    -0.020 A
HETATM   13  C16 UNL     1      40.665  37.936  -4.435  1.00  0.00     0.016 A
HETATM   14  C17 UNL     1      41.329  38.670  -3.327  1.00  0.00     0.069 C
HETATM   15  N4  UNL     1      41.329  37.187  -5.350  1.00  0.00    -0.340 N
HETATM   16  C18 UNL     1      42.773  36.984  -5.393  1.00  0.00     0.158 C
HETATM   17  C19 UNL     1      40.435  36.658  -6.215  1.00  0.00     0.118 A
HETATM   18  N5  UNL     1      40.337  35.871  -7.301  1.00  0.00    -0.345 N
HETATM   19  C23 UNL     1      39.162  37.063  -5.869  1.00  0.00     0.018 A
HETATM   20  C20 UNL     1      39.056  35.739  -7.689  1.00  0.00     0.008 A
ATOM     21  H5  UNL     1      41.130  35.433  -7.769  1.00  0.00     0.167 HD
HETATM   22  C21 UNL     1      38.528  34.946  -8.853  1.00  0.00     0.068 C
HETATM   23  C22 UNL     1      38.318  36.484  -6.793  1.00  0.00     0.040 A
ENDBRANCH  11  12
ENDBRANCH  10  11
ENDBRANCH   9  10
BRANCH   1  24
HETATM   24  N1  UNL     1      34.822  40.572  -5.717  1.00  0.00    -0.334 N
HETATM   25  C4  UNL     1      35.126  41.175  -6.979  1.00  0.00     0.248 C
HETATM   26  O1  UNL     1      35.998  42.115  -7.040  1.00  0.00    -0.268 OA
ATOM     27  H1  UNL     1      34.132  39.824  -5.644  1.00  0.00     0.164 HD
BRANCH  25  28
HETATM   28  C2  UNL     1      34.501  40.789  -8.220  1.00  0.00    -0.004 C
HETATM   29  C1  UNL     1      34.620  39.580  -8.704  1.00  0.00     0.024 C
HETATM   30  C3  UNL     1      33.696  41.810  -8.961  1.00  0.00     0.053 C
ENDBRANCH  25  28
ENDBRANCH   1  24
BRANCH   6  31
HETATM   31  C8  UNL     1      36.707  41.896  -1.338  1.00  0.00     0.046 C
BRANCH  31  32
HETATM   32  C9  UNL     1      36.783  42.851  -0.216  1.00  0.00    -0.020 C
HETATM   33  C10 UNL     1      37.739  43.972  -0.298  1.00  0.00     0.009 C
HETATM   34  C11 UNL     1      37.035  42.100   1.113  1.00  0.00     0.009 C
ENDBRANCH  31  32
ENDBRANCH   6  31
TORSDOF 7
ENDMDL