MODEL 2
REMARK VINA RESULT: -7.689497918      1.179      2.130
REMARK  8 active torsions:
REMARK  status: ('A' for Active; 'I' for Inactive)
REMARK    1  A    between atoms: O1_2  and  C2_3
REMARK    2  A    between atoms: C3_4  and  C4_5
REMARK    3  A    between atoms: N1_6  and  N2_8
REMARK       I    between atoms: C5_10  and  N4_12
REMARK    4  A    between atoms: C8_17  and  C9_18
REMARK    5  A    between atoms: C12_21  and  C13_22
REMARK    6  A    between atoms: C13_22  and  N6_23
REMARK       I    between atoms: N6_23  and  C14_25
REMARK    7  A    between atoms: C17_30  and  C18_31
REMARK    8  A    between atoms: C18_31  and  C19_32
ROOT
HETATM    1  C2  UNL     1      35.304  40.244  -6.256  1.00  0.00     0.105 A
HETATM    2  C3  UNL     1      35.439  41.543  -5.825  1.00  0.00     0.084 A
HETATM    3  N5  UNL     1      34.784  42.332  -6.692  1.00  0.00    -0.352 N
ATOM      4  H5  UNL     1      34.717  43.347  -6.618  1.00  0.00     0.166 HD
HETATM    5  C8  UNL     1      34.213  41.582  -7.695  1.00  0.00     0.052 A
HETATM    6  C17 UNL     1      34.526  40.290  -7.442  1.00  0.00     0.009 A
ENDROOT
BRANCH   5   7
HETATM    7  C9  UNL     1      33.486  42.213  -8.783  1.00  0.00    -0.009 A
HETATM    8  C10 UNL     1      33.635  41.713 -10.092  1.00  0.00     0.014 A
HETATM    9  C11 UNL     1      33.030  42.258 -11.194  1.00  0.00     0.013 A
HETATM   10  C12 UNL     1      32.222  43.363 -11.028  1.00  0.00    -0.021 A
HETATM   11  C15 UNL     1      32.065  43.866  -9.759  1.00  0.00     0.013 A
HETATM   12  C16 UNL     1      32.686  43.305  -8.640  1.00  0.00     0.014 A
BRANCH  10  13
HETATM   13  C13 UNL     1      31.570  43.960 -12.170  1.00  0.00     0.103 C
BRANCH  13  14
HETATM   14  N6  UNL     1      31.714  45.207 -12.408  1.00  0.00    -0.321 N
HETATM   15  C14 UNL     1      32.963  45.785 -12.757  1.00  0.00     0.332 C
HETATM   16  N7  UNL     1      33.335  47.042 -12.213  1.00  0.00    -0.040 NA
HETATM   17  O2  UNL     1      33.746  45.175 -13.558  1.00  0.00    -0.251 OA
ATOM     18  H6  UNL     1      30.896  45.813 -12.345  1.00  0.00     0.169 HD
ENDBRANCH  13  14
ENDBRANCH  10  13
ENDBRANCH   5   7
BRANCH   6  19
HETATM   19  C18 UNL     1      34.183  39.092  -8.217  1.00  0.00     0.071 C
BRANCH  19  20
HETATM   20  C19 UNL     1      35.238  38.631  -9.143  1.00  0.00    -0.020 C
HETATM   21  C20 UNL     1      35.867  37.481  -9.108  1.00  0.00    -0.091 C
HETATM   22  C21 UNL     1      36.923  37.111 -10.098  1.00  0.00     0.042 C
HETATM   23  C22 UNL     1      35.563  36.474  -8.060  1.00  0.00     0.042 C
ENDBRANCH  19  20
ENDBRANCH   6  19
BRANCH   2  24
HETATM   24  C4  UNL     1      36.163  42.005  -4.635  1.00  0.00     0.139 C
HETATM   25  N1  UNL     1      36.134  41.332  -3.527  1.00  0.00    -0.307 N
ATOM     26  H1  UNL     1      35.603  40.463  -3.466  1.00  0.00     0.186 HD
BRANCH  25  27
HETATM   27  N2  UNL     1      36.831  41.805  -2.429  1.00  0.00    -0.274 N
HETATM   28  C5  UNL     1      36.245  42.467  -1.505  1.00  0.00     0.204 C
HETATM   29  N3  UNL     1      34.852  42.736  -1.586  1.00  0.00    -0.062 NA
HETATM   30  N4  UNL     1      36.954  42.958  -0.373  1.00  0.00    -0.363 N
HETATM   31  C6  UNL     1      37.382  44.342  -0.315  1.00  0.00     0.152 C
HETATM   32  C7  UNL     1      37.254  42.071   0.734  1.00  0.00     0.152 C
ATOM     33  H2  UNL     1      37.832  41.622  -2.355  1.00  0.00     0.189 HD
ENDBRANCH  25  27
ENDBRANCH   2  24
BRANCH   1  34
HETATM   34  O1  UNL     1      35.804  39.082  -5.691  1.00  0.00    -0.353 OA
HETATM   35  C1  UNL     1      37.235  38.958  -5.774  1.00  0.00     0.210 C
ENDBRANCH   1  34
TORSDOF 8
ENDMDL