MODEL 2
REMARK VINA RESULT: -8.505116618      2.220      2.925
REMARK  8 active torsions:
REMARK  status: ('A' for Active; 'I' for Inactive)
REMARK    1  A    between atoms: C3_5  and  N2_6
REMARK    2  A    between atoms: C4_8  and  C5_9
REMARK    3  A    between atoms: C5_9  and  C6_10
REMARK    4  A    between atoms: C9_15  and  N4_16
REMARK    5  A    between atoms: N4_16  and  C10_18
REMARK    6  A    between atoms: C10_18  and  C11_19
REMARK    7  A    between atoms: C14_22  and  N5_23
REMARK    8  A    between atoms: C22_31  and  C23_32
ROOT
HETATM    1  C1  UNL     1      33.922  42.178  -6.940  1.00  0.00     0.070 C
HETATM    2  C2  UNL     1      34.906  41.892  -5.887  1.00  0.00     0.042 A
HETATM    3  N1  UNL     1      35.163  42.767  -4.934  1.00  0.00    -0.195 N
ATOM      4  H1  UNL     1      34.668  43.659  -4.936  1.00  0.00     0.184 HD
HETATM    5  C3  UNL     1      36.064  42.520  -3.953  1.00  0.00     0.683 A
HETATM    6  N3  UNL     1      36.717  41.337  -3.955  1.00  0.00    -0.176 N
ATOM      7  H3  UNL     1      37.400  41.137  -3.224  1.00  0.00     0.186 HD
HETATM    8  C9  UNL     1      36.475  40.410  -4.923  1.00  0.00     0.134 A
HETATM    9  C22 UNL     1      35.566  40.655  -5.915  1.00  0.00     0.096 A
ENDROOT
BRANCH   8  10
HETATM   10  N4  UNL     1      37.128  39.353  -4.837  1.00  0.00    -0.375 N
ATOM     11  H4  UNL     1      36.971  38.774  -5.662  1.00  0.00     0.161 HD
BRANCH  10  12
HETATM   12  C10 UNL     1      37.984  38.731  -3.984  1.00  0.00     0.126 C
BRANCH  12  13
HETATM   13  C11 UNL     1      39.459  38.790  -4.530  1.00  0.00     0.003 C
HETATM   14  C12 UNL     1      40.312  38.688  -3.291  1.00  0.00     0.008 C
HETATM   15  C13 UNL     1      41.715  38.308  -3.723  1.00  0.00     0.036 C
HETATM   16  C14 UNL     1      41.660  36.899  -4.338  1.00  0.00     0.223 C
HETATM   17  C20 UNL     1      40.911  37.042  -5.651  1.00  0.00     0.036 C
HETATM   18  C21 UNL     1      39.540  37.609  -5.449  1.00  0.00     0.008 C
BRANCH  16  19
HETATM   19  N5  UNL     1      42.996  36.452  -4.548  1.00  0.00     0.093 N
HETATM   20  C15 UNL     1      43.942  36.965  -3.603  1.00  0.00     0.273 C
HETATM   21  C16 UNL     1      45.260  36.274  -3.729  1.00  0.00     0.030 C
HETATM   22  C17 UNL     1      45.807  36.240  -5.138  1.00  0.00     0.003 C
HETATM   23  C18 UNL     1      44.709  35.916  -6.133  1.00  0.00     0.030 C
HETATM   24  C19 UNL     1      43.472  36.712  -5.887  1.00  0.00     0.273 C
ENDBRANCH  16  19
ENDBRANCH  12  13
ENDBRANCH  10  12
ENDBRANCH   8  10
BRANCH   9  25
HETATM   25  C23 UNL     1      35.276  39.741  -6.990  1.00  0.00     0.270 C
HETATM   26  N6  UNL     1      34.528  38.530  -6.832  1.00  0.00    -0.057 NA
HETATM   27  O1  UNL     1      35.689  39.985  -8.152  1.00  0.00    -0.271 OA
ENDBRANCH   9  25
BRANCH   5  28
HETATM   28  N2  UNL     1      36.293  43.337  -3.079  1.00  0.00    -0.205 N
HETATM   29  C4  UNL     1      36.873  43.810  -1.962  1.00  0.00     0.079 C
ATOM     30  H2  UNL     1      35.698  44.118  -3.355  1.00  0.00     0.183 HD
BRANCH  29  31
HETATM   31  C5  UNL     1      37.496  42.903  -0.949  1.00  0.00     0.049 C
BRANCH  31  32
HETATM   32  C6  UNL     1      36.545  42.151  -0.083  1.00  0.00    -0.018 C
HETATM   33  C7  UNL     1      36.985  42.160   1.362  1.00  0.00     0.010 C
HETATM   34  C8  UNL     1      36.569  40.694  -0.522  1.00  0.00     0.010 C
ENDBRANCH  31  32
ENDBRANCH  29  31
ENDBRANCH   5  28
TORSDOF 8
ENDMDL