MODEL 5
REMARK VINA RESULT: -6.337650489      2.394      3.425
REMARK  8 active torsions:
REMARK  status: ('A' for Active; 'I' for Inactive)
REMARK    1  A    between atoms: C2_2  and  N1_3
REMARK       I    between atoms: N1_3  and  C3_5
REMARK    2  A    between atoms: C3_5  and  C4_7
REMARK    3  A    between atoms: C5_8  and  C6_9
REMARK    4  A    between atoms: C11_14  and  C12_15
REMARK    5  A    between atoms: C12_15  and  C13_16
REMARK    6  A    between atoms: C13_16  and  C14_17
REMARK    7  A    between atoms: C14_17  and  C15_18
REMARK    8  A    between atoms: C15_18  and  N2_19
ROOT
HETATM    1  C4  UNL     1      32.107  38.974  -8.513  1.00  0.00     0.022 C
HETATM    2  C5  UNL     1      31.645  39.610  -9.703  1.00  0.00    -0.043 C
HETATM    3  C16 UNL     1      30.256  38.981  -9.969  1.00  0.00     0.045 C
HETATM    4  C17 UNL     1      30.120  37.792  -9.101  1.00  0.00     0.001 C
HETATM    5  C18 UNL     1      30.434  36.458  -9.742  1.00  0.00     0.025 C
HETATM    6  C19 UNL     1      31.758  36.465  -8.969  1.00  0.00     0.102 C
HETATM    7  C20 UNL     1      31.836  35.241  -8.166  1.00  0.00     0.064 C
HETATM    8  N3  UNL     1      31.907  34.276  -7.526  1.00  0.00    -0.197 NA
HETATM    9  C21 UNL     1      31.334  37.684  -8.264  1.00  0.00     0.046 C
ENDROOT
BRANCH   1  10
HETATM   10  C3  UNL     1      33.513  38.838  -8.147  1.00  0.00     0.249 C
HETATM   11  N1  UNL     1      34.131  37.573  -8.291  1.00  0.00    -0.339 N
ATOM     12  H1  UNL     1      33.574  36.796  -8.646  1.00  0.00     0.164 HD
HETATM   13  O1  UNL     1      34.201  39.760  -7.719  1.00  0.00    -0.268 OA
BRANCH  11  14
HETATM   14  C2  UNL     1      35.508  37.337  -7.958  1.00  0.00     0.112 C
HETATM   15  C1  UNL     1      36.020  38.301  -6.907  1.00  0.00     0.049 C
HETATM   16  C22 UNL     1      35.759  35.943  -7.437  1.00  0.00     0.060 C
HETATM   17  C23 UNL     1      37.253  35.801  -7.647  1.00  0.00     0.125 C
HETATM   18  N4  UNL     1      37.423  36.476  -8.940  1.00  0.00    -0.359 N
HETATM   19  C24 UNL     1      36.379  37.411  -9.121  1.00  0.00     0.245 C
ATOM     20  H4  UNL     1      38.177  36.298  -9.604  1.00  0.00     0.162 HD
HETATM   21  O2  UNL     1      36.241  38.159 -10.107  1.00  0.00    -0.271 OA
ENDBRANCH  11  14
ENDBRANCH   1  10
BRANCH   2  22
HETATM   22  C6  UNL     1      32.314  39.859 -10.969  1.00  0.00    -0.069 C
HETATM   23  C7  UNL     1      33.103  38.850 -11.688  1.00  0.00     0.035 C
HETATM   24  C8  UNL     1      33.003  39.099 -13.193  1.00  0.00     0.004 C
HETATM   25  C9  UNL     1      32.455  40.420 -13.557  1.00  0.00     0.001 C
HETATM   26  C10 UNL     1      32.811  41.568 -12.683  1.00  0.00     0.009 C
HETATM   27  C11 UNL     1      33.012  41.170 -11.202  1.00  0.00     0.015 C
BRANCH  27  28
HETATM   28  C12 UNL     1      32.537  42.291 -10.329  1.00  0.00     0.009 C
BRANCH  28  29
HETATM   29  C13 UNL     1      33.301  43.530 -10.691  1.00  0.00     0.002 C
BRANCH  29  30
HETATM   30  C14 UNL     1      32.297  44.604 -11.055  1.00  0.00     0.027 C
BRANCH  30  31
HETATM   31  C15 UNL     1      32.692  45.329 -12.321  1.00  0.00     0.229 C
BRANCH  31  32
HETATM   32  N2  UNL     1      32.487  46.752 -12.153  1.00  0.00    -0.079 N
ATOM     33  H23 UNL     1      32.732  47.277 -12.993  1.00  0.00     0.274 HD
ATOM     34  H22 UNL     1      31.497  46.995 -12.110  1.00  0.00     0.274 HD
ATOM     35  H21 UNL     1      32.998  47.080 -11.334  1.00  0.00     0.274 HD
ENDBRANCH  31  32
ENDBRANCH  30  31
ENDBRANCH  29  30
ENDBRANCH  28  29
ENDBRANCH  27  28
ENDBRANCH   2  22
TORSDOF 8
ENDMDL