MODEL 3
REMARK VINA RESULT: -8.130122889      0.840      1.611
REMARK  10 active torsions:
REMARK  status: ('A' for Active; 'I' for Inactive)
REMARK    1  A    between atoms: C3_5  and  C4_6
REMARK    2  A    between atoms: C3_5  and  N3_23
REMARK    3  A    between atoms: C4_6  and  C5_7
REMARK    4  A    between atoms: C5_7  and  C6_8
REMARK    5  A    between atoms: C6_8  and  C7_9
REMARK    6  A    between atoms: C11_14  and  O1_15
REMARK    7  A    between atoms: O1_15  and  C12_16
REMARK    8  A    between atoms: C12_16  and  C13_17
REMARK    9  A    between atoms: N3_23  and  C18_25
REMARK   10  A    between atoms: C20_27  and  C21_28
ROOT
HETATM    1  C1  UNL     1      37.376  44.859  -1.176  1.00  0.00     0.037 C
HETATM    2  C2  UNL     1      36.820  44.013  -1.835  1.00  0.00     0.000 C
HETATM    3  N1  UNL     1      36.208  43.135  -2.592  1.00  0.00    -0.305 N
ATOM      4  H1  UNL     1      35.229  43.125  -2.307  1.00  0.00     0.177 HD
HETATM    5  C3  UNL     1      36.326  42.331  -3.490  1.00  0.00     0.090 C
ENDROOT
BRANCH   5   6
HETATM    6  C4  UNL     1      37.646  42.096  -4.150  1.00  0.00     0.077 C
BRANCH   6   7
HETATM    7  C5  UNL     1      38.364  40.938  -3.583  1.00  0.00     0.012 C
BRANCH   7   8
HETATM    8  C6  UNL     1      37.903  39.568  -4.029  1.00  0.00     0.039 C
BRANCH   8   9
HETATM    9  C7  UNL     1      38.781  38.551  -3.333  1.00  0.00    -0.054 A
HETATM   10  C8  UNL     1      38.176  37.609  -2.523  1.00  0.00     0.034 A
HETATM   11  C9  UNL     1      38.982  36.725  -1.748  1.00  0.00     0.049 A
HETATM   12  N2  UNL     1      38.378  35.778  -0.892  1.00  0.00    -0.102 NA
HETATM   13  C10 UNL     1      40.326  36.838  -1.825  1.00  0.00     0.063 A
HETATM   14  C11 UNL     1      40.970  37.777  -2.622  1.00  0.00     0.072 A
HETATM   15  C17 UNL     1      40.141  38.647  -3.394  1.00  0.00     0.044 A
BRANCH  14  16
HETATM   16  O1  UNL     1      42.278  37.825  -2.624  1.00  0.00    -0.332 OA
BRANCH  16  17
HETATM   17  C12 UNL     1      43.510  37.956  -3.029  1.00  0.00     0.127 A
HETATM   18  C15 UNL     1      44.684  38.132  -2.041  1.00  0.00     0.050 A
HETATM   19  C16 UNL     1      44.259  39.287  -2.863  1.00  0.00     0.050 A
BRANCH  17  20
HETATM   20  C13 UNL     1      43.962  37.254  -4.299  1.00  0.00     0.158 C
HETATM   21  C14 UNL     1      44.623  37.910  -5.431  1.00  0.00     0.094 C
HETATM   22  O2  UNL     1      43.755  36.032  -4.336  1.00  0.00    -0.295 OA
ENDBRANCH  17  20
ENDBRANCH  16  17
ENDBRANCH  14  16
ENDBRANCH   8   9
ENDBRANCH   7   8
ENDBRANCH   6   7
ENDBRANCH   5   6
BRANCH   5  23
HETATM   23  N3  UNL     1      35.175  41.633  -3.973  1.00  0.00    -0.331 N
ATOM     24  H3  UNL     1      34.613  41.094  -3.313  1.00  0.00     0.168 HD
BRANCH  23  25
HETATM   25  C18 UNL     1      34.833  41.659  -5.176  1.00  0.00     0.123 A
HETATM   26  C19 UNL     1      34.739  40.547  -6.023  1.00  0.00     0.077 A
HETATM   27  C20 UNL     1      34.308  40.976  -7.252  1.00  0.00     0.037 A
HETATM   28  N4  UNL     1      34.151  42.296  -7.151  1.00  0.00    -0.302 N
HETATM   29  N5  UNL     1      34.458  42.698  -5.931  1.00  0.00    -0.285 N
ATOM     30  H4  UNL     1      33.838  42.907  -7.906  1.00  0.00     0.186 HD
ATOM     31  H5  UNL     1      34.415  43.665  -5.610  1.00  0.00     0.188 HD
BRANCH  27  32
HETATM   32  C21 UNL     1      34.095  40.151  -8.485  1.00  0.00    -0.007 C
HETATM   33  C22 UNL     1      35.358  39.402  -8.810  1.00  0.00     0.021 C
HETATM   34  C23 UNL     1      33.678  40.926  -9.675  1.00  0.00     0.021 C
HETATM   35  C24 UNL     1      33.050  39.087  -8.161  1.00  0.00     0.021 C
ENDBRANCH  27  32
ENDBRANCH  23  25
ENDBRANCH   5  23
TORSDOF 10
ENDMDL