MODEL 4
REMARK VINA RESULT: -7.273234194      4.152      6.464
REMARK  11 active torsions:
REMARK  status: ('A' for Active; 'I' for Inactive)
REMARK    1  A    between atoms: C2_2  and  C3_3
REMARK    2  A    between atoms: C3_3  and  N1_4
REMARK    3  A    between atoms: N1_4  and  C4_5
REMARK    4  A    between atoms: N1_4  and  C6_7
REMARK    5  A    between atoms: C6_7  and  O1_8
REMARK    6  A    between atoms: C6_7  and  N2_10
REMARK    7  A    between atoms: N2_10  and  C7_11
REMARK    8  A    between atoms: N2_10  and  C11_15
REMARK    9  A    between atoms: C7_11  and  C8_12
REMARK   10  A    between atoms: C8_12  and  C9_13
REMARK   11  A    between atoms: C13_17  and  C14_18
ROOT
HETATM    1  C11 UNL     1      37.397  40.360  -3.417  1.00  0.00     0.111 A
HETATM    2  C12 UNL     1      38.085  39.804  -4.468  1.00  0.00     0.062 A
HETATM    3  C13 UNL     1      38.577  38.560  -4.058  1.00  0.00    -0.009 A
HETATM    4  C19 UNL     1      38.169  38.393  -2.753  1.00  0.00     0.017 A
HETATM    5  C20 UNL     1      38.440  37.195  -1.880  1.00  0.00     0.069 C
HETATM    6  N5  UNL     1      37.467  39.489  -2.409  1.00  0.00    -0.345 N
ATOM      7  H5  UNL     1      37.044  39.635  -1.493  1.00  0.00     0.167 HD
ENDROOT
BRANCH   1   8
HETATM    8  N2  UNL     1      36.716  41.673  -3.414  1.00  0.00    -0.299 N
BRANCH   8   9
HETATM    9  C6  UNL     1      36.177  42.156  -2.240  1.00  0.00     0.223 C
BRANCH   9  10
HETATM   10  N1  UNL     1      36.651  43.021  -1.287  1.00  0.00    -0.344 N
BRANCH  10  11
HETATM   11  C3  UNL     1      37.490  42.830  -0.142  1.00  0.00     0.153 C
BRANCH  11  12
HETATM   12  C2  UNL     1      36.734  42.026   0.850  1.00  0.00    -0.017 C
HETATM   13  C1  UNL     1      37.026  42.090   2.128  1.00  0.00     0.008 C
ENDBRANCH  11  12
ENDBRANCH  10  11
BRANCH  10  14
HETATM   14  C4  UNL     1      36.213  44.452  -1.455  1.00  0.00     0.122 C
HETATM   15  C5  UNL     1      37.291  45.309  -0.844  1.00  0.00     0.026 C
ENDBRANCH  10  14
ENDBRANCH   9  10
BRANCH   9  16
HETATM   16  O1  UNL     1      34.970  41.688  -1.992  1.00  0.00    -0.332 OA
ATOM     17  H1  UNL     1      34.499  41.400  -2.764  1.00  0.00     0.221 HD
ENDBRANCH   9  16
ENDBRANCH   8   9
BRANCH   8  18
HETATM   18  C7  UNL     1      36.691  42.286  -4.687  1.00  0.00     0.134 C
BRANCH  18  19
HETATM   19  C8  UNL     1      35.283  42.224  -5.300  1.00  0.00     0.020 C
BRANCH  19  20
HETATM   20  C9  UNL     1      35.400  41.468  -6.601  1.00  0.00    -0.003 C
HETATM   21  C10 UNL     1      34.917  40.045  -6.383  1.00  0.00     0.005 C
ENDBRANCH  19  20
ENDBRANCH  18  19
ENDBRANCH   8  18
ENDBRANCH   1   8
BRANCH   3  22
HETATM   22  C14 UNL     1      39.332  37.643  -4.892  1.00  0.00     0.036 C
HETATM   23  C15 UNL     1      40.639  37.559  -4.975  1.00  0.00     0.101 A
HETATM   24  C16 UNL     1      41.500  38.423  -4.206  1.00  0.00     0.263 A
HETATM   25  C18 UNL     1      41.268  36.571  -5.840  1.00  0.00     0.263 A
HETATM   26  O2  UNL     1      41.095  39.316  -3.427  1.00  0.00    -0.267 OA
HETATM   27  N3  UNL     1      42.934  38.297  -4.303  1.00  0.00    -0.299 N
HETATM   28  C17 UNL     1      43.514  37.326  -5.152  1.00  0.00     0.181 A
ATOM     29  H3  UNL     1      43.534  38.913  -3.755  1.00  0.00     0.171 HD
HETATM   30  S1  UNL     1      45.147  37.187  -5.260  1.00  0.00    -0.040 SA
HETATM   31  N4  UNL     1      42.703  36.461  -5.922  1.00  0.00    -0.299 N
ATOM     32  H4  UNL     1      43.131  35.764  -6.532  1.00  0.00     0.171 HD
HETATM   33  O3  UNL     1      40.563  35.806  -6.520  1.00  0.00    -0.267 OA
ENDBRANCH   3  22
TORSDOF 11
ENDMDL