MODEL 2
REMARK VINA RESULT: -9.288310811      1.102      1.111
REMARK  7 active torsions:
REMARK  status: ('A' for Active; 'I' for Inactive)
REMARK    1  A    between atoms: C2_2  and  O1_3
REMARK    2  A    between atoms: O1_3  and  C3_4
REMARK       I    between atoms: C3_4  and  N1_6
REMARK    3  A    between atoms: C4_7  and  N2_8
REMARK    4  A    between atoms: N2_8  and  N3_10
REMARK       I    between atoms: N3_10  and  C5_12
REMARK       I    between atoms: C5_12  and  N4_14
REMARK    5  A    between atoms: N4_14  and  N5_16
REMARK       I    between atoms: N5_16  and  C6_17
REMARK       I    between atoms: C6_17  and  N7_19
REMARK    6  A    between atoms: C9_26  and  C10_27
REMARK    7  A    between atoms: N9_28  and  N10_30
REMARK       I    between atoms: N10_30  and  C11_31
ROOT
HETATM    1  N5  UNL     1      40.399  31.777  16.647  1.00  0.00    -0.286 NA
HETATM    2  C6  UNL     1      41.379  32.419  17.158  1.00  0.00     0.298 C
HETATM    3  N6  UNL     1      41.866  33.638  16.583  1.00  0.00    -0.046 NA
HETATM    4  N7  UNL     1      41.975  31.949  18.349  1.00  0.00    -0.254 N
ATOM      5  H7  UNL     1      41.982  32.591  19.142  1.00  0.00     0.182 HD
HETATM    6  C7  UNL     1      42.547  30.714  18.550  1.00  0.00     0.185 C
HETATM    7  N8  UNL     1      43.043  29.692  18.736  1.00  0.00    -0.172 NA
ENDROOT
BRANCH   1   8
HETATM    8  N4  UNL     1      39.477  31.143  16.194  1.00  0.00    -0.180 N
HETATM    9  C5  UNL     1      38.675  30.304  17.092  1.00  0.00     0.364 C
HETATM   10  N3  UNL     1      37.593  29.535  16.554  1.00  0.00    -0.246 N
HETATM   11  O3  UNL     1      38.943  30.267  18.317  1.00  0.00    -0.243 OA
ATOM     12  H3  UNL     1      37.294  29.525  15.579  1.00  0.00     0.192 HD
ATOM     13  H4  UNL     1      39.258  31.189  15.199  1.00  0.00     0.207 HD
BRANCH  10  14
HETATM   14  N2  UNL     1      36.979  28.754  17.655  1.00  0.00    -0.260 N
ATOM     15  H2  UNL     1      36.387  29.137  18.394  1.00  0.00     0.190 HD
BRANCH  14  16
HETATM   16  C4  UNL     1      37.326  27.467  17.526  1.00  0.00     0.258 A
HETATM   17  N1  UNL     1      36.367  26.606  17.207  1.00  0.00    -0.185 N
HETATM   18  C3  UNL     1      35.039  27.044  17.025  1.00  0.00     0.377 C
HETATM   19  C12 UNL     1      36.663  25.283  17.067  1.00  0.00     0.274 A
HETATM   20  O2  UNL     1      34.725  28.243  17.103  1.00  0.00    -0.237 OA
HETATM   21  C9  UNL     1      37.953  24.864  17.259  1.00  0.00     0.092 A
HETATM   22  O6  UNL     1      35.750  24.460  16.768  1.00  0.00    -0.266 OA
HETATM   23  C8  UNL     1      38.904  25.826  17.580  1.00  0.00     0.144 A
HETATM   24  O4  UNL     1      38.571  27.088  17.706  1.00  0.00    -0.269 OA
HETATM   25  S1  UNL     1      40.594  25.289  17.801  1.00  0.00    -0.024 SA
BRANCH  18  26
HETATM   26  O1  UNL     1      34.064  26.112  16.760  1.00  0.00    -0.304 OA
BRANCH  26  27
HETATM   27  C2  UNL     1      33.054  26.464  15.809  1.00  0.00     0.176 C
HETATM   28  C1  UNL     1      33.657  26.140  14.433  1.00  0.00     0.034 C
ENDBRANCH  26  27
ENDBRANCH  18  26
BRANCH  21  29
HETATM   29  C10 UNL     1      38.334  23.441  17.275  1.00  0.00     0.141 C
HETATM   30  N9  UNL     1      37.641  22.694  18.021  1.00  0.00    -0.241 N
ATOM     31  H9  UNL     1      36.903  23.182  18.529  1.00  0.00     0.201 HD
BRANCH  30  32
HETATM   32  N10 UNL     1      37.698  21.403  18.265  1.00  0.00    -0.268 NA
HETATM   33  C11 UNL     1      37.744  20.086  18.522  1.00  0.00     0.424 C
HETATM   34  N11 UNL     1      38.841  19.279  17.959  1.00  0.00    -0.024 NA
HETATM   35  O5  UNL     1      36.956  19.392  19.208  1.00  0.00    -0.232 OA
ENDBRANCH  30  32
ENDBRANCH  21  29
ENDBRANCH  14  16
ENDBRANCH  10  14
ENDBRANCH   1   8
TORSDOF 7
ENDMDL