MODEL 1
REMARK VINA RESULT: -9.727033416      0.000      0.000
REMARK  10 active torsions:
REMARK  status: ('A' for Active; 'I' for Inactive)
REMARK       I    between atoms: N2_3  and  C2_5
REMARK    1  A    between atoms: C2_5  and  C3_7
REMARK    2  A    between atoms: C3_7  and  C13_32
REMARK    3  A    between atoms: N3_8  and  N4_10
REMARK    4  A    between atoms: N4_10  and  C4_12
REMARK    5  A    between atoms: C4_12  and  N5_14
REMARK    6  A    between atoms: N5_14  and  N6_16
REMARK    7  A    between atoms: C5_18  and  C6_19
REMARK    8  A    between atoms: C9_22  and  C10_23
REMARK    9  A    between atoms: N13_37  and  N14_38
REMARK   10  A    between atoms: C14_41  and  N15_42
ROOT
HETATM    1  N1  UNL     1      41.499  35.510  18.085  1.00  0.00    -0.172 NA
HETATM    2  C1  UNL     1      41.510  34.387  18.363  1.00  0.00     0.184 C
HETATM    3  N2  UNL     1      41.515  33.003  18.688  1.00  0.00    -0.258 N
ATOM      4  H2  UNL     1      41.805  32.713  19.622  1.00  0.00     0.181 HD
HETATM    5  C2  UNL     1      41.132  32.029  17.761  1.00  0.00     0.284 C
HETATM    6  O1  UNL     1      40.767  32.417  16.583  1.00  0.00    -0.265 OA
ENDROOT
BRANCH   5   7
HETATM    7  C3  UNL     1      41.120  30.609  18.042  1.00  0.00     0.149 C
HETATM    8  N3  UNL     1      39.977  29.948  18.006  1.00  0.00    -0.291 N
ATOM      9  H3  UNL     1      39.992  28.948  18.208  1.00  0.00     0.187 HD
BRANCH   8  10
HETATM   10  N4  UNL     1      38.769  30.529  17.710  1.00  0.00    -0.274 N
ATOM     11  H4  UNL     1      38.541  31.448  18.092  1.00  0.00     0.189 HD
BRANCH  10  12
HETATM   12  C4  UNL     1      37.835  29.860  16.879  1.00  0.00     0.205 C
HETATM   13  S1  UNL     1      37.837  30.033  15.256  1.00  0.00    -0.038 SA
BRANCH  12  14
HETATM   14  N5  UNL     1      36.874  29.016  17.474  1.00  0.00    -0.275 N
ATOM     15  H5  UNL     1      35.989  29.406  17.796  1.00  0.00     0.189 HD
BRANCH  14  16
HETATM   16  N6  UNL     1      37.122  27.673  17.624  1.00  0.00    -0.309 N
HETATM   17  C5  UNL     1      36.482  26.752  17.001  1.00  0.00     0.118 C
ATOM     18  H6  UNL     1      37.859  27.391  18.270  1.00  0.00     0.186 HD
BRANCH  17  19
HETATM   19  C6  UNL     1      36.826  25.373  17.237  1.00  0.00    -0.019 A
HETATM   20  C7  UNL     1      35.848  24.492  17.656  1.00  0.00     0.014 A
HETATM   21  C8  UNL     1      36.146  23.168  17.890  1.00  0.00     0.016 A
HETATM   22  C9  UNL     1      37.418  22.654  17.721  1.00  0.00     0.010 A
HETATM   23  C11 UNL     1      38.379  23.548  17.303  1.00  0.00     0.016 A
HETATM   24  C12 UNL     1      38.105  24.877  17.062  1.00  0.00     0.014 A
BRANCH  22  25
HETATM   25  C10 UNL     1      37.732  21.255  17.969  1.00  0.00     0.141 A
HETATM   26  N7  UNL     1      38.783  20.615  17.430  1.00  0.00    -0.270 N
HETATM   27  N8  UNL     1      38.805  19.351  17.841  1.00  0.00    -0.007 NA
ATOM     28  H7  UNL     1      39.463  21.037  16.799  1.00  0.00     0.185 HD
HETATM   29  N9  UNL     1      37.752  19.197  18.649  1.00  0.00    -0.007 NA
HETATM   30  N10 UNL     1      37.094  20.360  18.728  1.00  0.00    -0.270 N
ATOM     31  H10 UNL     1      36.250  20.533  19.275  1.00  0.00     0.185 HD
ENDBRANCH  22  25
ENDBRANCH  17  19
ENDBRANCH  14  16
ENDBRANCH  12  14
ENDBRANCH  10  12
ENDBRANCH   8  10
BRANCH   7  32
HETATM   32  C13 UNL     1      42.269  29.792  18.375  1.00  0.00     0.130 A
HETATM   33  N11 UNL     1      43.385  30.081  19.044  1.00  0.00    -0.279 N
HETATM   34  N12 UNL     1      44.185  29.034  19.124  1.00  0.00    -0.219 N
ATOM     35  H11 UNL     1      43.595  30.996  19.444  1.00  0.00     0.189 HD
HETATM   36  N13 UNL     1      43.617  28.017  18.506  1.00  0.00    -0.170 N
ATOM     37  H12 UNL     1      45.093  29.014  19.588  1.00  0.00     0.210 HD
HETATM   38  C14 UNL     1      42.437  28.441  18.030  1.00  0.00     0.171 A
BRANCH  36  39
HETATM   39  N14 UNL     1      44.140  26.720  18.361  1.00  0.00    -0.321 N
ATOM     40 2H14 UNL     1      44.924  26.334  18.887  1.00  0.00     0.179 HD
ATOM     41 1H14 UNL     1      43.813  25.997  17.721  1.00  0.00     0.179 HD
ENDBRANCH  36  39
BRANCH  38  42
HETATM   42  N15 UNL     1      41.605  27.712  17.368  1.00  0.00    -0.381 N
ATOM     43 2H15 UNL     1      40.601  27.667  17.544  1.00  0.00     0.157 HD
ATOM     44 1H15 UNL     1      41.830  27.093  16.589  1.00  0.00     0.157 HD
ENDBRANCH  38  42
ENDBRANCH   7  32
ENDBRANCH   5   7
TORSDOF 10
ENDMDL