MODEL 2
REMARK VINA RESULT: -9.432694195      1.465      1.544
REMARK  10 active torsions:
REMARK  status: ('A' for Active; 'I' for Inactive)
REMARK    1  A    between atoms: C3_6  and  C4_7
REMARK    2  A    between atoms: C4_7  and  O1_8
REMARK    3  A    between atoms: C4_7  and  N3_10
REMARK    4  A    between atoms: N3_10  and  C5_11
REMARK    5  A    between atoms: C5_11  and  O2_13
REMARK    6  A    between atoms: C6_15  and  C7_16
REMARK    7  A    between atoms: C7_16  and  N5_17
REMARK    8  A    between atoms: C7_16  and  C16_41
REMARK    9  A    between atoms: N5_17  and  N6_19
REMARK       I    between atoms: N6_19  and  C8_21
REMARK   10  A    between atoms: C8_21  and  C9_23
ROOT
HETATM    1  N6  UNL     1      38.370  29.088  16.676  1.00  0.00    -0.264 N
ATOM      2  H6  UNL     1      38.713  28.129  16.729  1.00  0.00     0.190 HD
HETATM    3  C8  UNL     1      39.242  30.084  17.101  1.00  0.00     0.286 C
HETATM    4  O3  UNL     1      38.880  31.271  17.086  1.00  0.00    -0.264 OA
ENDROOT
BRANCH   1   5
HETATM    5  N5  UNL     1      37.091  29.259  16.190  1.00  0.00    -0.290 N
ATOM      6  H5  UNL     1      36.507  30.049  16.465  1.00  0.00     0.187 HD
BRANCH   5   7
HETATM    7  C7  UNL     1      36.633  28.256  15.273  1.00  0.00     0.154 C
BRANCH   7   8
HETATM    8  C6  UNL     1      35.709  27.235  15.693  1.00  0.00     0.098 A
HETATM    9  N1  UNL     1      34.671  26.775  14.882  1.00  0.00    -0.294 N
HETATM   10  C1  UNL     1      34.285  27.268  13.594  1.00  0.00     0.178 C
HETATM   11  N2  UNL     1      34.064  25.848  15.548  1.00  0.00    -0.309 N
HETATM   12  C2  UNL     1      34.605  25.657  16.745  1.00  0.00     0.122 A
ATOM     13  H2  UNL     1      33.263  25.323  15.195  1.00  0.00     0.186 HD
HETATM   14  C3  UNL     1      35.670  26.546  16.863  1.00  0.00     0.051 A
BRANCH  14  15
HETATM   15  C4  UNL     1      36.410  26.667  18.159  1.00  0.00     0.340 C
BRANCH  15  16
HETATM   16  O1  UNL     1      36.563  27.875  18.742  1.00  0.00    -0.362 OA
ATOM     17  H1  UNL     1      37.232  28.474  18.431  1.00  0.00     0.213 HD
ENDBRANCH  15  16
BRANCH  15  18
HETATM   18  N3  UNL     1      37.678  26.067  17.988  1.00  0.00    -0.375 NA
BRANCH  18  19
HETATM   19  C5  UNL     1      38.889  25.493  17.826  1.00  0.00     0.303 C
HETATM   20  N4  UNL     1      39.618  24.828  18.818  1.00  0.00    -0.042 NA
BRANCH  19  21
HETATM   21  O2  UNL     1      39.467  25.534  16.647  1.00  0.00    -0.324 OA
ATOM     22  H2  UNL     1      40.378  25.276  16.567  1.00  0.00     0.221 HD
ENDBRANCH  19  21
ENDBRANCH  18  19
ENDBRANCH  15  18
ENDBRANCH  14  15
ENDBRANCH   7   8
BRANCH   7  23
HETATM   23  C16 UNL     1      37.720  27.946  14.356  1.00  0.00     0.230 C
HETATM   24  O4  UNL     1      37.675  28.482  13.177  1.00  0.00    -0.643 OA
HETATM   25  O5  UNL     1      38.827  27.147  14.561  1.00  0.00    -0.643 OA
ENDBRANCH   7  23
ENDBRANCH   5   7
ENDBRANCH   1   5
BRANCH   3  26
HETATM   26  C9  UNL     1      40.600  29.785  17.577  1.00  0.00     0.103 A
HETATM   27  C10 UNL     1      41.093  28.503  17.610  1.00  0.00     0.051 A
HETATM   28  C11 UNL     1      42.342  28.217  18.117  1.00  0.00     0.027 A
HETATM   29  C12 UNL     1      43.106  29.274  18.603  1.00  0.00     0.076 A
HETATM   30  C15 UNL     1      42.831  26.927  18.131  1.00  0.00     0.105 A
HETATM   31  C13 UNL     1      42.577  30.560  18.554  1.00  0.00     0.120 A
HETATM   32  N8  UNL     1      44.310  28.965  19.080  1.00  0.00    -0.297 N
HETATM   33  N7  UNL     1      41.364  30.809  18.058  1.00  0.00    -0.359 N
ATOM     34  H7  UNL     1      41.007  31.764  18.037  1.00  0.00     0.165 HD
HETATM   35  N9  UNL     1      44.807  27.725  19.107  1.00  0.00    -0.282 N
ATOM     36  H8  UNL     1      44.888  29.721  19.446  1.00  0.00     0.187 HD
HETATM   37  C14 UNL     1      44.086  26.666  18.632  1.00  0.00     0.162 A
ATOM     38  H9  UNL     1      45.739  27.567  19.488  1.00  0.00     0.188 HD
HETATM   39  N10 UNL     1      44.334  25.357  18.530  1.00  0.00    -0.266 N
HETATM   40  N11 UNL     1      43.263  24.769  17.971  1.00  0.00    -0.021 NA
ATOM     41  H10 UNL     1      45.188  24.886  18.826  1.00  0.00     0.186 HD
HETATM   42  N12 UNL     1      42.353  25.728  17.730  1.00  0.00    -0.280 N
ATOM     43  H12 UNL     1      41.437  25.573  17.307  1.00  0.00     0.184 HD
ENDBRANCH   3  26
TORSDOF 10
ENDMDL