MODEL 3
REMARK VINA RESULT: -8.345907802      3.205      6.742
REMARK  9 active torsions:
REMARK  status: ('A' for Active; 'I' for Inactive)
REMARK    1  A    between atoms: C2_3  and  S1_4
REMARK    2  A    between atoms: S1_4  and  C3_5
REMARK    3  A    between atoms: C8_15  and  N4_16
REMARK    4  A    between atoms: C10_23  and  C11_24
REMARK    5  A    between atoms: C12_25  and  C13_26
REMARK    6  A    between atoms: N6_27  and  N7_29
REMARK    7  A    between atoms: N7_29  and  C14_31
REMARK    8  A    between atoms: C17_38  and  N10_39
REMARK    9  A    between atoms: N10_39  and  N11_41
ROOT
HETATM    1  N1  UNL     1      37.377  25.677  19.274  1.00  0.00    -0.197 NA
HETATM    2  C1  UNL     1      38.142  25.151  18.585  1.00  0.00     0.069 C
HETATM    3  C2  UNL     1      39.107  24.484  17.707  1.00  0.00     0.206 C
ENDROOT
BRANCH   3   4
HETATM    4  S1  UNL     1      39.552  25.543  16.307  1.00  0.00    -0.080 SA
BRANCH   4   5
HETATM    5  C3  UNL     1      39.536  27.240  16.854  1.00  0.00     0.149 C
HETATM    6  N2  UNL     1      40.733  27.775  17.259  1.00  0.00    -0.303 N
HETATM    7  C4  UNL     1      41.039  29.076  17.544  1.00  0.00     0.259 C
ATOM      8  H2  UNL     1      41.500  27.110  17.361  1.00  0.00     0.171 HD
HETATM    9  O1  UNL     1      42.148  29.317  18.069  1.00  0.00    -0.267 OA
HETATM   10  C5  UNL     1      40.273  30.223  17.330  1.00  0.00     0.063 C
HETATM   11  C6  UNL     1      40.819  31.525  17.565  1.00  0.00     0.065 A
HETATM   12  C10 UNL     1      38.935  30.183  16.871  1.00  0.00     0.026 C
HETATM   13  C7  UNL     1      41.527  32.280  16.650  1.00  0.00     0.124 A
HETATM   14  C9  UNL     1      40.655  32.092  18.826  1.00  0.00     0.272 A
HETATM   15  N3  UNL     1      41.998  33.475  17.028  1.00  0.00    -0.201 N
HETATM   16  C8  UNL     1      41.830  34.013  18.256  1.00  0.00     0.678 A
ATOM     17  H3  UNL     1      42.519  34.018  16.339  1.00  0.00     0.183 HD
HETATM   18  N5  UNL     1      41.145  33.294  19.159  1.00  0.00    -0.156 N
ATOM     19  H5  UNL     1      40.997  33.664  20.098  1.00  0.00     0.187 HD
HETATM   20  O2  UNL     1      40.009  31.439  19.706  1.00  0.00    -0.267 OA
HETATM   21  C17 UNL     1      38.048  29.148  17.100  1.00  0.00     0.132 C
HETATM   22  N12 UNL     1      38.308  27.838  16.813  1.00  0.00    -0.321 N
ATOM     23  H12 UNL     1      37.515  27.255  16.544  1.00  0.00     0.169 HD
BRANCH  16  24
HETATM   24  N4  UNL     1      42.300  35.160  18.564  1.00  0.00    -0.234 N
ATOM     25  H42 UNL     1      42.750  35.741  17.857  1.00  0.00     0.174 HD
ATOM     26  H41 UNL     1      42.244  35.532  19.512  1.00  0.00     0.174 HD
ENDBRANCH  16  24
BRANCH  12  27
HETATM   27  C11 UNL     1      38.490  31.343  16.220  1.00  0.00     0.018 C
HETATM   28  C12 UNL     1      38.221  31.534  14.966  1.00  0.00     0.020 C
BRANCH  28  29
HETATM   29  C13 UNL     1      38.293  30.647  13.831  1.00  0.00     0.107 C
HETATM   30  N6  UNL     1      37.230  30.013  13.381  1.00  0.00    -0.309 N
ATOM     31  H6  UNL     1      37.314  29.392  12.577  1.00  0.00     0.186 HD
BRANCH  30  32
HETATM   32  N7  UNL     1      35.984  30.186  14.001  1.00  0.00    -0.272 N
ATOM     33  H7  UNL     1      35.575  31.120  14.029  1.00  0.00     0.190 HD
BRANCH  32  34
HETATM   34  C14 UNL     1      35.269  29.112  14.590  1.00  0.00     0.190 C
HETATM   35  N8  UNL     1      34.215  29.179  15.343  1.00  0.00    -0.360 N
HETATM   36  C15 UNL     1      33.762  27.884  15.759  1.00  0.00     0.142 C
ATOM     37  H8  UNL     1      33.761  30.053  15.608  1.00  0.00     0.162 HD
HETATM   38  C16 UNL     1      34.481  26.930  14.836  1.00  0.00     0.142 C
HETATM   39  N9  UNL     1      35.625  27.747  14.430  1.00  0.00    -0.360 N
ATOM     40  H9  UNL     1      36.521  27.398  14.091  1.00  0.00     0.162 HD
ENDBRANCH  32  34
ENDBRANCH  30  32
ENDBRANCH  28  29
ENDBRANCH  12  27
BRANCH  21  41
HETATM   41  N10 UNL     1      36.950  29.352  17.694  1.00  0.00    -0.291 N
ATOM     42  H10 UNL     1      36.575  30.301  17.691  1.00  0.00     0.188 HD
BRANCH  41  43
HETATM   43  N11 UNL     1      36.229  28.377  18.345  1.00  0.00    -0.344 N
ATOM     44 2H11 UNL     1      36.619  27.435  18.340  1.00  0.00     0.176 HD
ATOM     45 1H11 UNL     1      35.342  28.542  18.823  1.00  0.00     0.176 HD
ENDBRANCH  41  43
ENDBRANCH  21  41
ENDBRANCH   4   5
ENDBRANCH   3   4
TORSDOF 9
ENDMDL