MODEL 4
REMARK VINA RESULT: -8.843564267      3.832      8.700
REMARK  9 active torsions:
REMARK  status: ('A' for Active; 'I' for Inactive)
REMARK    1  A    between atoms: C2_2  and  C3_4
REMARK    2  A    between atoms: C3_4  and  C4_5
REMARK    3  A    between atoms: C3_4  and  N1_8
REMARK    4  A    between atoms: N1_8  and  C6_11
REMARK    5  A    between atoms: C7_14  and  N4_15
REMARK    6  A    between atoms: N5_18  and  C10_19
REMARK    7  A    between atoms: C11_22  and  N7_23
REMARK    8  A    between atoms: C12_28  and  N9_29
REMARK    9  A    between atoms: C16_39  and  N12_40
ROOT
HETATM    1  N1  UNL     1      41.198  25.209  16.336  1.00  0.00    -0.094 N
HETATM    2  C5  UNL     1      41.564  25.098  14.938  1.00  0.00     0.200 C
HETATM    3  N2  UNL     1      41.850  25.026  13.815  1.00  0.00    -0.171 NA
ENDROOT
BRANCH   1   4
HETATM    4  C3  UNL     1      42.144  25.900  17.123  1.00  0.00     0.288 C
BRANCH   4   5
HETATM    5  C2  UNL     1      41.918  27.272  17.526  1.00  0.00     0.158 C
HETATM    6  C1  UNL     1      42.786  28.206  18.253  1.00  0.00     0.094 C
HETATM    7  O1  UNL     1      40.798  27.758  17.209  1.00  0.00    -0.295 OA
ENDBRANCH   4   5
BRANCH   4   8
HETATM    8  C4  UNL     1      42.531  25.029  18.306  1.00  0.00     0.206 C
HETATM    9  O2  UNL     1      43.492  24.232  18.210  1.00  0.00    -0.646 OA
HETATM   10  O3  UNL     1      41.851  25.084  19.508  1.00  0.00    -0.646 OA
ENDBRANCH   4   8
ENDBRANCH   1   4
BRANCH   1  11
HETATM   11  C6  UNL     1      39.986  24.607  16.642  1.00  0.00     0.724 A
HETATM   12  N3  UNL     1      38.862  25.310  16.833  1.00  0.00    -0.020 N
HETATM   13  C7  UNL     1      37.680  24.721  17.106  1.00  0.00     0.709 A
ATOM     14  H3  UNL     1      38.901  26.327  16.769  1.00  0.00     0.203 HD
HETATM   15  N11 UNL     1      37.662  23.386  17.181  1.00  0.00    -0.022 N
HETATM   16  C16 UNL     1      38.758  22.626  16.999  1.00  0.00     0.705 A
ATOM     17  H11 UNL     1      36.777  22.921  17.386  1.00  0.00     0.203 HD
HETATM   18  N13 UNL     1      39.902  23.272  16.732  1.00  0.00    -0.021 N
ATOM     19  H13 UNL     1      40.748  22.722  16.591  1.00  0.00     0.203 HD
BRANCH  13  20
HETATM   20  N4  UNL     1      36.480  25.443  17.310  1.00  0.00    -0.213 N
HETATM   21  C8  UNL     1      35.233  24.731  17.344  1.00  0.00     0.161 C
HETATM   22  C9  UNL     1      34.012  25.575  17.237  1.00  0.00     0.162 C
HETATM   23  N5  UNL     1      34.220  26.820  16.538  1.00  0.00    -0.209 N
HETATM   24  C13 UNL     1      35.510  27.470  16.448  1.00  0.00     0.116 C
HETATM   25  C14 UNL     1      36.127  27.277  15.080  1.00  0.00     0.034 C
HETATM   26  C15 UNL     1      36.466  26.887  17.489  1.00  0.00     0.166 C
BRANCH  23  27
HETATM   27  C10 UNL     1      33.095  27.426  15.914  1.00  0.00     0.709 A
HETATM   28  N6  UNL     1      33.136  28.693  15.439  1.00  0.00    -0.022 N
HETATM   29  C11 UNL     1      32.088  29.278  14.849  1.00  0.00     0.705 A
ATOM     30  H6  UNL     1      34.002  29.224  15.535  1.00  0.00     0.203 HD
HETATM   31  N8  UNL     1      30.949  28.588  14.721  1.00  0.00    -0.022 N
HETATM   32  C12 UNL     1      30.884  27.324  15.188  1.00  0.00     0.705 A
ATOM     33  H8  UNL     1      30.137  29.014  14.275  1.00  0.00     0.203 HD
HETATM   34  N10 UNL     1      31.943  26.751  15.775  1.00  0.00    -0.022 N
ATOM     35  H10 UNL     1      31.873  25.794  16.120  1.00  0.00     0.203 HD
BRANCH  29  36
HETATM   36  N7  UNL     1      32.132  30.480  14.401  1.00  0.00    -0.234 N
ATOM     37  H72 UNL     1      33.044  30.901  14.225  1.00  0.00     0.174 HD
ATOM     38  H71 UNL     1      31.290  31.026  14.214  1.00  0.00     0.174 HD
ENDBRANCH  29  36
BRANCH  32  39
HETATM   39  N9  UNL     1      29.790  26.656  15.066  1.00  0.00    -0.234 N
ATOM     40  H92 UNL     1      29.342  26.590  14.153  1.00  0.00     0.174 HD
ATOM     41  H91 UNL     1      29.384  26.201  15.883  1.00  0.00     0.174 HD
ENDBRANCH  32  39
ENDBRANCH  23  27
ENDBRANCH  13  20
BRANCH  16  42
HETATM   42  N12 UNL     1      38.677  21.334  17.086  1.00  0.00    -0.234 N
ATOM     43 2H12 UNL     1      38.075  20.857  17.757  1.00  0.00     0.174 HD
ATOM     44 1H12 UNL     1      39.231  20.744  16.467  1.00  0.00     0.174 HD
ENDBRANCH  16  42
ENDBRANCH   1  11
TORSDOF 9
ENDMDL