MODEL 4
REMARK VINA RESULT: -7.489857149      2.030      2.674
REMARK  15 active torsions:
REMARK  status: ('A' for Active; 'I' for Inactive)
REMARK    1  A    between atoms: N1_1  and  C1_5
REMARK    2  A    between atoms: C3_7  and  N2_8
REMARK    3  A    between atoms: C4_12  and  O1_13
REMARK    4  A    between atoms: O1_13  and  N3_14
REMARK    5  A    between atoms: N3_14  and  N4_15
REMARK    6  A    between atoms: N3_14  and  C5_18
REMARK    7  A    between atoms: C5_18  and  O2_19
REMARK    8  A    between atoms: C5_18  and  C6_21
REMARK    9  A    between atoms: C6_21  and  N5_22
REMARK   10  A    between atoms: C6_21  and  C7_26
REMARK   11  A    between atoms: C11_32  and  O3_33
REMARK   12  A    between atoms: O3_33  and  C12_34
REMARK   13  A    between atoms: C15_37  and  N6_38
REMARK   14  A    between atoms: N6_38  and  O4_39
REMARK   15  A    between atoms: C16_41  and  O5_42
ROOT
HETATM    1  C1  UNL     1      39.931  24.155  16.285  1.00  0.00     0.214 C
HETATM    2  C2  UNL     1      41.331  23.914  16.804  1.00  0.00     0.070 C
HETATM    3  C3  UNL     1      42.164  25.141  16.939  1.00  0.00     0.217 C
HETATM    4  C4  UNL     1      41.402  26.324  17.571  1.00  0.00     0.187 C
HETATM    5  C10 UNL     1      40.135  25.697  18.150  1.00  0.00     0.070 C
HETATM    6  C11 UNL     1      39.214  25.240  17.036  1.00  0.00     0.155 C
ENDROOT
BRANCH   4   7
HETATM    7  O1  UNL     1      42.075  26.905  18.544  1.00  0.00    -0.249 OA
BRANCH   7   8
HETATM    8  N3  UNL     1      42.920  27.884  18.495  1.00  0.00    -0.146 N
BRANCH   8   9
HETATM    9  N4  UNL     1      44.314  27.484  18.337  1.00  0.00    -0.317 N
ATOM     10  H42 UNL     1      44.524  26.509  18.549  1.00  0.00     0.179 HD
ATOM     11  H41 UNL     1      44.938  28.224  18.016  1.00  0.00     0.179 HD
ENDBRANCH   8   9
BRANCH   8  12
HETATM   12  C5  UNL     1      42.686  29.252  18.588  1.00  0.00     0.193 C
BRANCH  12  13
HETATM   13  O2  UNL     1      43.370  29.998  19.409  1.00  0.00    -0.345 OA
ATOM     14  H2  UNL     1      44.315  29.929  19.465  1.00  0.00     0.219 HD
ENDBRANCH  12  13
BRANCH  12  15
HETATM   15  C6  UNL     1      41.664  29.968  17.785  1.00  0.00     0.267 C
BRANCH  15  16
HETATM   16  N5  UNL     1      40.479  29.258  17.578  1.00  0.00    -0.067 N
ATOM     17  H53 UNL     1      39.917  29.252  18.429  1.00  0.00     0.275 HD
ATOM     18  H52 UNL     1      39.858  29.779  16.959  1.00  0.00     0.275 HD
ATOM     19  H51 UNL     1      40.606  28.307  17.232  1.00  0.00     0.275 HD
ENDBRANCH  15  16
BRANCH  15  20
HETATM   20  C7  UNL     1      41.522  31.345  18.417  1.00  0.00     0.044 C
HETATM   21  C8  UNL     1      42.005  32.474  17.588  1.00  0.00     0.094 C
HETATM   22  S1  UNL     1      40.662  32.940  16.448  1.00  0.00    -0.097 SA
HETATM   23  S2  UNL     1      39.081  32.256  17.762  1.00  0.00    -0.097 SA
HETATM   24  C9  UNL     1      40.203  31.613  19.037  1.00  0.00     0.094 C
ENDBRANCH  15  20
ENDBRANCH  12  15
ENDBRANCH   8  12
ENDBRANCH   7   8
ENDBRANCH   4   7
BRANCH   3  25
HETATM   25  N2  UNL     1      42.673  25.528  15.644  1.00  0.00    -0.072 N
ATOM     26  H23 UNL     1      41.927  25.652  14.959  1.00  0.00     0.274 HD
ATOM     27  H22 UNL     1      43.033  26.482  15.644  1.00  0.00     0.274 HD
ATOM     28  H21 UNL     1      43.372  24.853  15.333  1.00  0.00     0.274 HD
ENDBRANCH   3  25
BRANCH   6  29
HETATM   29  O3  UNL     1      38.069  24.728  17.587  1.00  0.00    -0.372 OA
BRANCH  29  30
HETATM   30  C12 UNL     1      36.908  25.143  16.968  1.00  0.00     0.175 C
HETATM   31  C13 UNL     1      35.661  24.531  17.434  1.00  0.00     0.005 C
HETATM   32  C14 UNL     1      34.663  25.418  17.212  1.00  0.00    -0.002 C
HETATM   33  C15 UNL     1      35.194  26.658  16.593  1.00  0.00     0.160 C
HETATM   34  C16 UNL     1      36.636  26.621  17.113  1.00  0.00     0.176 C
BRANCH  33  35
HETATM   35  N6  UNL     1      34.508  27.849  17.042  1.00  0.00    -0.092 NA
BRANCH  35  36
HETATM   36  O4  UNL     1      33.768  27.472  18.137  1.00  0.00    -0.295 OA
ATOM     37  H4  UNL     1      32.966  27.980  18.098  1.00  0.00     0.238 HD
ENDBRANCH  35  36
ENDBRANCH  33  35
BRANCH  34  38
HETATM   38  O5  UNL     1      36.592  26.889  18.493  1.00  0.00    -0.391 OA
ATOM     39  H5  UNL     1      36.889  27.785  18.605  1.00  0.00     0.210 HD
ENDBRANCH  34  38
ENDBRANCH  29  30
ENDBRANCH   6  29
BRANCH   1  40
HETATM   40  N1  UNL     1      39.248  22.853  16.382  1.00  0.00    -0.072 N
ATOM     41  H13 UNL     1      38.345  22.897  16.853  1.00  0.00     0.274 HD
ATOM     42  H12 UNL     1      38.901  22.504  15.488  1.00  0.00     0.274 HD
ATOM     43  H11 UNL     1      39.916  22.229  16.835  1.00  0.00     0.274 HD
ENDBRANCH   1  40
TORSDOF 15
ENDMDL