MODEL 3
REMARK VINA RESULT: -9.327652859      2.269     10.215
REMARK  10 active torsions:
REMARK  status: ('A' for Active; 'I' for Inactive)
REMARK    1  A    between atoms: C2_4  and  N2_5
REMARK    2  A    between atoms: C2_4  and  C6_17
REMARK    3  A    between atoms: N2_5  and  C3_7
REMARK       I    between atoms: N4_10  and  C4_11
REMARK    4  A    between atoms: C9_20  and  N7_21
REMARK    5  A    between atoms: N7_21  and  N8_23
REMARK    6  A    between atoms: C10_25  and  C12_27
REMARK    7  A    between atoms: N11_34  and  C14_35
REMARK    8  A    between atoms: C14_35  and  C15_36
REMARK    9  A    between atoms: C15_36  and  O3_37
REMARK   10  A    between atoms: C15_36  and  O4_39
ROOT
HETATM    1  C6  UNL     1      41.658  26.928  17.705  1.00  0.00     0.008 A
HETATM    2  C7  UNL     1      42.880  27.081  18.296  1.00  0.00     0.017 A
HETATM    3  C8  UNL     1      43.323  28.362  18.628  1.00  0.00     0.032 A
HETATM    4  C9  UNL     1      42.588  29.489  18.389  1.00  0.00     0.048 A
HETATM    5  C16 UNL     1      41.362  29.299  17.793  1.00  0.00     0.032 A
HETATM    6  C17 UNL     1      40.884  28.065  17.449  1.00  0.00     0.017 A
ENDROOT
BRANCH   4   7
HETATM    7  N7  UNL     1      43.001  30.804  18.684  1.00  0.00    -0.301 N
ATOM      8  H7  UNL     1      43.562  30.936  19.526  1.00  0.00     0.187 HD
BRANCH   7   9
HETATM    9  N8  UNL     1      42.718  31.914  17.947  1.00  0.00    -0.301 N
HETATM   10  C10 UNL     1      41.777  32.732  17.964  1.00  0.00     0.067 C
HETATM   11  C11 UNL     1      40.696  32.498  18.989  1.00  0.00     0.074 C
ATOM     12  H8  UNL     1      43.420  32.119  17.236  1.00  0.00     0.186 HD
BRANCH  10  13
HETATM   13  C12 UNL     1      41.646  33.886  17.083  1.00  0.00     0.150 A
HETATM   14  N9  UNL     1      40.934  33.851  15.907  1.00  0.00    -0.280 N
HETATM   15  N10 UNL     1      40.956  35.027  15.328  1.00  0.00    -0.249 N
ATOM     16  H9  UNL     1      40.457  33.028  15.539  1.00  0.00     0.189 HD
HETATM   17  C13 UNL     1      41.665  35.855  16.078  1.00  0.00     0.343 A
ATOM     18  H10 UNL     1      40.502  35.264  14.446  1.00  0.00     0.192 HD
HETATM   19  O2  UNL     1      41.945  37.076  15.908  1.00  0.00    -0.245 OA
HETATM   20  N11 UNL     1      42.094  35.141  17.167  1.00  0.00    -0.277 N
BRANCH  20  21
HETATM   21  C14 UNL     1      42.942  35.675  18.204  1.00  0.00     0.196 C
BRANCH  21  22
HETATM   22  C15 UNL     1      42.189  36.094  19.449  1.00  0.00     0.272 C
BRANCH  22  23
HETATM   23  O3  UNL     1      42.577  35.250  20.522  1.00  0.00    -0.370 OA
ATOM     24  H3  UNL     1      43.289  35.666  20.995  1.00  0.00     0.212 HD
ENDBRANCH  22  23
BRANCH  22  25
HETATM   25  O4  UNL     1      40.825  36.102  19.341  1.00  0.00    -0.370 OA
ATOM     26  H4  UNL     1      40.368  36.680  19.941  1.00  0.00     0.212 HD
ENDBRANCH  22  25
ENDBRANCH  21  22
ENDBRANCH  20  21
ENDBRANCH  10  13
ENDBRANCH   7   9
ENDBRANCH   4   7
BRANCH   1  27
HETATM   27  C2  UNL     1      41.149  25.624  17.342  1.00  0.00     0.113 C
HETATM   28  N1  UNL     1      41.256  25.065  16.261  1.00  0.00    -0.380 N
HETATM   29  C1  UNL     1      41.753  25.115  14.980  1.00  0.00     0.147 C
ATOM     30  H1  UNL     1      40.764  24.175  16.345  1.00  0.00     0.160 HD
BRANCH  27  31
HETATM   31  N2  UNL     1      40.398  24.911  18.382  1.00  0.00    -0.312 N
ATOM     32  H2  UNL     1      40.901  24.469  19.152  1.00  0.00     0.170 HD
BRANCH  31  33
HETATM   33  C3  UNL     1      38.980  24.830  18.331  1.00  0.00     0.214 C
HETATM   34  N3  UNL     1      38.098  25.606  17.818  1.00  0.00    -0.247 N
HETATM   35  N4  UNL     1      36.829  25.069  18.042  1.00  0.00    -0.142 N
ATOM     36  H3  UNL     1      38.292  26.478  17.325  1.00  0.00     0.192 HD
HETATM   37  C4  UNL     1      35.618  25.321  17.339  1.00  0.00     0.252 C
HETATM   38  N5  UNL     1      36.974  24.194  19.134  1.00  0.00     0.006 NA
HETATM   39  C5  UNL     1      35.580  26.266  16.194  1.00  0.00     0.121 C
HETATM   40  O1  UNL     1      34.570  24.727  17.702  1.00  0.00    -0.271 OA
HETATM   41  N6  UNL     1      38.276  23.727  18.923  1.00  0.00    -0.252 N
ATOM     42  H6  UNL     1      38.647  22.803  19.143  1.00  0.00     0.187 HD
ENDBRANCH  31  33
ENDBRANCH  27  31
ENDBRANCH   1  27
TORSDOF 10
ENDMDL