MODEL 1
REMARK VINA RESULT: -9.682714665      0.000      0.000
REMARK  10 active torsions:
REMARK  status: ('A' for Active; 'I' for Inactive)
REMARK    1  A    between atoms: C6_9  and  N3_10
REMARK    2  A    between atoms: C7_13  and  N5_14
REMARK    3  A    between atoms: C8_19  and  N7_20
REMARK    4  A    between atoms: N8_23  and  C9_24
REMARK    5  A    between atoms: C9_24  and  C10_25
REMARK    6  A    between atoms: C10_25  and  C11_26
REMARK    7  A    between atoms: C11_26  and  C12_27
REMARK    8  A    between atoms: C12_27  and  O1_28
REMARK    9  A    between atoms: C12_27  and  C13_30
REMARK       I    between atoms: C13_30  and  N9_32
REMARK   10  A    between atoms: N9_32  and  C14_34
ROOT
HETATM    1  C1  UNL     1      32.861  28.048  15.844  1.00  0.00     0.157 C
HETATM    2  N1  UNL     1      34.325  28.091  15.954  1.00  0.00    -0.344 N
HETATM    3  C2  UNL     1      35.132  29.115  15.626  1.00  0.00     0.184 A
HETATM    4  N2  UNL     1      36.410  28.773  15.870  1.00  0.00    -0.336 N
ATOM      5  H2  UNL     1      37.224  29.368  15.709  1.00  0.00     0.168 HD
HETATM    6  C3  UNL     1      36.442  27.510  16.364  1.00  0.00     0.137 A
HETATM    7  C4  UNL     1      35.124  27.102  16.408  1.00  0.00     0.083 A
HETATM    8  C5  UNL     1      35.127  25.816  16.909  1.00  0.00     0.085 A
HETATM    9  C6  UNL     1      36.431  25.449  17.164  1.00  0.00     0.152 A
HETATM   10  N8  UNL     1      37.202  26.497  16.824  1.00  0.00    -0.315 N
ENDROOT
BRANCH  10  11
HETATM   11  C9  UNL     1      38.648  26.503  16.946  1.00  0.00     0.132 C
BRANCH  11  12
HETATM   12  C10 UNL     1      39.350  26.023  15.720  1.00  0.00     0.023 C
BRANCH  12  13
HETATM   13  C11 UNL     1      40.828  26.296  15.752  1.00  0.00     0.043 C
BRANCH  13  14
HETATM   14  C12 UNL     1      41.602  24.990  15.918  1.00  0.00     0.211 C
BRANCH  14  15
HETATM   15  O1  UNL     1      40.787  23.908  15.673  1.00  0.00    -0.386 OA
ATOM     16  H1  UNL     1      40.661  23.398  16.464  1.00  0.00     0.210 HD
ENDBRANCH  14  15
BRANCH  14  17
HETATM   17  C13 UNL     1      42.189  24.953  17.272  1.00  0.00     0.264 C
HETATM   18  O2  UNL     1      42.959  24.020  17.613  1.00  0.00    -0.270 OA
HETATM   19  N9  UNL     1      41.913  25.961  18.234  1.00  0.00    -0.156 N
ATOM     20  H9  UNL     1      41.017  25.989  18.720  1.00  0.00     0.187 HD
BRANCH  19  21
HETATM   21  C14 UNL     1      42.829  26.841  18.478  1.00  0.00     0.704 A
HETATM   22  N10 UNL     1      44.114  26.648  18.827  1.00  0.00    -0.129 N
HETATM   23  N11 UNL     1      44.636  27.850  18.963  1.00  0.00    -0.256 N
ATOM     24  H10 UNL     1      44.587  25.754  18.959  1.00  0.00     0.205 HD
HETATM   25  C15 UNL     1      43.729  28.810  18.712  1.00  0.00     0.212 A
ATOM     26  H11 UNL     1      45.606  28.029  19.225  1.00  0.00     0.190 HD
HETATM   27  N12 UNL     1      42.585  28.174  18.406  1.00  0.00    -0.148 N
HETATM   28  N13 UNL     1      43.507  30.231  18.646  1.00  0.00    -0.359 N
HETATM   29  C16 UNL     1      41.546  29.160  18.121  1.00  0.00     0.170 C
HETATM   30  C17 UNL     1      42.075  30.389  18.835  1.00  0.00     0.143 C
ATOM     31  H13 UNL     1      44.201  30.965  18.500  1.00  0.00     0.162 HD
ENDBRANCH  19  21
ENDBRANCH  14  17
ENDBRANCH  13  14
ENDBRANCH  12  13
ENDBRANCH  11  12
ENDBRANCH  10  11
BRANCH   9  32
HETATM   32  N3  UNL     1      36.900  24.192  17.694  1.00  0.00    -0.055 N
HETATM   33  N4  UNL     1      36.820  23.036  17.071  1.00  0.00    -0.109 N
HETATM   34  C7  UNL     1      37.352  22.103  17.866  1.00  0.00     0.706 A
ATOM     35  H4  UNL     1      36.421  22.880  16.146  1.00  0.00     0.207 HD
HETATM   36  N6  UNL     1      37.771  22.680  18.998  1.00  0.00    -0.020 N
HETATM   37  C8  UNL     1      37.486  23.973  18.880  1.00  0.00     0.714 A
ATOM     38  H6  UNL     1      38.220  22.221  19.791  1.00  0.00     0.203 HD
BRANCH  34  39
HETATM   39  N5  UNL     1      37.452  20.856  17.596  1.00  0.00    -0.233 N
ATOM     40  H52 UNL     1      36.731  20.157  17.782  1.00  0.00     0.174 HD
ATOM     41  H51 UNL     1      38.256  20.399  17.166  1.00  0.00     0.174 HD
ENDBRANCH  34  39
BRANCH  37  42
HETATM   42  N7  UNL     1      37.746  24.875  19.794  1.00  0.00    -0.232 N
ATOM     43  H72 UNL     1      38.685  25.146  20.085  1.00  0.00     0.174 HD
ATOM     44  H71 UNL     1      37.059  25.411  20.324  1.00  0.00     0.174 HD
ENDBRANCH  37  42
ENDBRANCH   9  32
TORSDOF 10
ENDMDL