MODEL 4
REMARK VINA RESULT: -8.382526248      4.100      9.701
REMARK  8 active torsions:
REMARK  status: ('A' for Active; 'I' for Inactive)
REMARK    1  A    between atoms: C4_6  and  S1_7
REMARK    2  A    between atoms: S1_7  and  N2_8
REMARK    3  A    between atoms: N2_8  and  N3_9
REMARK    4  A    between atoms: C6_13  and  C7_14
REMARK       I    between atoms: C7_14  and  N4_16
REMARK    5  A    between atoms: N4_16  and  N5_18
REMARK    6  A    between atoms: N5_18  and  C8_20
REMARK    7  A    between atoms: C10_22  and  C11_23
REMARK       I    between atoms: C11_23  and  N6_25
REMARK    8  A    between atoms: N6_25  and  C12_27
ROOT
HETATM    1  C1  UNL     1      42.249  34.161  17.625  1.00  0.00     0.164 C
HETATM    2  N1  UNL     1      41.312  33.104  17.313  1.00  0.00    -0.270 N
HETATM    3  C2  UNL     1      41.600  31.813  17.603  1.00  0.00     0.266 A
HETATM    4  O1  UNL     1      42.714  31.553  18.172  1.00  0.00    -0.267 OA
HETATM    5  C3  UNL     1      40.723  30.799  17.294  1.00  0.00     0.095 A
HETATM    6  C4  UNL     1      41.002  29.482  17.565  1.00  0.00     0.041 A
HETATM    7  C5  UNL     1      40.106  28.463  17.234  1.00  0.00     0.056 A
HETATM    8  C6  UNL     1      38.918  28.760  16.623  1.00  0.00     0.105 A
HETATM    9  N8  UNL     1      38.653  30.057  16.361  1.00  0.00    -0.337 N
ATOM     10  H8  UNL     1      37.771  30.293  15.907  1.00  0.00     0.167 HD
HETATM   11  C14 UNL     1      39.506  31.055  16.675  1.00  0.00     0.129 A
HETATM   12  N9  UNL     1      39.252  32.352  16.403  1.00  0.00    -0.289 N
HETATM   13  C15 UNL     1      37.987  32.664  15.755  1.00  0.00     0.163 C
HETATM   14  C16 UNL     1      40.134  33.334  16.716  1.00  0.00     0.332 A
HETATM   15  O5  UNL     1      39.808  34.517  16.423  1.00  0.00    -0.246 OA
ENDROOT
BRANCH   8  16
HETATM   16  C7  UNL     1      37.946  27.716  16.223  1.00  0.00     0.286 C
HETATM   17  O2  UNL     1      38.079  27.241  15.059  1.00  0.00    -0.264 OA
HETATM   18  N4  UNL     1      36.929  27.261  17.062  1.00  0.00    -0.263 N
ATOM     19  H4  UNL     1      36.864  27.690  17.985  1.00  0.00     0.190 HD
BRANCH  18  20
HETATM   20  N5  UNL     1      36.022  26.304  16.767  1.00  0.00    -0.283 N
ATOM     21  H5  UNL     1      35.254  26.579  16.155  1.00  0.00     0.188 HD
BRANCH  20  22
HETATM   22  C8  UNL     1      36.024  24.973  17.212  1.00  0.00     0.120 A
HETATM   23  C9  UNL     1      37.173  24.152  17.220  1.00  0.00     0.068 A
HETATM   24  C10 UNL     1      36.815  22.888  17.687  1.00  0.00     0.051 A
HETATM   25  C13 UNL     1      35.478  22.945  17.955  1.00  0.00     0.106 A
HETATM   26  N7  UNL     1      35.053  24.192  17.659  1.00  0.00    -0.350 N
ATOM     27  H7  UNL     1      34.087  24.499  17.769  1.00  0.00     0.166 HD
BRANCH  24  28
HETATM   28  C11 UNL     1      37.744  21.780  17.775  1.00  0.00     0.259 C
HETATM   29  O3  UNL     1      38.904  21.910  17.350  1.00  0.00    -0.267 OA
HETATM   30  N6  UNL     1      37.322  20.570  18.344  1.00  0.00    -0.301 N
ATOM     31  H6  UNL     1      36.354  20.470  18.650  1.00  0.00     0.171 HD
BRANCH  30  32
HETATM   32  C12 UNL     1      38.216  19.488  18.499  1.00  0.00     0.355 C
HETATM   33  O4  UNL     1      38.828  19.402  19.616  1.00  0.00    -0.283 OA
ENDBRANCH  30  32
ENDBRANCH  24  28
ENDBRANCH  20  22
ENDBRANCH  18  20
ENDBRANCH   8  16
BRANCH   6  34
HETATM   34  S1  UNL     1      42.567  29.150  18.371  1.00  0.00    -0.000 SA
BRANCH  34  35
HETATM   35  N2  UNL     1      42.960  27.471  18.013  1.00  0.00    -0.068 NA
BRANCH  35  36
HETATM   36  N3  UNL     1      44.235  27.105  18.395  1.00  0.00    -0.337 N
ATOM     37  H32 UNL     1      45.067  27.575  18.036  1.00  0.00     0.173 HD
ATOM     38  H31 UNL     1      44.258  26.332  19.060  1.00  0.00     0.173 HD
ENDBRANCH  35  36
ENDBRANCH  34  35
ENDBRANCH   6  34
TORSDOF 8
ENDMDL