MODEL 2
REMARK VINA RESULT: -10.099927089      1.037      1.151
REMARK  8 active torsions:
REMARK  status: ('A' for Active; 'I' for Inactive)
REMARK    1  A    between atoms: N1_2  and  S1_4
REMARK    2  A    between atoms: S1_4  and  N2_7
REMARK       I    between atoms: N2_7  and  C2_9
REMARK       I    between atoms: C2_9  and  N3_11
REMARK    3  A    between atoms: N3_11  and  C3_12
REMARK    4  A    between atoms: C3_12  and  C4_13
REMARK    5  A    between atoms: C5_14  and  O4_15
REMARK    6  A    between atoms: N4_17  and  C6_18
REMARK    7  A    between atoms: C9_21  and  O5_22
REMARK    8  A    between atoms: N5_28  and  C13_29
ROOT
HETATM    1  C4  UNL     1      38.952  25.347  17.003  1.00  0.00     0.126 A
HETATM    2  C5  UNL     1      39.692  26.448  17.515  1.00  0.00     0.181 A
HETATM    3  N4  UNL     1      40.884  26.027  17.897  1.00  0.00    -0.241 N
HETATM    4  C12 UNL     1      40.925  24.753  17.687  1.00  0.00     0.342 A
HETATM    5  O6  UNL     1      41.856  23.916  17.875  1.00  0.00    -0.245 OA
HETATM    6  N5  UNL     1      39.734  24.315  17.141  1.00  0.00    -0.237 N
ENDROOT
BRANCH   1   7
HETATM    7  C3  UNL     1      37.634  25.638  16.485  1.00  0.00     0.222 C
BRANCH   7   8
HETATM    8  N3  UNL     1      36.350  25.682  16.561  1.00  0.00    -0.362 NA
HETATM    9  C2  UNL     1      34.974  25.729  16.644  1.00  0.00     0.408 C
HETATM   10  N2  UNL     1      34.377  26.134  15.391  1.00  0.00    -0.207 N
HETATM   11  O3  UNL     1      34.334  25.452  17.601  1.00  0.00    -0.229 OA
ATOM     12  H2  UNL     1      35.130  26.422  14.765  1.00  0.00     0.186 HD
BRANCH  10  13
HETATM   13  S1  UNL     1      32.932  26.313  14.570  1.00  0.00     0.323 S
HETATM   14  O1  UNL     1      31.769  26.557  15.533  1.00  0.00    -0.182 OA
HETATM   15  O2  UNL     1      32.529  25.236  13.561  1.00  0.00    -0.182 OA
BRANCH  13  16
HETATM   16  N1  UNL     1      33.106  27.854  13.689  1.00  0.00    -0.307 N
HETATM   17  C1  UNL     1      34.460  28.292  13.930  1.00  0.00     0.161 C
ATOM     18  H1  UNL     1      32.396  28.327  13.130  1.00  0.00     0.173 HD
ENDBRANCH  13  16
ENDBRANCH  10  13
ENDBRANCH   7   8
ENDBRANCH   1   7
BRANCH   2  19
HETATM   19  O4  UNL     1      39.270  27.806  17.645  1.00  0.00    -0.344 OA
ATOM     20  H4  UNL     1      38.811  28.208  18.374  1.00  0.00     0.219 HD
ENDBRANCH   2  19
BRANCH   6  21
HETATM   21  C13 UNL     1      39.430  22.991  16.844  1.00  0.00     0.184 A
HETATM   22  N6  UNL     1      39.896  22.111  16.053  1.00  0.00    -0.221 N
HETATM   23  O7  UNL     1      39.388  20.901  16.217  1.00  0.00    -0.153 OA
ATOM     24  H6  UNL     1      40.603  22.321  15.349  1.00  0.00     0.198 HD
HETATM   25  N7  UNL     1      38.541  20.950  17.191  1.00  0.00    -0.222 N
HETATM   26  C14 UNL     1      38.507  22.238  17.663  1.00  0.00     0.168 A
ATOM     27  H7  UNL     1      37.993  20.166  17.547  1.00  0.00     0.198 HD
HETATM   28  N8  UNL     1      37.760  22.682  18.586  1.00  0.00    -0.381 N
ATOM     29  H82 UNL     1      37.735  23.639  18.937  1.00  0.00     0.157 HD
ATOM     30  H81 UNL     1      37.109  22.150  19.163  1.00  0.00     0.157 HD
ENDBRANCH   6  21
BRANCH   3  31
HETATM   31  C6  UNL     1      41.979  26.866  18.240  1.00  0.00     0.046 A
HETATM   32  C7  UNL     1      42.182  28.163  18.053  1.00  0.00     0.033 A
HETATM   33  C8  UNL     1      43.349  28.769  18.410  1.00  0.00     0.039 A
HETATM   34  C9  UNL     1      44.369  28.037  19.002  1.00  0.00     0.065 A
HETATM   35  C10 UNL     1      44.200  26.686  19.229  1.00  0.00     0.039 A
HETATM   36  C11 UNL     1      43.019  26.066  18.853  1.00  0.00     0.033 A
BRANCH  34  37
HETATM   37  O5  UNL     1      45.609  28.616  19.391  1.00  0.00    -0.361 OA
ATOM     38  H5  UNL     1      46.444  28.334  19.035  1.00  0.00     0.217 HD
ENDBRANCH  34  37
ENDBRANCH   3  31
TORSDOF 8
ENDMDL