MODEL 3
REMARK VINA RESULT: -3.141834014     10.877     11.589
REMARK  3 active torsions:
REMARK  status: ('A' for Active; 'I' for Inactive)
REMARK    1  A    between atoms: N1_2  and  N2_4
REMARK    2  A    between atoms: N1_2  and  C3_8
REMARK    3  A    between atoms: N2_4  and  N3_5
ROOT
HETATM    1  C1  UNL     1      81.416  36.483  23.277  1.00  0.00     0.299 C
HETATM    2  N1  UNL     1      80.282  36.596  24.153  1.00  0.00     0.025 N
HETATM    3  C2  UNL     1      80.550  35.692  25.283  1.00  0.00     0.299 C
ENDROOT
BRANCH   2   4
HETATM    4  N2  UNL     1      79.175  36.078  23.495  1.00  0.00     0.065 NA
BRANCH   4   5
HETATM    5  N3  UNL     1      79.368  35.818  22.159  1.00  0.00    -0.323 N
ATOM      6  H32 UNL     1      80.242  35.424  21.809  1.00  0.00     0.174 HD
ATOM      7  H31 UNL     1      78.576  36.049  21.559  1.00  0.00     0.174 HD
ENDBRANCH   4   5
ENDBRANCH   2   4
BRANCH   2   8
HETATM    8  C3  UNL     1      80.086  37.900  24.706  1.00  0.00     0.212 A
HETATM    9  C4  UNL     1      80.294  38.202  26.142  1.00  0.00     0.037 A
HETATM   10  C5  UNL     1      81.192  38.802  25.072  1.00  0.00     0.037 A
ENDBRANCH   2   8
TORSDOF 3
ENDMDL