MODEL 2
REMARK VINA RESULT: -3.363828093      7.944      9.286
REMARK  2 active torsions:
REMARK  status: ('A' for Active; 'I' for Inactive)
REMARK    1  A    between atoms: C2_4  and  N2_5
REMARK    2  A    between atoms: N2_5  and  N3_7
ROOT
HETATM    1  C1  UNL     1      75.368  43.041  24.949  1.00  0.00     0.146 C
HETATM    2  N1  UNL     1      74.492  44.109  25.340  1.00  0.00    -0.394 N
ATOM      3  H1  UNL     1      74.836  45.064  25.444  1.00  0.00     0.159 HD
HETATM    4  C2  UNL     1      73.278  43.821  25.549  1.00  0.00     0.162 C
ENDROOT
BRANCH   4   5
HETATM    5  N2  UNL     1      72.291  44.777  25.943  1.00  0.00    -0.201 NA
HETATM    6  C3  UNL     1      72.034  45.631  24.798  1.00  0.00     0.139 C
BRANCH   5   7
HETATM    7  N3  UNL     1      72.880  45.517  26.978  1.00  0.00    -0.165 NA
HETATM    8  C4  UNL     1      72.521  46.902  26.947  1.00  0.00     0.153 C
ENDBRANCH   5   7
ENDBRANCH   4   5
TORSDOF 2
ENDMDL