MODEL 4
REMARK VINA RESULT: -3.616985601     10.470     11.139
REMARK  1 active torsions:
REMARK  status: ('A' for Active; 'I' for Inactive)
REMARK    1  A    between atoms: C2_2  and  C3_4
REMARK       I    between atoms: C3_4  and  N1_6
ROOT
HETATM    1  C3  UNL     1      80.667  36.674  25.302  1.00  0.00     0.293 C
HETATM    2  O2  UNL     1      81.809  36.295  24.949  1.00  0.00    -0.264 OA
HETATM    3  N1  UNL     1      80.223  36.685  26.637  1.00  0.00    -0.297 N
ATOM      4  H1  UNL     1      79.641  35.906  26.946  1.00  0.00     0.171 HD
HETATM    5  C4  UNL     1      80.493  37.603  27.498  1.00  0.00     0.203 C
HETATM    6  N2  UNL     1      79.959  37.450  28.802  1.00  0.00    -0.066 NA
HETATM    7  N3  UNL     1      81.289  38.739  27.208  1.00  0.00    -0.066 NA
ENDROOT
BRANCH   1   8
HETATM    8  C2  UNL     1      79.749  37.128  24.263  1.00  0.00     0.212 C
HETATM    9  C1  UNL     1      79.279  36.214  23.172  1.00  0.00     0.102 C
HETATM   10  O1  UNL     1      79.301  38.305  24.221  1.00  0.00    -0.288 OA
ENDBRANCH   1   8
TORSDOF 1
ENDMDL