MODEL 2
REMARK VINA RESULT: -5.069091419      9.015      9.784
REMARK  1 active torsions:
REMARK  status: ('A' for Active; 'I' for Inactive)
REMARK    1  A    between atoms: C2_2  and  C3_3
REMARK       I    between atoms: C3_3  and  N1_5
ROOT
HETATM    1  C3  UNL     1      68.369  44.084  18.672  1.00  0.00     0.246 C
HETATM    2  O1  UNL     1      68.711  44.627  19.758  1.00  0.00    -0.268 OA
HETATM    3  N1  UNL     1      68.845  42.789  18.346  1.00  0.00    -0.300 N
ATOM      4  H1  UNL     1      69.317  42.667  17.451  1.00  0.00     0.171 HD
HETATM    5  C4  UNL     1      68.720  41.766  19.099  1.00  0.00     0.203 C
HETATM    6  N2  UNL     1      68.068  41.920  20.337  1.00  0.00    -0.066 NA
HETATM    7  N3  UNL     1      69.237  40.534  18.656  1.00  0.00    -0.066 NA
ENDROOT
BRANCH   1   8
HETATM    8  C2  UNL     1      67.490  44.736  17.712  1.00  0.00     0.064 C
HETATM    9  C1  UNL     1      66.673  45.703  18.088  1.00  0.00     0.017 C
ENDBRANCH   1   8
TORSDOF 1
ENDMDL