MODEL 3
REMARK VINA RESULT: -4.338609254      1.918      4.200
REMARK  2 active torsions:
REMARK  status: ('A' for Active; 'I' for Inactive)
REMARK       I    between atoms: C1_2  and  N2_4
REMARK    1  A    between atoms: N2_4  and  C2_6
REMARK    2  A    between atoms: C4_8  and  O2_9
ROOT
HETATM    1  C2  UNL     1      72.944  45.328  26.110  1.00  0.00     0.117 A
HETATM    2  C3  UNL     1      72.568  45.675  27.560  1.00  0.00     0.061 A
HETATM    3  C4  UNL     1      72.915  46.726  26.556  1.00  0.00     0.143 A
ENDROOT
BRANCH   1   4
HETATM    4  N2  UNL     1      74.139  44.559  25.985  1.00  0.00    -0.338 N
HETATM    5  C1  UNL     1      74.274  43.417  25.153  1.00  0.00     0.329 C
HETATM    6  N1  UNL     1      75.444  42.659  25.027  1.00  0.00    -0.040 NA
HETATM    7  O1  UNL     1      73.246  43.074  24.480  1.00  0.00    -0.251 OA
ATOM      8  H2  UNL     1      74.950  44.848  26.530  1.00  0.00     0.164 HD
ENDBRANCH   1   4
BRANCH   3   9
HETATM    9  O2  UNL     1      71.826  47.499  26.126  1.00  0.00    -0.393 OA
ATOM     10  H2  UNL     1      71.828  48.415  26.379  1.00  0.00     0.210 HD
ENDBRANCH   3   9
TORSDOF 2
ENDMDL