MODEL 5
REMARK VINA RESULT: -3.793558929      2.215      3.522
REMARK  2 active torsions:
REMARK  status: ('A' for Active; 'I' for Inactive)
REMARK    1  A    between atoms: C1_2  and  C2_4
REMARK    2  A    between atoms: C4_6  and  C5_7
ROOT
HETATM    1  C2  UNL     1      68.240  44.187  19.215  1.00  0.00     0.086 A
HETATM    2  C3  UNL     1      69.594  43.785  18.783  1.00  0.00     0.026 A
HETATM    3  C4  UNL     1      68.654  42.818  19.541  1.00  0.00     0.060 A
ENDROOT
BRANCH   1   4
HETATM    4  C1  UNL     1      67.219  44.538  18.220  1.00  0.00     0.236 C
HETATM    5  N1  UNL     1      66.990  45.851  17.712  1.00  0.00    -0.062 NA
HETATM    6  O1  UNL     1      66.428  43.665  17.713  1.00  0.00    -0.276 OA
ENDBRANCH   1   4
BRANCH   3   7
HETATM    7  C5  UNL     1      68.335  41.626  18.762  1.00  0.00     0.236 C
HETATM    8  O2  UNL     1      69.088  40.667  18.803  1.00  0.00    -0.306 OA
ENDBRANCH   3   7
TORSDOF 2
ENDMDL