MODEL 4
REMARK VINA RESULT: -4.852233651      1.477      1.649
REMARK  2 active torsions:
REMARK  status: ('A' for Active; 'I' for Inactive)
REMARK       I    between atoms: C1_2  and  N1_3
REMARK       I    between atoms: C1_2  and  N2_7
REMARK    1  A    between atoms: N1_3  and  O2_5
REMARK    2  A    between atoms: N2_7  and  C2_9
ROOT
HETATM    1  O1  UNL     1      72.433  45.999  28.038  1.00  0.00    -0.245 OA
HETATM    2  C1  UNL     1      72.832  46.583  27.008  1.00  0.00     0.340 C
HETATM    3  N1  UNL     1      73.198  47.937  27.035  1.00  0.00    -0.219 N
ATOM      4  H1  UNL     1      73.516  48.364  26.166  1.00  0.00     0.199 HD
HETATM    5  N2  UNL     1      72.904  45.844  25.811  1.00  0.00    -0.337 N
ATOM      6  H2  UNL     1      73.229  46.318  24.968  1.00  0.00     0.164 HD
ENDROOT
BRANCH   3   7
HETATM    7  O2  UNL     1      73.155  48.708  28.142  1.00  0.00    -0.286 OA
ATOM      8  H2  UNL     1      73.843  49.312  28.396  1.00  0.00     0.244 HD
ENDBRANCH   3   7
BRANCH   5   9
HETATM    9  C2  UNL     1      72.539  44.440  25.717  1.00  0.00     0.086 A
HETATM   10  C3  UNL     1      72.940  43.788  24.396  1.00  0.00     0.027 A
HETATM   11  C4  UNL     1      73.553  43.381  25.677  1.00  0.00     0.027 A
ENDBRANCH   5   9
TORSDOF 2
ENDMDL