MODEL 2
REMARK VINA RESULT: -4.259924371      8.237      8.846
REMARK  3 active torsions:
REMARK  status: ('A' for Active; 'I' for Inactive)
REMARK    1  A    between atoms: C2_2  and  N1_3
REMARK    2  A    between atoms: C2_2  and  C3_7
REMARK    3  A    between atoms: C2_2  and  C4_9
ROOT
HETATM    1  C1  UNL     1      69.950  43.815  18.836  1.00  0.00     0.054 C
HETATM    2  C2  UNL     1      68.418  43.863  18.878  1.00  0.00     0.175 C
ENDROOT
BRANCH   2   3
HETATM    3  N1  UNL     1      68.036  44.552  20.080  1.00  0.00    -0.064 N
ATOM      4  H13 UNL     1      68.002  43.940  20.895  1.00  0.00     0.275 HD
ATOM      5  H12 UNL     1      68.757  45.187  20.419  1.00  0.00     0.275 HD
ATOM      6  H11 UNL     1      67.147  45.020  19.899  1.00  0.00     0.275 HD
ENDBRANCH   2   3
BRANCH   2   7
HETATM    7  C3  UNL     1      67.942  44.620  17.712  1.00  0.00     0.269 C
HETATM    8  O1  UNL     1      67.137  45.529  17.829  1.00  0.00    -0.304 OA
ENDBRANCH   2   7
BRANCH   2   9
HETATM    9  C4  UNL     1      67.957  42.422  18.867  1.00  0.00     0.028 A
HETATM   10  C5  UNL     1      68.308  41.677  20.156  1.00  0.00     0.008 A
HETATM   11  C6  UNL     1      68.920  41.305  18.836  1.00  0.00     0.008 A
ENDBRANCH   2   9
TORSDOF 3
ENDMDL