MODEL 3
REMARK VINA RESULT: -4.970707376      1.169      1.396
REMARK  2 active torsions:
REMARK  status: ('A' for Active; 'I' for Inactive)
REMARK    1  A    between atoms: C1_2  and  N1_3
REMARK       I    between atoms: N1_3  and  C2_5
REMARK    2  A    between atoms: C2_5  and  C3_7
ROOT
HETATM    1  N1  UNL     1      73.127  45.738  26.747  1.00  0.00    -0.305 N
ATOM      2  H1  UNL     1      73.762  45.496  27.508  1.00  0.00     0.171 HD
HETATM    3  C2  UNL     1      72.847  44.798  25.709  1.00  0.00     0.227 C
HETATM    4  O2  UNL     1      72.058  45.124  24.781  1.00  0.00    -0.273 OA
ENDROOT
BRANCH   3   5
HETATM    5  C3  UNL     1      73.450  43.449  25.682  1.00  0.00     0.078 A
HETATM    6  C4  UNL     1      73.782  42.937  24.261  1.00  0.00     0.015 A
HETATM    7  C5  UNL     1      74.849  43.257  25.221  1.00  0.00     0.015 A
ENDBRANCH   3   5
BRANCH   1   8
HETATM    8  C1  UNL     1      72.510  47.007  26.702  1.00  0.00     0.355 C
HETATM    9  O1  UNL     1      72.956  47.989  27.357  1.00  0.00    -0.283 OA
ENDBRANCH   1   8
TORSDOF 2
ENDMDL