MODEL 2
REMARK VINA RESULT: -7.811229945      2.967      9.512
REMARK  16 active torsions:
REMARK  status: ('A' for Active; 'I' for Inactive)
REMARK    1  A    between atoms: C2_2  and  O2_4
REMARK    2  A    between atoms: O2_4  and  C3_5
REMARK    3  A    between atoms: C3_5  and  C4_6
REMARK    4  A    between atoms: C5_7  and  O3_8
REMARK    5  A    between atoms: O3_8  and  C6_9
REMARK    6  A    between atoms: C6_9  and  C7_11
REMARK    7  A    between atoms: C8_13  and  N1_14
REMARK    8  A    between atoms: C11_21  and  C12_22
REMARK    9  A    between atoms: C13_25  and  O9_26
REMARK   10  A    between atoms: C14_28  and  C15_29
REMARK   11  A    between atoms: C15_29  and  C16_30
REMARK   12  A    between atoms: C17_33  and  C18_34
REMARK   13  A    between atoms: C20_38  and  O14_39
REMARK   14  A    between atoms: C20_38  and  C21_41
REMARK   15  A    between atoms: C22_44  and  O17_45
REMARK   16  A    between atoms: O17_45  and  C23_46
ROOT
HETATM    1  C4  UNL     1      -2.392 -22.036  18.331  1.00  0.00     0.075 C
HETATM    2  C5  UNL     1      -1.747 -21.948  16.942  1.00  0.00     0.164 C
HETATM    3  C8  UNL     1      -0.528 -22.683  16.665  1.00  0.00     0.133 C
HETATM    4  C19 UNL     1      -0.113 -23.674  17.720  1.00  0.00     0.080 C
HETATM    5  C20 UNL     1      -1.164 -24.232  18.600  1.00  0.00     0.174 C
HETATM    6  C22 UNL     1      -1.980 -23.124  19.202  1.00  0.00     0.185 C
ENDROOT
BRANCH   3   7
HETATM    7  N1  UNL     1       0.671 -21.982  16.242  1.00  0.00    -0.241 N
HETATM    8  C9  UNL     1       0.860 -20.744  15.733  1.00  0.00     0.353 A
HETATM    9  O5  UNL     1      -0.033 -19.921  15.543  1.00  0.00    -0.244 OA
HETATM   10  N2  UNL     1       2.161 -20.487  15.438  1.00  0.00    -0.191 N
HETATM   11  N3  UNL     1       2.770 -21.611  15.786  1.00  0.00    -0.213 N
HETATM   12  C17 UNL     1       2.855 -19.377  14.820  1.00  0.00     0.143 C
HETATM   13  C10 UNL     1       1.897 -22.514  16.266  1.00  0.00     0.349 A
HETATM   14  C11 UNL     1       4.233 -21.778  15.692  1.00  0.00     0.247 C
HETATM   15  O6  UNL     1       2.316 -23.661  16.649  1.00  0.00    -0.245 OA
HETATM   16  C13 UNL     1       4.881 -20.726  14.916  1.00  0.00     0.185 C
HETATM   17  C14 UNL     1       4.132 -19.510  14.591  1.00  0.00    -0.003 C
BRANCH  14  18
HETATM   18  C12 UNL     1       4.585 -23.143  15.237  1.00  0.00     0.202 C
HETATM   19  O7  UNL     1       5.194 -23.932  15.990  1.00  0.00    -0.646 OA
HETATM   20  O8  UNL     1       4.247 -23.560  13.981  1.00  0.00    -0.646 OA
ENDBRANCH  14  18
BRANCH  16  21
HETATM   21  O9  UNL     1       5.409 -21.244  13.701  1.00  0.00    -0.388 OA
ATOM     22  H9  UNL     1       5.335 -20.607  13.001  1.00  0.00     0.210 HD
ENDBRANCH  16  21
BRANCH  17  23
HETATM   23  C15 UNL     1       4.962 -18.379  14.075  1.00  0.00     0.152 C
BRANCH  23  24
HETATM   24  C16 UNL     1       5.684 -17.619  15.089  1.00  0.00     0.176 C
HETATM   25  O10 UNL     1       6.930 -17.731  15.199  1.00  0.00    -0.648 OA
HETATM   26  O11 UNL     1       5.057 -16.756  15.958  1.00  0.00    -0.648 OA
ENDBRANCH  23  24
ENDBRANCH  17  23
BRANCH  12  27
HETATM   27  C18 UNL     1       2.123 -18.195  14.413  1.00  0.00     0.229 C
HETATM   28  O12 UNL     1       1.700 -17.913  13.261  1.00  0.00    -0.643 OA
HETATM   29  O13 UNL     1       1.810 -17.181  15.333  1.00  0.00    -0.643 OA
ENDBRANCH  12  27
ENDBRANCH   3   7
BRANCH   2  30
HETATM   30  O3  UNL     1      -2.790 -22.115  16.065  1.00  0.00    -0.313 OA
BRANCH  30  31
HETATM   31  C6  UNL     1      -3.044 -22.089  14.773  1.00  0.00     0.269 C
HETATM   32  O4  UNL     1      -3.151 -20.935  14.266  1.00  0.00    -0.264 OA
BRANCH  31  33
HETATM   33  C7  UNL     1      -3.196 -23.323  13.973  1.00  0.00     0.197 C
HETATM   34  S1  UNL     1      -1.622 -23.659  13.136  1.00  0.00    -0.087 SA
ENDBRANCH  31  33
ENDBRANCH  30  31
ENDBRANCH   2  30
BRANCH   1  35
HETATM   35  C3  UNL     1      -3.894 -21.949  18.229  1.00  0.00     0.188 C
BRANCH  35  36
HETATM   36  O2  UNL     1      -4.451 -20.981  19.094  1.00  0.00    -0.321 OA
BRANCH  36  37
HETATM   37  C2  UNL     1      -5.841 -20.914  19.249  1.00  0.00     0.254 C
HETATM   38  C1  UNL     1      -6.412 -20.773  20.585  1.00  0.00     0.126 C
HETATM   39  O1  UNL     1      -6.527 -20.980  18.188  1.00  0.00    -0.266 OA
ENDBRANCH  36  37
ENDBRANCH  35  36
ENDBRANCH   1  35
BRANCH   5  40
HETATM   40  O14 UNL     1      -0.437 -24.785  19.717  1.00  0.00    -0.376 OA
ATOM     41  H14 UNL     1       0.057 -25.505  19.343  1.00  0.00     0.211 HD
ENDBRANCH   5  40
BRANCH   5  42
HETATM   42  C21 UNL     1      -1.896 -25.367  18.064  1.00  0.00     0.211 C
HETATM   43  O15 UNL     1      -1.938 -26.452  18.680  1.00  0.00    -0.646 OA
HETATM   44  O16 UNL     1      -2.589 -25.353  16.860  1.00  0.00    -0.646 OA
ENDBRANCH   5  42
BRANCH   6  45
HETATM   45  O17 UNL     1      -3.051 -23.821  19.852  1.00  0.00    -0.312 OA
BRANCH  45  46
HETATM   46  C23 UNL     1      -3.135 -23.941  21.235  1.00  0.00     0.255 C
HETATM   47  C24 UNL     1      -3.881 -22.978  22.093  1.00  0.00     0.126 C
HETATM   48  O18 UNL     1      -2.554 -24.912  21.769  1.00  0.00    -0.266 OA
ENDBRANCH  45  46
ENDBRANCH   6  45
TORSDOF 16
ENDMDL