MODEL 1
REMARK VINA RESULT: -9.384882851      0.000      0.000
REMARK  15 active torsions:
REMARK  status: ('A' for Active; 'I' for Inactive)
REMARK    1  A    between atoms: O1_2  and  C2_3
REMARK    2  A    between atoms: C2_3  and  C3_5
REMARK    3  A    between atoms: C3_5  and  C4_6
REMARK    4  A    between atoms: C5_9  and  N2_10
REMARK    5  A    between atoms: C6_14  and  S2_15
REMARK    6  A    between atoms: S2_15  and  N3_18
REMARK       I    between atoms: N3_18  and  C7_20
REMARK    7  A    between atoms: C7_20  and  C8_22
REMARK    8  A    between atoms: C8_22  and  N4_23
REMARK    9  A    between atoms: N4_23  and  C9_25
REMARK   10  A    between atoms: C11_28  and  C12_29
REMARK   11  A    between atoms: C13_32  and  C14_33
REMARK   12  A    between atoms: C13_32  and  C17_41
REMARK   13  A    between atoms: C14_33  and  N6_34
REMARK   14  A    between atoms: C18_44  and  O8_45
REMARK   15  A    between atoms: C18_44  and  C19_47
ROOT
HETATM    1  C9  UNL     1       2.386 -23.292  15.155  1.00  0.00     0.113 A
HETATM    2  S3  UNL     1       3.878 -23.590  14.394  1.00  0.00    -0.076 SA
HETATM    3  C10 UNL     1       4.531 -22.095  13.933  1.00  0.00     0.075 A
HETATM    4  C11 UNL     1       3.735 -21.021  14.266  1.00  0.00     0.057 A
HETATM    5  S4  UNL     1       2.346 -21.608  15.044  1.00  0.00    -0.061 SA
ENDROOT
BRANCH   1   6
HETATM    6  N4  UNL     1       1.535 -24.145  15.677  1.00  0.00    -0.370 N
ATOM      7  H4  UNL     1       1.821 -24.710  16.477  1.00  0.00     0.161 HD
BRANCH   6   8
HETATM    8  C8  UNL     1       0.211 -24.299  15.146  1.00  0.00     0.224 C
BRANCH   8   9
HETATM    9  C7  UNL     1      -0.726 -23.462  15.898  1.00  0.00     0.248 C
HETATM   10  N3  UNL     1      -1.063 -23.913  17.221  1.00  0.00    -0.248 N
ATOM     11  H3  UNL     1      -0.664 -24.769  17.606  1.00  0.00     0.182 HD
HETATM   12  O5  UNL     1      -1.195 -22.426  15.407  1.00  0.00    -0.271 OA
BRANCH  10  13
HETATM   13  S2  UNL     1      -2.166 -22.951  18.132  1.00  0.00     0.273 S
HETATM   14  O3  UNL     1      -3.461 -22.822  17.438  1.00  0.00    -0.200 OA
HETATM   15  O4  UNL     1      -1.513 -21.622  18.390  1.00  0.00    -0.200 OA
BRANCH  13  16
HETATM   16  C6  UNL     1      -2.355 -23.732  19.702  1.00  0.00     0.146 A
HETATM   17  C4  UNL     1      -3.052 -23.357  20.814  1.00  0.00     0.051 A
HETATM   18  N1  UNL     1      -3.045 -24.150  21.848  1.00  0.00    -0.338 N
HETATM   19  C5  UNL     1      -2.357 -25.292  21.777  1.00  0.00     0.143 A
ATOM     20  H1  UNL     1      -3.555 -23.903  22.696  1.00  0.00     0.168 HD
HETATM   21  S1  UNL     1      -1.699 -25.252  20.210  1.00  0.00    -0.039 SA
BRANCH  17  22
HETATM   22  C3  UNL     1      -3.780 -22.015  20.831  1.00  0.00     0.170 C
BRANCH  22  23
HETATM   23  C2  UNL     1      -5.175 -22.174  21.297  1.00  0.00     0.264 C
HETATM   24  O2  UNL     1      -5.363 -22.699  22.435  1.00  0.00    -0.265 OA
BRANCH  23  25
HETATM   25  O1  UNL     1      -6.279 -21.797  20.592  1.00  0.00    -0.326 OA
HETATM   26  C1  UNL     1      -7.038 -20.667  20.966  1.00  0.00     0.213 C
ENDBRANCH  23  25
ENDBRANCH  22  23
ENDBRANCH  17  22
BRANCH  19  27
HETATM   27  N2  UNL     1      -2.238 -26.204  22.723  1.00  0.00    -0.380 N
ATOM     28  H22 UNL     1      -2.790 -26.345  23.569  1.00  0.00     0.158 HD
ATOM     29  H21 UNL     1      -1.548 -26.954  22.767  1.00  0.00     0.158 HD
ENDBRANCH  19  27
ENDBRANCH  13  16
ENDBRANCH  10  13
ENDBRANCH   8   9
ENDBRANCH   6   8
ENDBRANCH   1   6
BRANCH   4  30
HETATM   30  C12 UNL     1       4.118 -19.626  13.956  1.00  0.00     0.118 C
HETATM   31  N5  UNL     1       3.338 -18.601  14.105  1.00  0.00    -0.351 N
HETATM   32  C13 UNL     1       4.090 -17.359  13.678  1.00  0.00     0.198 C
ATOM     33  H5  UNL     1       2.379 -18.628  14.451  1.00  0.00     0.162 HD
HETATM   34  C18 UNL     1       5.471 -17.763  13.968  1.00  0.00     0.252 C
HETATM   35  N10 UNL     1       5.374 -19.159  13.477  1.00  0.00    -0.334 N
ATOM     36  H10 UNL     1       6.058 -19.671  12.919  1.00  0.00     0.164 HD
BRANCH  32  37
HETATM   37  C14 UNL     1       3.623 -16.967  12.349  1.00  0.00     0.198 C
BRANCH  37  38
HETATM   38  N6  UNL     1       4.516 -16.248  11.490  1.00  0.00    -0.285 N
HETATM   39  C15 UNL     1       5.121 -16.623  10.381  1.00  0.00     0.130 A
HETATM   40  C16 UNL     1       5.897 -15.575   9.870  1.00  0.00     0.127 A
HETATM   41  N7  UNL     1       5.709 -14.585  10.741  1.00  0.00    -0.296 N
HETATM   42  N8  UNL     1       4.902 -14.958  11.697  1.00  0.00    -0.241 N
ATOM     43  H7  UNL     1       6.136 -13.661  10.671  1.00  0.00     0.187 HD
ATOM     44  H8  UNL     1       4.606 -14.374  12.478  1.00  0.00     0.208 HD
ENDBRANCH  37  38
ENDBRANCH  32  37
BRANCH  32  45
HETATM   45  C17 UNL     1       3.589 -16.312  14.650  1.00  0.00     0.210 C
HETATM   46  O6  UNL     1       3.628 -15.074  14.353  1.00  0.00    -0.646 OA
HETATM   47  O7  UNL     1       3.070 -16.637  15.890  1.00  0.00    -0.646 OA
ENDBRANCH  32  45
BRANCH  34  48
HETATM   48  O8  UNL     1       5.589 -18.024  15.406  1.00  0.00    -0.361 OA
ATOM     49  H8  UNL     1       6.505 -18.160  15.616  1.00  0.00     0.213 HD
ENDBRANCH  34  48
BRANCH  34  50
HETATM   50  C19 UNL     1       6.597 -16.993  13.580  1.00  0.00     0.290 C
HETATM   51  N9  UNL     1       7.580 -17.611  12.701  1.00  0.00    -0.057 NA
HETATM   52  O9  UNL     1       6.877 -15.820  13.892  1.00  0.00    -0.271 OA
ENDBRANCH  34  50
ENDBRANCH   4  30
TORSDOF 15
ENDMDL