MODEL 2
REMARK VINA RESULT: -10.539898577      0.712      1.374
REMARK  16 active torsions:
REMARK  status: ('A' for Active; 'I' for Inactive)
REMARK    1  A    between atoms: C2_7  and  C3_8
REMARK    2  A    between atoms: C8_15  and  C9_16
REMARK    3  A    between atoms: C9_16  and  N4_17
REMARK    4  A    between atoms: C10_21  and  N7_22
REMARK    5  A    between atoms: N8_25  and  S1_26
REMARK    6  A    between atoms: S1_26  and  C13_29
REMARK    7  A    between atoms: C13_29  and  O3_30
REMARK    8  A    between atoms: C13_29  and  C14_32
REMARK    9  A    between atoms: C14_32  and  O4_33
REMARK   10  A    between atoms: C16_36  and  N9_37
REMARK   11  A    between atoms: N11_44  and  C18_45
REMARK   12  A    between atoms: C18_45  and  C19_46
REMARK   13  A    between atoms: C19_46  and  O5_47
REMARK   14  A    between atoms: C19_46  and  C20_49
REMARK   15  A    between atoms: C20_49  and  N12_50
REMARK   16  A    between atoms: C23_55  and  N14_56
ROOT
HETATM    1  N1  UNL     1       2.804 -25.163  12.252  1.00  0.00    -0.234 N
ATOM      2  H11 UNL     1       3.820 -25.076  12.255  1.00  0.00     0.174 HD
ATOM      3  H12 UNL     1       2.355 -25.770  11.566  1.00  0.00     0.174 HD
HETATM    4  C1  UNL     1       2.102 -24.490  13.131  1.00  0.00     0.676 A
HETATM    5  N2  UNL     1       0.786 -24.603  13.126  1.00  0.00    -0.193 N
ATOM      6  H2  UNL     1       0.360 -25.216  12.431  1.00  0.00     0.184 HD
HETATM    7  C2  UNL     1      -0.041 -23.945  13.997  1.00  0.00     0.060 A
HETATM    8  C6  UNL     1       0.529 -23.133  14.917  1.00  0.00     0.086 A
HETATM    9  C7  UNL     1       1.920 -23.040  14.894  1.00  0.00     0.087 A
HETATM   10  N3  UNL     1       2.685 -23.700  14.024  1.00  0.00    -0.189 N
ATOM     11  H3  UNL     1       3.700 -23.600  14.044  1.00  0.00     0.184 HD
HETATM   12  C8  UNL     1       2.265 -22.175  15.902  1.00  0.00     0.008 A
HETATM   13  C17 UNL     1       1.088 -21.787  16.485  1.00  0.00     0.102 A
HETATM   14  N11 UNL     1       0.013 -22.374  15.885  1.00  0.00    -0.350 N
ENDROOT
BRANCH  12  15
HETATM   15  C9  UNL     1       3.645 -21.723  16.324  1.00  0.00     0.210 C
BRANCH  15  16
HETATM   16  N4  UNL     1       3.788 -20.295  16.270  1.00  0.00    -0.199 N
HETATM   17  N5  UNL     1       3.323 -19.449  17.178  1.00  0.00     0.011 NA
HETATM   18  N6  UNL     1       3.619 -18.208  16.832  1.00  0.00    -0.113 N
HETATM   19  C10 UNL     1       4.295 -18.249  15.667  1.00  0.00     0.711 A
ATOM     20  H6  UNL     1       3.378 -17.366  17.356  1.00  0.00     0.203 HD
HETATM   21  N10 UNL     1       4.372 -19.548  15.365  1.00  0.00    -0.116 N
ATOM     22  H10 UNL     1       4.830 -19.915  14.531  1.00  0.00     0.207 HD
BRANCH  19  23
HETATM   23  N7  UNL     1       4.820 -17.167  14.908  1.00  0.00    -0.176 N
HETATM   24  C11 UNL     1       6.238 -16.968  14.907  1.00  0.00     0.189 C
HETATM   25  C12 UNL     1       6.768 -16.397  13.624  1.00  0.00     0.101 C
HETATM   26  N8  UNL     1       5.828 -15.776  12.801  1.00  0.00    -0.262 N
HETATM   27  C15 UNL     1       4.592 -15.376  13.326  1.00  0.00     0.135 C
HETATM   28  C16 UNL     1       3.868 -16.342  14.193  1.00  0.00     0.340 C
BRANCH  26  29
HETATM   29  S1  UNL     1       6.115 -15.647  11.158  1.00  0.00     0.265 S
HETATM   30  O1  UNL     1       5.683 -14.328  10.566  1.00  0.00    -0.202 OA
HETATM   31  O2  UNL     1       7.621 -15.707  10.931  1.00  0.00    -0.202 OA
BRANCH  29  32
HETATM   32  C13 UNL     1       5.410 -16.921  10.175  1.00  0.00     0.284 C
BRANCH  32  33
HETATM   33  O3  UNL     1       4.020 -16.929  10.443  1.00  0.00    -0.377 OA
ATOM     34  H3  UNL     1       3.604 -16.406   9.768  1.00  0.00     0.211 HD
ENDBRANCH  32  33
BRANCH  32  35
HETATM   35  C14 UNL     1       5.902 -18.303  10.607  1.00  0.00     0.213 C
BRANCH  35  36
HETATM   36  O4  UNL     1       7.251 -18.450  10.396  1.00  0.00    -0.397 OA
ATOM     37  H4  UNL     1       7.743 -17.716  10.744  1.00  0.00     0.209 HD
ENDBRANCH  35  36
ENDBRANCH  32  35
ENDBRANCH  29  32
ENDBRANCH  26  29
BRANCH  28  38
HETATM   38  N9  UNL     1       2.883 -17.128  13.491  1.00  0.00    -0.053 N
ATOM     39  H93 UNL     1       1.950 -16.727  13.594  1.00  0.00     0.277 HD
ATOM     40  H92 UNL     1       2.989 -17.036  12.482  1.00  0.00     0.277 HD
ATOM     41  H91 UNL     1       2.897 -18.107  13.777  1.00  0.00     0.277 HD
ENDBRANCH  28  38
ENDBRANCH  19  23
ENDBRANCH  15  16
ENDBRANCH  12  15
BRANCH  14  42
HETATM   42  C18 UNL     1      -1.320 -22.145  16.323  1.00  0.00     0.162 C
BRANCH  42  43
HETATM   43  C19 UNL     1      -1.463 -22.483  17.814  1.00  0.00     0.154 C
BRANCH  43  44
HETATM   44  O5  UNL     1      -1.993 -21.300  18.417  1.00  0.00    -0.392 OA
ATOM     45  H5  UNL     1      -2.187 -21.543  19.314  1.00  0.00     0.210 HD
ENDBRANCH  43  44
BRANCH  43  46
HETATM   46  C20 UNL     1      -2.475 -23.538  18.088  1.00  0.00     0.164 C
BRANCH  46  47
HETATM   47  N12 UNL     1      -2.465 -23.995  19.441  1.00  0.00    -0.325 N
HETATM   48  C21 UNL     1      -2.919 -23.365  20.519  1.00  0.00     0.185 A
HETATM   49  N13 UNL     1      -2.700 -24.150  21.586  1.00  0.00    -0.346 N
HETATM   50  C22 UNL     1      -2.105 -25.283  21.184  1.00  0.00     0.122 A
ATOM     51  H13 UNL     1      -2.947 -23.922  22.549  1.00  0.00     0.167 HD
HETATM   52  C23 UNL     1      -1.661 -26.413  21.833  1.00  0.00     0.131 A
HETATM   53  C25 UNL     1      -1.953 -25.190  19.824  1.00  0.00     0.140 A
HETATM   54  N15 UNL     1      -1.082 -27.414  21.108  1.00  0.00    -0.337 N
HETATM   55  C24 UNL     1      -0.943 -27.302  19.775  1.00  0.00     0.183 A
ATOM     56  H15 UNL     1      -0.750 -28.254  21.582  1.00  0.00     0.168 HD
HETATM   57  N16 UNL     1      -1.370 -26.207  19.124  1.00  0.00    -0.336 N
ATOM     58  H16 UNL     1      -1.257 -26.135  18.112  1.00  0.00     0.168 HD
BRANCH  52  59
HETATM   59  N14 UNL     1      -1.805 -26.491  23.097  1.00  0.00    -0.383 N
ATOM     60 2H14 UNL     1      -1.905 -25.661  23.682  1.00  0.00     0.157 HD
ATOM     61 1H14 UNL     1      -1.821 -27.413  23.534  1.00  0.00     0.157 HD
ENDBRANCH  52  59
ENDBRANCH  46  47
ENDBRANCH  43  46
ENDBRANCH  42  43
ENDBRANCH  14  42
BRANCH   7  62
HETATM   62  C3  UNL     1      -1.488 -24.126  13.897  1.00  0.00     0.038 A
HETATM   63  C4  UNL     1      -2.183 -23.254  12.782  1.00  0.00     0.011 A
HETATM   64  C5  UNL     1      -1.999 -24.680  12.558  1.00  0.00     0.011 A
ENDBRANCH   7  62
TORSDOF 16
ENDMDL