MODEL 1
REMARK VINA RESULT: -10.868125322      0.000      0.000
REMARK  13 active torsions:
REMARK  status: ('A' for Active; 'I' for Inactive)
REMARK    1  A    between atoms: O1_2  and  C2_3
REMARK    2  A    between atoms: C2_3  and  C3_5
REMARK    3  A    between atoms: C5_7  and  C6_8
REMARK    4  A    between atoms: C6_8  and  N1_9
REMARK    5  A    between atoms: C6_8  and  C25_55
REMARK       I    between atoms: N1_9  and  C7_10
REMARK    6  A    between atoms: C7_10  and  C8_12
REMARK    7  A    between atoms: C9_15  and  C10_16
REMARK    8  A    between atoms: C10_16  and  C11_17
REMARK    9  A    between atoms: C13_22  and  C14_23
REMARK   10  A    between atoms: C14_23  and  C15_24
REMARK   11  A    between atoms: C16_27  and  C17_28
REMARK       I    between atoms: C17_28  and  N6_30
REMARK   12  A    between atoms: N6_30  and  C18_32
REMARK   13  A    between atoms: C21_38  and  N8_39
ROOT
HETATM    1  C11 UNL     1       2.166 -23.194  14.823  1.00  0.00     0.011 A
HETATM    2  C12 UNL     1       1.613 -24.427  15.071  1.00  0.00     0.134 A
HETATM    3  N3  UNL     1       0.745 -24.518  16.053  1.00  0.00    -0.243 N
HETATM    4  N4  UNL     1       0.006 -25.508  16.611  1.00  0.00    -0.280 N
ATOM      5  H4  UNL     1       0.017 -26.474  16.287  1.00  0.00     0.189 HD
HETATM    6  C13 UNL     1      -0.728 -25.083  17.621  1.00  0.00     0.105 A
HETATM    7  N11 UNL     1      -0.453 -23.735  17.728  1.00  0.00    -0.323 N
ATOM      8  H11 UNL     1      -0.843 -23.080  18.405  1.00  0.00     0.169 HD
HETATM    9  C23 UNL     1       0.434 -23.465  16.757  1.00  0.00     0.171 A
HETATM   10  S1  UNL     1       1.421 -22.242  16.006  1.00  0.00    -0.055 SA
ENDROOT
BRANCH   6  11
HETATM   11  C14 UNL     1      -1.594 -25.863  18.526  1.00  0.00     0.155 C
BRANCH  11  12
HETATM   12  C15 UNL     1      -2.231 -25.146  19.629  1.00  0.00     0.102 A
HETATM   13  N5  UNL     1      -3.061 -24.128  19.603  1.00  0.00    -0.337 N
HETATM   14  C16 UNL     1      -3.391 -23.704  20.868  1.00  0.00     0.147 A
ATOM     15  H5  UNL     1      -3.417 -23.703  18.747  1.00  0.00     0.167 HD
HETATM   16  C20 UNL     1      -2.698 -24.538  21.732  1.00  0.00     0.165 A
HETATM   17  N7  UNL     1      -2.600 -24.609  23.073  1.00  0.00    -0.174 N
HETATM   18  N10 UNL     1      -2.001 -25.407  20.946  1.00  0.00    -0.234 N
HETATM   19  C21 UNL     1      -1.829 -25.517  23.695  1.00  0.00     0.681 A
ATOM     20  H7  UNL     1      -3.131 -23.947  23.640  1.00  0.00     0.186 HD
HETATM   21  N9  UNL     1      -1.143 -26.368  22.941  1.00  0.00    -0.141 N
HETATM   22  C22 UNL     1      -1.232 -26.309  21.594  1.00  0.00     0.348 A
ATOM     23  H9  UNL     1      -0.547 -27.069  23.380  1.00  0.00     0.189 HD
HETATM   24  O6  UNL     1      -0.573 -27.129  20.922  1.00  0.00    -0.245 OA
BRANCH  14  25
HETATM   25  C17 UNL     1      -4.198 -22.545  21.170  1.00  0.00     0.274 C
HETATM   26  O4  UNL     1      -4.183 -22.190  22.418  1.00  0.00    -0.266 OA
HETATM   27  N6  UNL     1      -4.986 -21.781  20.287  1.00  0.00    -0.327 N
ATOM     28  H6  UNL     1      -5.028 -21.985  19.289  1.00  0.00     0.165 HD
BRANCH  27  29
HETATM   29  C18 UNL     1      -5.753 -20.664  20.890  1.00  0.00     0.247 A
HETATM   30  C19 UNL     1      -7.232 -20.847  20.983  1.00  0.00     0.224 A
HETATM   31  O5  UNL     1      -6.707 -20.026  19.993  1.00  0.00    -0.360 OA
ENDBRANCH  27  29
ENDBRANCH  14  25
BRANCH  19  32
HETATM   32  N8  UNL     1      -1.780 -25.542  25.017  1.00  0.00    -0.234 N
ATOM     33  H82 UNL     1      -1.106 -24.992  25.550  1.00  0.00     0.174 HD
ATOM     34  H81 UNL     1      -2.431 -26.130  25.537  1.00  0.00     0.174 HD
ENDBRANCH  19  32
ENDBRANCH  11  12
ENDBRANCH   6  11
BRANCH   1  35
HETATM   35  C10 UNL     1       3.158 -22.909  13.745  1.00  0.00     0.126 C
BRANCH  35  36
HETATM   36  C9  UNL     1       3.684 -21.569  13.710  1.00  0.00     0.104 A
HETATM   37  N2  UNL     1       3.379 -20.625  12.757  1.00  0.00    -0.324 N
HETATM   38  C8  UNL     1       4.020 -19.497  12.956  1.00  0.00     0.206 A
ATOM     39  H2  UNL     1       2.730 -20.783  11.986  1.00  0.00     0.169 HD
HETATM   40  N13 UNL     1       4.755 -19.708  14.052  1.00  0.00    -0.277 N
HETATM   41  N12 UNL     1       4.563 -20.957  14.522  1.00  0.00    -0.282 N
ATOM     42  H13 UNL     1       5.375 -19.018  14.475  1.00  0.00     0.189 HD
HETATM   43  C24 UNL     1       5.211 -21.437  15.726  1.00  0.00     0.179 C
BRANCH  38  44
HETATM   44  C7  UNL     1       3.982 -18.192  12.179  1.00  0.00     0.362 C
HETATM   45  N1  UNL     1       4.540 -17.072  12.718  1.00  0.00    -0.357 NA
HETATM   46  O3  UNL     1       3.405 -18.332  11.064  1.00  0.00    -0.248 OA
BRANCH  45  47
HETATM   47  C6  UNL     1       5.100 -15.932  13.254  1.00  0.00     0.188 C
BRANCH  47  48
HETATM   48  C5  UNL     1       6.495 -15.488  13.041  1.00  0.00     0.065 C
HETATM   49  C3  UNL     1       7.473 -16.103  12.172  1.00  0.00     0.017 C
HETATM   50  C4  UNL     1       8.183 -17.354  12.756  1.00  0.00     0.055 C
BRANCH  49  51
HETATM   51  C2  UNL     1       7.274 -16.238  10.735  1.00  0.00     0.288 C
HETATM   52  O2  UNL     1       7.129 -17.400  10.192  1.00  0.00    -0.260 OA
BRANCH  51  53
HETATM   53  O1  UNL     1       7.227 -15.154   9.872  1.00  0.00    -0.323 OA
HETATM   54  C1  UNL     1       5.929 -14.623   9.580  1.00  0.00     0.213 C
ENDBRANCH  51  53
ENDBRANCH  49  51
ENDBRANCH  47  48
BRANCH  47  55
HETATM   55  C25 UNL     1       4.695 -15.691  14.692  1.00  0.00     0.241 C
HETATM   56  O7  UNL     1       3.538 -15.401  15.040  1.00  0.00    -0.642 OA
HETATM   57  O8  UNL     1       5.668 -15.797  15.689  1.00  0.00    -0.642 OA
ENDBRANCH  47  55
ENDBRANCH  45  47
ENDBRANCH  38  44
ENDBRANCH  35  36
ENDBRANCH   1  35
TORSDOF 13
ENDMDL