MODEL 2
REMARK VINA RESULT: -5.833839191      2.454      4.755
REMARK  16 active torsions:
REMARK  status: ('A' for Active; 'I' for Inactive)
REMARK    1  A    between atoms: C2_2  and  C3_3
REMARK    2  A    between atoms: C3_3  and  O2_5
REMARK    3  A    between atoms: O2_5  and  C4_6
REMARK    4  A    between atoms: C5_7  and  C6_8
REMARK    5  A    between atoms: C8_10  and  O3_11
REMARK    6  A    between atoms: C9_13  and  O4_14
REMARK    7  A    between atoms: C10_18  and  C11_19
REMARK    8  A    between atoms: C12_22  and  O9_23
REMARK    9  A    between atoms: O9_23  and  S1_24
REMARK   10  A    between atoms: C14_28  and  C15_29
REMARK   11  A    between atoms: C17_34  and  O15_35
REMARK   12  A    between atoms: C17_34  and  C18_37
REMARK   13  A    between atoms: C18_37  and  N1_43
REMARK   14  A    between atoms: C19_38  and  C20_39
REMARK   15  A    between atoms: C20_39  and  O17_41
REMARK   16  A    between atoms: N1_43  and  S2_45
ROOT
HETATM    1  C4  UNL     1      -3.076 -22.150  16.713  1.00  0.00     0.200 C
HETATM    2  C5  UNL     1      -2.000 -23.113  16.346  1.00  0.00     0.212 C
HETATM    3  O6  UNL     1      -2.182 -23.816  15.224  1.00  0.00    -0.349 OA
HETATM    4  C10 UNL     1      -2.759 -23.210  14.106  1.00  0.00     0.219 C
HETATM    5  C12 UNL     1      -4.035 -24.019  13.898  1.00  0.00     0.231 C
HETATM    6  C14 UNL     1      -4.921 -23.703  15.042  1.00  0.00     0.256 C
HETATM    7  O14 UNL     1      -5.039 -22.364  15.329  1.00  0.00    -0.361 OA
HETATM    8  C16 UNL     1      -3.902 -21.658  15.529  1.00  0.00     0.199 C
HETATM    9  C17 UNL     1      -3.009 -21.737  14.341  1.00  0.00     0.173 C
ENDROOT
BRANCH   9  10
HETATM   10  O15 UNL     1      -1.759 -21.189  14.772  1.00  0.00    -0.377 OA
ATOM     11  H15 UNL     1      -1.760 -21.246  15.720  1.00  0.00     0.211 HD
ENDBRANCH   9  10
BRANCH   9  12
HETATM   12  C18 UNL     1      -3.348 -20.956  13.156  1.00  0.00     0.069 C
HETATM   13  C19 UNL     1      -2.913 -19.673  13.105  1.00  0.00     0.111 C
BRANCH  13  14
HETATM   14  C20 UNL     1      -3.104 -18.724  12.073  1.00  0.00     0.284 C
HETATM   15  O16 UNL     1      -2.898 -18.978  10.876  1.00  0.00    -0.260 OA
BRANCH  14  16
HETATM   16  O17 UNL     1      -3.543 -17.422  12.358  1.00  0.00    -0.323 OA
HETATM   17  C21 UNL     1      -2.653 -16.421  12.803  1.00  0.00     0.213 C
ENDBRANCH  14  16
ENDBRANCH  13  14
BRANCH  12  18
HETATM   18  N1  UNL     1      -4.084 -21.365  12.029  1.00  0.00    -0.266 N
ATOM     19  H1  UNL     1      -3.546 -21.862  11.320  1.00  0.00     0.181 HD
BRANCH  18  20
HETATM   20  S2  UNL     1      -5.730 -21.160  11.667  1.00  0.00     0.209 S
HETATM   21  O18 UNL     1      -6.672 -21.462  12.801  1.00  0.00    -0.578 OA
HETATM   22  O19 UNL     1      -6.157 -21.994  10.479  1.00  0.00    -0.578 OA
HETATM   23  O20 UNL     1      -6.135 -19.555  11.234  1.00  0.00    -0.578 OA
ENDBRANCH  18  20
ENDBRANCH  12  18
ENDBRANCH   9  12
BRANCH   4  24
HETATM   24  C11 UNL     1      -1.798 -23.336  13.017  1.00  0.00     0.216 C
HETATM   25  O7  UNL     1      -0.559 -23.467  13.310  1.00  0.00    -0.646 OA
HETATM   26  O8  UNL     1      -2.038 -23.335  11.662  1.00  0.00    -0.646 OA
ENDBRANCH   4  24
BRANCH   5  27
HETATM   27  O9  UNL     1      -4.553 -24.014  12.648  1.00  0.00    -0.264 OA
BRANCH  27  28
HETATM   28  S1  UNL     1      -4.763 -25.470  11.894  1.00  0.00     0.262 S
HETATM   29  C13 UNL     1      -3.990 -26.823  12.804  1.00  0.00     0.194 C
HETATM   30  O10 UNL     1      -6.232 -25.861  11.782  1.00  0.00    -0.199 OA
HETATM   31  O11 UNL     1      -4.131 -25.577  10.535  1.00  0.00    -0.199 OA
ENDBRANCH  27  28
ENDBRANCH   5  27
BRANCH   1  32
HETATM   32  O2  UNL     1      -3.884 -22.593  17.782  1.00  0.00    -0.307 OA
BRANCH  32  33
HETATM   33  C3  UNL     1      -4.392 -21.790  18.759  1.00  0.00     0.282 C
HETATM   34  O1  UNL     1      -5.384 -21.085  18.529  1.00  0.00    -0.260 OA
BRANCH  33  35
HETATM   35  C2  UNL     1      -3.766 -21.757  20.090  1.00  0.00     0.072 C
HETATM   36  C1  UNL     1      -4.384 -22.220  21.161  1.00  0.00     0.017 C
ENDBRANCH  33  35
ENDBRANCH  32  33
ENDBRANCH   1  32
BRANCH   2  37
HETATM   37  C6  UNL     1      -1.828 -24.061  17.506  1.00  0.00     0.090 A
HETATM   38  C7  UNL     1      -2.057 -25.436  17.486  1.00  0.00     0.077 A
HETATM   39  C8  UNL     1      -1.786 -25.932  18.740  1.00  0.00     0.126 A
HETATM   40  C9  UNL     1      -1.399 -24.848  19.489  1.00  0.00     0.217 A
HETATM   41  O5  UNL     1      -1.441 -23.803  18.733  1.00  0.00    -0.287 OA
BRANCH  39  42
HETATM   42  O3  UNL     1      -1.887 -27.251  19.140  1.00  0.00    -0.356 OA
ATOM     43  H3  UNL     1      -2.690 -27.727  19.316  1.00  0.00     0.218 HD
ENDBRANCH  39  42
BRANCH  40  44
HETATM   44  O4  UNL     1      -1.020 -24.833  20.828  1.00  0.00    -0.339 OA
ATOM     45  H4  UNL     1      -0.912 -25.579  21.407  1.00  0.00     0.220 HD
ENDBRANCH  40  44
ENDBRANCH   2  37
BRANCH   6  46
HETATM   46  C15 UNL     1      -6.273 -24.300  15.045  1.00  0.00     0.206 C
HETATM   47  O12 UNL     1      -7.332 -23.618  15.036  1.00  0.00    -0.646 OA
HETATM   48  O13 UNL     1      -6.466 -25.674  15.060  1.00  0.00    -0.646 OA
ENDBRANCH   6  46
TORSDOF 16
ENDMDL