MODEL 4
REMARK VINA RESULT: -9.593997546      2.412     11.324
REMARK  19 active torsions:
REMARK  status: ('A' for Active; 'I' for Inactive)
REMARK    1  A    between atoms: O1_2  and  N1_3
REMARK    2  A    between atoms: N1_3  and  C2_5
REMARK    3  A    between atoms: C2_5  and  C3_6
REMARK    4  A    between atoms: C2_5  and  C18_44
REMARK    5  A    between atoms: C3_6  and  C4_8
REMARK    6  A    between atoms: C4_8  and  C5_9
REMARK    7  A    between atoms: C5_9  and  C6_10
REMARK    8  A    between atoms: C7_13  and  N3_14
REMARK    9  A    between atoms: C8_18  and  C9_19
REMARK   10  A    between atoms: C9_19  and  C10_20
REMARK   11  A    between atoms: N6_30  and  C15_31
REMARK   12  A    between atoms: C15_31  and  C16_32
REMARK   13  A    between atoms: C16_32  and  N7_33
REMARK   14  A    between atoms: C16_32  and  N8_37
REMARK   15  A    between atoms: C21_47  and  N10_48
REMARK   16  A    between atoms: N10_48  and  O5_50
REMARK   17  A    between atoms: C22_54  and  C23_55
REMARK   18  A    between atoms: C23_55  and  S2_56
REMARK   19  A    between atoms: S2_56  and  N12_57
ROOT
HETATM    1  C6  UNL     1       0.942 -22.245  14.953  1.00  0.00     0.047 A
HETATM    2  N2  UNL     1       1.737 -23.092  14.379  1.00  0.00    -0.336 N
ATOM      3  H2  UNL     1       2.742 -22.917  14.374  1.00  0.00     0.168 HD
HETATM    4  C7  UNL     1       1.254 -24.194  13.790  1.00  0.00     0.143 A
HETATM    5  S1  UNL     1      -0.412 -24.057  14.039  1.00  0.00    -0.056 SA
HETATM    6  C8  UNL     1      -0.428 -22.591  14.891  1.00  0.00     0.020 A
ENDROOT
BRANCH   1   7
HETATM    7  C5  UNL     1       1.305 -21.063  15.724  1.00  0.00     0.034 C
BRANCH   7   8
HETATM    8  C4  UNL     1       2.193 -20.739  16.592  1.00  0.00     0.059 C
BRANCH   8   9
HETATM    9  C3  UNL     1       3.034 -19.608  16.698  1.00  0.00     0.202 C
HETATM   10  O2  UNL     1       2.696 -18.498  17.143  1.00  0.00    -0.286 OA
BRANCH   9  11
HETATM   11  C2  UNL     1       4.454 -19.671  16.263  1.00  0.00     0.131 C
BRANCH  11  12
HETATM   12  N1  UNL     1       5.134 -20.687  16.341  1.00  0.00    -0.261 N
ATOM     13  H1  UNL     1       5.808 -20.536  17.092  1.00  0.00     0.194 HD
BRANCH  12  14
HETATM   14  O1  UNL     1       5.352 -21.864  15.870  1.00  0.00    -0.285 OA
HETATM   15  C1  UNL     1       4.987 -22.254  14.537  1.00  0.00     0.237 C
ENDBRANCH  12  14
ENDBRANCH  11  12
BRANCH  11  16
HETATM   16  C18 UNL     1       5.077 -18.433  15.699  1.00  0.00     0.066 C
HETATM   17  C19 UNL     1       6.313 -18.112  16.230  1.00  0.00     0.036 C
HETATM   18  C20 UNL     1       7.253 -17.225  15.721  1.00  0.00     0.052 C
HETATM   19  C21 UNL     1       7.216 -16.599  14.515  1.00  0.00     0.126 C
HETATM   20  N11 UNL     1       6.121 -16.392  13.726  1.00  0.00    -0.330 N
HETATM   21  C22 UNL     1       4.914 -16.970  13.758  1.00  0.00     0.099 C
ATOM     22  H11 UNL     1       6.242 -15.686  12.999  1.00  0.00     0.168 HD
HETATM   23  N13 UNL     1       4.420 -17.759  14.756  1.00  0.00    -0.343 N
ATOM     24  H13 UNL     1       3.404 -17.844  14.785  1.00  0.00     0.167 HD
BRANCH  19  25
HETATM   25  N10 UNL     1       8.316 -16.131  14.023  1.00  0.00    -0.253 N
ATOM     26  H10 UNL     1       8.955 -15.626  14.637  1.00  0.00     0.196 HD
BRANCH  25  27
HETATM   27  O5  UNL     1       8.648 -16.289  12.713  1.00  0.00    -0.288 OA
ATOM     28  H5  UNL     1       8.163 -16.866  12.135  1.00  0.00     0.244 HD
ENDBRANCH  25  27
ENDBRANCH  19  25
BRANCH  21  29
HETATM   29  C23 UNL     1       4.023 -16.742  12.606  1.00  0.00     0.239 C
BRANCH  29  30
HETATM   30  S2  UNL     1       4.441 -17.910  11.340  1.00  0.00     0.231 S
HETATM   31  O6  UNL     1       3.359 -18.913  11.114  1.00  0.00    -0.206 OA
HETATM   32  O7  UNL     1       5.716 -18.594  11.750  1.00  0.00    -0.206 OA
BRANCH  30  33
HETATM   33  N12 UNL     1       4.789 -17.045   9.872  1.00  0.00    -0.328 N
ATOM     34 2H12 UNL     1       4.632 -16.047   9.733  1.00  0.00     0.168 HD
ATOM     35 1H12 UNL     1       5.169 -17.699   9.187  1.00  0.00     0.168 HD
ENDBRANCH  30  33
ENDBRANCH  29  30
ENDBRANCH  21  29
ENDBRANCH  11  16
ENDBRANCH   9  11
ENDBRANCH   8   9
ENDBRANCH   7   8
ENDBRANCH   1   7
BRANCH   6  36
HETATM   36  C9  UNL     1      -1.589 -21.824  15.460  1.00  0.00     0.125 C
BRANCH  36  37
HETATM   37  C10 UNL     1      -1.920 -22.332  16.792  1.00  0.00     0.088 A
HETATM   38  N4  UNL     1      -2.855 -21.782  17.601  1.00  0.00    -0.338 N
HETATM   39  C11 UNL     1      -2.925 -22.479  18.750  1.00  0.00     0.147 A
ATOM     40  H4  UNL     1      -3.420 -20.965  17.374  1.00  0.00     0.167 HD
HETATM   41  C12 UNL     1      -3.666 -22.402  19.909  1.00  0.00     0.281 A
HETATM   42  C17 UNL     1      -1.993 -23.520  18.671  1.00  0.00     0.145 A
HETATM   43  O3  UNL     1      -4.507 -21.487  20.014  1.00  0.00    -0.265 OA
HETATM   44  N5  UNL     1      -3.525 -23.266  20.929  1.00  0.00    -0.269 N
HETATM   45  C13 UNL     1      -4.323 -23.161  22.146  1.00  0.00     0.164 C
HETATM   46  C14 UNL     1      -2.610 -24.246  20.789  1.00  0.00     0.333 A
HETATM   47  O4  UNL     1      -2.511 -25.042  21.784  1.00  0.00    -0.246 OA
HETATM   48  N6  UNL     1      -1.852 -24.383  19.689  1.00  0.00    -0.279 N
HETATM   49  N9  UNL     1      -1.419 -23.369  17.454  1.00  0.00    -0.330 N
ATOM     50  H9  UNL     1      -0.688 -23.980  17.089  1.00  0.00     0.168 HD
BRANCH  48  51
HETATM   51  C15 UNL     1      -0.906 -25.458  19.617  1.00  0.00     0.197 C
BRANCH  51  52
HETATM   52  C16 UNL     1      -1.421 -26.721  19.006  1.00  0.00     0.396 C
BRANCH  52  53
HETATM   53  N7  UNL     1      -1.059 -27.874  19.760  1.00  0.00    -0.049 N
ATOM     54  H73 UNL     1      -0.145 -28.228  19.476  1.00  0.00     0.276 HD
ATOM     55  H72 UNL     1      -0.845 -27.629  20.727  1.00  0.00     0.276 HD
ATOM     56  H71 UNL     1      -1.768 -28.605  19.714  1.00  0.00     0.276 HD
ENDBRANCH  52  53
BRANCH  52  57
HETATM   57  N8  UNL     1      -0.905 -26.757  17.632  1.00  0.00    -0.049 N
ATOM     58  H83 UNL     1      -1.362 -26.088  17.011  1.00  0.00     0.276 HD
ATOM     59  H82 UNL     1       0.041 -26.385  17.545  1.00  0.00     0.276 HD
ATOM     60  H81 UNL     1      -0.990 -27.723  17.317  1.00  0.00     0.276 HD
ENDBRANCH  52  57
ENDBRANCH  51  52
ENDBRANCH  48  51
ENDBRANCH  36  37
ENDBRANCH   6  36
BRANCH   4  61
HETATM   61  N3  UNL     1       1.942 -25.139  13.172  1.00  0.00    -0.380 N
ATOM     62  H32 UNL     1       2.947 -25.315  13.162  1.00  0.00     0.158 HD
ATOM     63  H31 UNL     1       1.575 -25.884  12.580  1.00  0.00     0.158 HD
ENDBRANCH   4  61
TORSDOF 19
ENDMDL