MODEL 1
REMARK VINA RESULT: -9.689493450      0.000      0.000
REMARK  16 active torsions:
REMARK  status: ('A' for Active; 'I' for Inactive)
REMARK    1  A    between atoms: N1_1  and  C1_4
REMARK    2  A    between atoms: C2_7  and  O1_8
REMARK    3  A    between atoms: O1_8  and  S1_9
REMARK    4  A    between atoms: C5_15  and  N3_16
REMARK    5  A    between atoms: C7_18  and  C8_19
REMARK    6  A    between atoms: C8_19  and  O5_20
REMARK    7  A    between atoms: C8_19  and  C9_22
REMARK    8  A    between atoms: C9_22  and  O6_23
REMARK    9  A    between atoms: C9_22  and  C19_50
REMARK   10  A    between atoms: O6_23  and  C10_24
REMARK   11  A    between atoms: C13_27  and  C14_28
REMARK   12  A    between atoms: C14_28  and  N4_29
REMARK   13  A    between atoms: N4_29  and  N5_31
REMARK   14  A    between atoms: N5_31  and  C15_33
REMARK   15  A    between atoms: C16_38  and  S2_39
REMARK   16  A    between atoms: S2_39  and  N8_40
ROOT
HETATM    1  C9  UNL     1       6.395 -17.828  14.411  1.00  0.00     0.264 C
ENDROOT
BRANCH   1   2
HETATM    2  C8  UNL     1       5.972 -16.852  13.333  1.00  0.00     0.210 C
BRANCH   2   3
HETATM    3  C7  UNL     1       4.573 -16.382  13.564  1.00  0.00     0.072 A
HETATM    4  C6  UNL     1       3.451 -16.882  12.872  1.00  0.00     0.143 A
HETATM    5  N3  UNL     1       2.342 -16.248  13.289  1.00  0.00    -0.245 N
HETATM    6  N10 UNL     1       2.737 -15.382  14.206  1.00  0.00    -0.015 NA
HETATM    7  N9  UNL     1       4.049 -15.460  14.368  1.00  0.00    -0.284 N
ATOM      8  H9  UNL     1       4.586 -14.890  15.021  1.00  0.00     0.184 HD
BRANCH   5   9
HETATM    9  C5  UNL     1       1.018 -16.484  12.819  1.00  0.00     0.097 A
HETATM   10  C1  UNL     1       0.103 -17.215  13.549  1.00  0.00     0.129 A
HETATM   11  N2  UNL     1      -1.152 -17.442  13.114  1.00  0.00    -0.321 N
HETATM   12  C2  UNL     1      -1.543 -16.937  11.909  1.00  0.00     0.165 A
ATOM     13  H2  UNL     1      -1.802 -17.987  13.679  1.00  0.00     0.169 HD
HETATM   14  C3  UNL     1      -0.690 -16.196  11.117  1.00  0.00     0.060 A
HETATM   15  C4  UNL     1       0.592 -15.985  11.602  1.00  0.00     0.039 A
BRANCH  10  16
HETATM   16  N1  UNL     1       0.512 -17.683  14.699  1.00  0.00    -0.384 N
ATOM     17  H12 UNL     1       1.112 -17.072  15.253  1.00  0.00     0.157 HD
ATOM     18  H11 UNL     1       0.238 -18.613  15.016  1.00  0.00     0.157 HD
ENDBRANCH  10  16
BRANCH  12  19
HETATM   19  O1  UNL     1      -2.837 -17.202  11.516  1.00  0.00    -0.196 OA
BRANCH  19  20
HETATM   20  S1  UNL     1      -3.541 -18.746  11.623  1.00  0.00     0.258 S
HETATM   21  O2  UNL     1      -3.233 -19.601  10.440  1.00  0.00    -0.572 OA
HETATM   22  O3  UNL     1      -5.029 -18.598  11.716  1.00  0.00    -0.572 OA
HETATM   23  O4  UNL     1      -3.029 -19.509  13.048  1.00  0.00    -0.572 OA
ENDBRANCH  19  20
ENDBRANCH  12  19
ENDBRANCH   5   9
ENDBRANCH   2   3
BRANCH   2  24
HETATM   24  O5  UNL     1       6.736 -15.659  13.560  1.00  0.00    -0.386 OA
ATOM     25  H5  UNL     1       6.162 -15.155  14.124  1.00  0.00     0.210 HD
ENDBRANCH   2  24
ENDBRANCH   1   2
BRANCH   1  26
HETATM   26  O6  UNL     1       5.170 -18.426  14.876  1.00  0.00    -0.328 OA
BRANCH  26  27
HETATM   27  C10 UNL     1       4.818 -19.743  14.678  1.00  0.00     0.124 A
HETATM   28  C11 UNL     1       4.361 -20.152  13.482  1.00  0.00     0.042 A
HETATM   29  C12 UNL     1       3.983 -21.522  13.235  1.00  0.00     0.020 A
HETATM   30  C13 UNL     1       4.048 -22.487  14.140  1.00  0.00     0.035 A
HETATM   31  C17 UNL     1       4.538 -22.146  15.487  1.00  0.00     0.236 A
HETATM   32  O9  UNL     1       4.597 -23.065  16.337  1.00  0.00    -0.283 OA
HETATM   33  C18 UNL     1       4.914 -20.761  15.716  1.00  0.00     0.255 A
HETATM   34  O10 UNL     1       5.336 -20.481  16.885  1.00  0.00    -0.281 OA
BRANCH  30  35
HETATM   35  C14 UNL     1       3.646 -23.845  13.805  1.00  0.00     0.122 C
BRANCH  35  36
HETATM   36  N4  UNL     1       2.427 -24.234  14.004  1.00  0.00    -0.309 N
ATOM     37  H4  UNL     1       1.709 -24.099  13.293  1.00  0.00     0.186 HD
BRANCH  36  38
HETATM   38  N5  UNL     1       2.126 -24.843  15.223  1.00  0.00    -0.279 N
ATOM     39  H5  UNL     1       2.575 -25.711  15.518  1.00  0.00     0.189 HD
BRANCH  38  40
HETATM   40  C15 UNL     1       1.231 -24.237  15.970  1.00  0.00     0.180 A
HETATM   41  N6  UNL     1       1.446 -23.363  16.957  1.00  0.00    -0.277 N
HETATM   42  N7  UNL     1       0.448 -22.878  17.572  1.00  0.00    -0.281 N
ATOM     43  H6  UNL     1       2.396 -23.092  17.212  1.00  0.00     0.189 HD
HETATM   44  C16 UNL     1      -0.782 -23.236  17.235  1.00  0.00     0.208 A
ATOM     45  H7  UNL     1       0.594 -22.209  18.329  1.00  0.00     0.188 HD
HETATM   46  S3  UNL     1      -0.481 -24.333  15.962  1.00  0.00    -0.018 SA
BRANCH  44  47
HETATM   47  S2  UNL     1      -2.300 -22.681  17.961  1.00  0.00     0.280 S
HETATM   48  O7  UNL     1      -3.354 -22.512  16.934  1.00  0.00    -0.199 OA
HETATM   49  O8  UNL     1      -2.000 -21.402  18.694  1.00  0.00    -0.199 OA
BRANCH  47  50
HETATM   50  N8  UNL     1      -2.776 -23.856  19.142  1.00  0.00    -0.323 N
ATOM     51  H82 UNL     1      -2.179 -24.594  19.516  1.00  0.00     0.169 HD
ATOM     52  H81 UNL     1      -3.749 -23.671  19.387  1.00  0.00     0.169 HD
ENDBRANCH  47  50
ENDBRANCH  44  47
ENDBRANCH  38  40
ENDBRANCH  36  38
ENDBRANCH  35  36
ENDBRANCH  30  35
ENDBRANCH  26  27
ENDBRANCH   1  26
BRANCH   1  53
HETATM   53  C19 UNL     1       6.959 -17.149  15.612  1.00  0.00     0.206 C
HETATM   54  O11 UNL     1       8.186 -17.203  15.928  1.00  0.00    -0.646 OA
HETATM   55  O12 UNL     1       6.156 -16.410  16.455  1.00  0.00    -0.646 OA
ENDBRANCH   1  53
TORSDOF 16
ENDMDL