MODEL 4
REMARK VINA RESULT: -7.018141277      5.650      8.934
REMARK  18 active torsions:
REMARK  status: ('A' for Active; 'I' for Inactive)
REMARK    1  A    between atoms: O1_2  and  C2_3
REMARK    2  A    between atoms: C3_4  and  N1_5
REMARK       I    between atoms: N1_5  and  C4_7
REMARK    3  A    between atoms: C6_10  and  O3_11
REMARK    4  A    between atoms: C7_13  and  C8_14
REMARK    5  A    between atoms: C8_14  and  N2_15
REMARK    6  A    between atoms: C8_14  and  N4_19
REMARK    7  A    between atoms: N4_19  and  N5_21
REMARK    8  A    between atoms: N5_21  and  C10_23
REMARK    9  A    between atoms: C12_27  and  C13_28
REMARK   10  A    between atoms: C13_28  and  O6_29
REMARK   11  A    between atoms: O6_29  and  C14_30
REMARK   12  A    between atoms: C15_31  and  O7_32
REMARK   13  A    between atoms: C19_39  and  C20_40
REMARK   14  A    between atoms: C21_43  and  O10_44
REMARK   15  A    between atoms: C21_43  and  O11_46
REMARK   16  A    between atoms: O11_46  and  C22_47
REMARK   17  A    between atoms: C22_47  and  O12_49
REMARK   18  A    between atoms: C24_51  and  N7_52
ROOT
HETATM    1  N2  UNL     1       2.558 -24.339  15.139  1.00  0.00    -0.277 N
ATOM      2  H2  UNL     1       2.328 -25.310  14.928  1.00  0.00     0.179 HD
HETATM    3  C9  UNL     1       3.815 -24.025  15.631  1.00  0.00     0.183 C
HETATM    4  N3  UNL     1       4.843 -23.776  16.042  1.00  0.00    -0.172 NA
ENDROOT
BRANCH   1   5
HETATM    5  C8  UNL     1       1.580 -23.317  14.922  1.00  0.00     0.146 C
BRANCH   5   6
HETATM    6  C7  UNL     1       0.309 -23.552  14.991  1.00  0.00     0.096 C
HETATM    7  C6  UNL     1      -0.310 -23.756  16.222  1.00  0.00     0.113 C
HETATM    8  C3  UNL     1      -1.460 -23.097  16.699  1.00  0.00     0.105 C
HETATM    9  C2  UNL     1      -2.448 -22.488  15.895  1.00  0.00     0.132 C
HETATM   10  C24 UNL     1      -2.474 -22.461  14.512  1.00  0.00     0.155 C
HETATM   11  C12 UNL     1      -1.826 -23.350  13.688  1.00  0.00     0.089 C
HETATM   12  C11 UNL     1      -0.405 -23.533  13.755  1.00  0.00     0.204 C
HETATM   13  O5  UNL     1       0.215 -23.685  12.712  1.00  0.00    -0.286 OA
BRANCH   7  14
HETATM   14  O3  UNL     1       0.272 -24.689  17.019  1.00  0.00    -0.357 OA
ATOM     15  H3  UNL     1       0.947 -25.241  16.644  1.00  0.00     0.217 HD
ENDBRANCH   7  14
BRANCH   8  16
HETATM   16  N1  UNL     1      -1.636 -23.102  18.094  1.00  0.00    -0.323 N
HETATM   17  C4  UNL     1      -2.159 -24.224  18.787  1.00  0.00     0.218 C
HETATM   18  C5  UNL     1      -2.343 -24.236  20.251  1.00  0.00     0.117 C
HETATM   19  O2  UNL     1      -2.484 -25.266  18.143  1.00  0.00    -0.274 OA
ATOM     20  H1  UNL     1      -1.380 -22.270  18.626  1.00  0.00     0.169 HD
ENDBRANCH   8  16
BRANCH   9  21
HETATM   21  O1  UNL     1      -3.488 -21.852  16.516  1.00  0.00    -0.351 OA
HETATM   22  C1  UNL     1      -4.826 -22.241  16.614  1.00  0.00     0.210 C
ENDBRANCH   9  21
BRANCH  10  23
HETATM   23  N7  UNL     1      -3.118 -21.402  13.888  1.00  0.00    -0.112 N
HETATM   24  O13 UNL     1      -2.464 -20.382  13.654  1.00  0.00    -0.532 OA
HETATM   25  O14 UNL     1      -4.419 -21.384  13.470  1.00  0.00    -0.532 OA
ENDBRANCH  10  23
BRANCH  11  26
HETATM   26  C13 UNL     1      -2.419 -23.997  12.736  1.00  0.00     0.144 C
HETATM   27  C21 UNL     1      -2.706 -23.477  11.425  1.00  0.00     0.216 C
BRANCH  26  28
HETATM   28  O6  UNL     1      -2.818 -25.238  13.037  1.00  0.00    -0.335 OA
BRANCH  28  29
HETATM   29  C14 UNL     1      -3.803 -26.082  13.159  1.00  0.00     0.194 C
HETATM   30  C15 UNL     1      -4.818 -25.759  14.272  1.00  0.00     0.183 C
HETATM   31  C16 UNL     1      -5.561 -27.077  14.224  1.00  0.00     0.182 C
HETATM   32  S1  UNL     1      -7.214 -26.959  14.899  1.00  0.00    -0.112 SA
HETATM   33  N6  UNL     1      -5.841 -27.116  12.803  1.00  0.00    -0.356 N
HETATM   34  C17 UNL     1      -8.022 -27.488  13.405  1.00  0.00     0.064 C
HETATM   35  C18 UNL     1      -7.128 -27.500  12.445  1.00  0.00     0.095 C
HETATM   36  C19 UNL     1      -4.590 -26.705  12.104  1.00  0.00     0.218 C
BRANCH  30  37
HETATM   37  O7  UNL     1      -4.157 -25.538  15.475  1.00  0.00    -0.390 OA
ATOM     38  H7  UNL     1      -4.735 -25.105  16.092  1.00  0.00     0.210 HD
ENDBRANCH  30  37
BRANCH  36  39
HETATM   39  C20 UNL     1      -3.952 -27.968  11.564  1.00  0.00     0.199 C
HETATM   40  O8  UNL     1      -2.817 -28.310  11.983  1.00  0.00    -0.646 OA
HETATM   41  O9  UNL     1      -4.632 -28.716  10.624  1.00  0.00    -0.646 OA
ENDBRANCH  36  39
ENDBRANCH  28  29
ENDBRANCH  26  28
BRANCH  27  42
HETATM   42  O10 UNL     1      -3.232 -24.248  10.520  1.00  0.00    -0.339 OA
ATOM     43  H10 UNL     1      -4.012 -23.971  10.054  1.00  0.00     0.220 HD
ENDBRANCH  27  42
BRANCH  27  44
HETATM   44  O11 UNL     1      -2.519 -22.207  10.931  1.00  0.00    -0.297 OA
BRANCH  44  45
HETATM   45  C22 UNL     1      -3.450 -21.604  10.072  1.00  0.00     0.261 C
HETATM   46  C23 UNL     1      -3.556 -20.114  10.233  1.00  0.00     0.071 C
BRANCH  45  47
HETATM   47  O12 UNL     1      -3.128 -21.861   8.720  1.00  0.00    -0.371 OA
ATOM     48  H12 UNL     1      -3.422 -21.152   8.162  1.00  0.00     0.212 HD
ENDBRANCH  45  47
ENDBRANCH  44  45
ENDBRANCH  27  44
ENDBRANCH  11  26
ENDBRANCH   5   6
BRANCH   5  49
HETATM   49  N4  UNL     1       2.116 -22.067  14.535  1.00  0.00    -0.282 N
ATOM     50  H4  UNL     1       2.729 -21.985  13.724  1.00  0.00     0.188 HD
BRANCH  49  51
HETATM   51  N5  UNL     1       1.768 -20.919  15.319  1.00  0.00    -0.276 N
ATOM     52  H5  UNL     1       0.951 -20.356  15.083  1.00  0.00     0.189 HD
BRANCH  51  53
HETATM   53  C10 UNL     1       2.576 -20.585  16.419  1.00  0.00     0.368 C
HETATM   54  O4  UNL     1       2.516 -19.468  16.940  1.00  0.00    -0.282 OA
ENDBRANCH  51  53
ENDBRANCH  49  51
ENDBRANCH   5  49
ENDBRANCH   1   5
TORSDOF 18
ENDMDL