MODEL 3
REMARK VINA RESULT: -8.716458889      3.099      6.842
REMARK  19 active torsions:
REMARK  status: ('A' for Active; 'I' for Inactive)
REMARK    1  A    between atoms: C2_2  and  N1_3
REMARK    2  A    between atoms: N1_3  and  C3_4
REMARK    3  A    between atoms: N1_3  and  S1_21
REMARK    4  A    between atoms: C3_4  and  C4_5
REMARK    5  A    between atoms: C4_5  and  N2_6
REMARK    6  A    between atoms: N2_6  and  C5_9
REMARK    7  A    between atoms: C5_9  and  C7_11
REMARK    8  A    between atoms: C8_12  and  C9_13
REMARK    9  A    between atoms: S1_21  and  C14_22
REMARK   10  A    between atoms: C17_26  and  O5_27
REMARK   11  A    between atoms: O5_27  and  C18_28
REMARK   12  A    between atoms: C19_29  and  N3_30
REMARK   13  A    between atoms: C21_35  and  N4_36
REMARK   14  A    between atoms: C22_40  and  O6_41
REMARK   15  A    between atoms: O6_41  and  S2_42
REMARK   16  A    between atoms: C23_46  and  O10_47
REMARK   17  A    between atoms: C24_49  and  C25_50
REMARK   18  A    between atoms: C25_50  and  O11_51
REMARK   19  A    between atoms: C25_50  and  O12_53
ROOT
HETATM    1  C14 UNL     1      -2.335 -24.059  15.516  1.00  0.00     0.347 C
HETATM    2  O4  UNL     1      -2.102 -23.067  16.462  1.00  0.00    -0.343 OA
HETATM    3  C15 UNL     1      -0.774 -22.831  16.695  1.00  0.00     0.153 C
HETATM    4  C16 UNL     1      -0.647 -22.145  18.038  1.00  0.00     0.042 C
HETATM    5  C17 UNL     1       0.065 -24.091  16.647  1.00  0.00     0.184 C
HETATM    6  C24 UNL     1      -0.787 -25.320  16.729  1.00  0.00     0.211 C
HETATM    7  O13 UNL     1      -1.855 -25.292  15.840  1.00  0.00    -0.338 OA
ENDROOT
BRANCH   5   8
HETATM    8  O5  UNL     1       0.814 -24.189  15.483  1.00  0.00    -0.370 OA
BRANCH   8   9
HETATM    9  C18 UNL     1       1.604 -23.087  15.209  1.00  0.00     0.183 C
HETATM   10  C19 UNL     1       2.084 -23.267  13.786  1.00  0.00     0.217 C
HETATM   11  C20 UNL     1       3.161 -22.299  13.387  1.00  0.00     0.071 C
HETATM   12  C21 UNL     1       3.207 -21.179  14.390  1.00  0.00     0.218 C
HETATM   13  C22 UNL     1       3.539 -21.693  15.786  1.00  0.00     0.206 C
HETATM   14  C23 UNL     1       2.843 -23.002  16.083  1.00  0.00     0.181 C
BRANCH  10  15
HETATM   15  N3  UNL     1       2.543 -24.656  13.620  1.00  0.00    -0.072 N
ATOM     16  H33 UNL     1       3.421 -24.839  14.105  1.00  0.00     0.274 HD
ATOM     17  H32 UNL     1       1.962 -25.324  14.127  1.00  0.00     0.274 HD
ATOM     18  H31 UNL     1       2.596 -24.863  12.622  1.00  0.00     0.274 HD
ENDBRANCH  10  15
BRANCH  12  19
HETATM   19  N4  UNL     1       4.295 -20.292  14.017  1.00  0.00    -0.072 N
ATOM     20  H43 UNL     1       5.213 -20.674  14.247  1.00  0.00     0.274 HD
ATOM     21  H42 UNL     1       4.424 -20.226  13.008  1.00  0.00     0.274 HD
ATOM     22  H41 UNL     1       4.123 -19.386  14.453  1.00  0.00     0.274 HD
ENDBRANCH  12  19
BRANCH  13  23
HETATM   23  O6  UNL     1       3.108 -20.696  16.657  1.00  0.00    -0.247 OA
BRANCH  23  24
HETATM   24  S2  UNL     1       4.291 -19.636  17.130  1.00  0.00     0.252 S
HETATM   25  O7  UNL     1       3.952 -19.132  18.513  1.00  0.00    -0.572 OA
HETATM   26  O8  UNL     1       5.627 -20.314  17.091  1.00  0.00    -0.572 OA
HETATM   27  O9  UNL     1       4.284 -18.329  16.058  1.00  0.00    -0.572 OA
ENDBRANCH  23  24
ENDBRANCH  13  23
BRANCH  14  28
HETATM   28  O10 UNL     1       3.725 -24.054  15.802  1.00  0.00    -0.390 OA
ATOM     29  H10 UNL     1       4.619 -23.739  15.744  1.00  0.00     0.210 HD
ENDBRANCH  14  28
ENDBRANCH   8   9
ENDBRANCH   5   8
BRANCH   6  30
HETATM   30  C25 UNL     1      -1.181 -25.695  18.130  1.00  0.00     0.285 C
BRANCH  30  31
HETATM   31  O11 UNL     1      -2.505 -25.360  18.332  1.00  0.00    -0.369 OA
ATOM     32  H11 UNL     1      -2.846 -25.865  19.061  1.00  0.00     0.212 HD
ENDBRANCH  30  31
BRANCH  30  33
HETATM   33  O12 UNL     1      -0.900 -27.010  18.467  1.00  0.00    -0.369 OA
ATOM     34  H12 UNL     1      -0.740 -27.150  19.393  1.00  0.00     0.212 HD
ENDBRANCH  30  33
ENDBRANCH   6  30
BRANCH   1  35
HETATM   35  S1  UNL     1      -1.867 -23.433  13.907  1.00  0.00     0.008 SA
BRANCH  35  36
HETATM   36  N1  UNL     1      -2.826 -22.168  13.262  1.00  0.00    -0.331 N
BRANCH  36  37
HETATM   37  C2  UNL     1      -3.617 -22.419  12.135  1.00  0.00     0.131 C
HETATM   38  C1  UNL     1      -2.846 -23.374  11.202  1.00  0.00     0.027 C
ENDBRANCH  36  37
BRANCH  36  39
HETATM   39  C3  UNL     1      -2.903 -20.949  13.944  1.00  0.00     0.099 C
BRANCH  39  40
HETATM   40  C4  UNL     1      -3.111 -19.704  13.135  1.00  0.00     0.279 C
BRANCH  40  41
HETATM   41  N2  UNL     1      -2.333 -18.574  13.543  1.00  0.00    -0.057 N
ATOM     42  H22 UNL     1      -2.656 -18.163  14.418  1.00  0.00     0.279 HD
ATOM     43  H21 UNL     1      -1.395 -18.828  13.854  1.00  0.00     0.279 HD
BRANCH  41  44
HETATM   44  C5  UNL     1      -2.328 -17.624  12.434  1.00  0.00     0.260 C
HETATM   45  C6  UNL     1      -3.240 -16.478  12.724  1.00  0.00     0.054 C
BRANCH  44  46
HETATM   46  C7  UNL     1      -0.950 -17.179  12.148  1.00  0.00    -0.073 C
HETATM   47  C8  UNL     1       0.184 -16.834  11.924  1.00  0.00    -0.094 C
BRANCH  47  48
HETATM   48  C9  UNL     1       1.569 -16.418  11.668  1.00  0.00     0.130 C
HETATM   49  C10 UNL     1       2.541 -17.581  11.868  1.00  0.00     0.139 C
HETATM   50  C11 UNL     1       3.818 -17.357  11.111  1.00  0.00     0.041 C
HETATM   51  O1  UNL     1       2.720 -17.683  13.222  1.00  0.00    -0.349 OA
HETATM   52  C12 UNL     1       2.416 -16.503  13.842  1.00  0.00     0.330 C
HETATM   53  O2  UNL     1       3.453 -15.599  14.000  1.00  0.00    -0.205 OA
HETATM   54  C13 UNL     1       2.030 -15.501  12.779  1.00  0.00     0.236 C
HETATM   55  O3  UNL     1       3.388 -15.237  12.731  1.00  0.00    -0.226 OA
ENDBRANCH  47  48
ENDBRANCH  44  46
ENDBRANCH  41  44
ENDBRANCH  40  41
ENDBRANCH  39  40
ENDBRANCH  36  39
ENDBRANCH  35  36
ENDBRANCH   1  35
TORSDOF 19
ENDMDL