MODEL 1
REMARK VINA RESULT: -8.691348569      0.000      0.000
REMARK  12 active torsions:
REMARK  status: ('A' for Active; 'I' for Inactive)
REMARK    1  A    between atoms: N2_9  and  S1_10
REMARK    2  A    between atoms: S1_10  and  N3_13
REMARK    3  A    between atoms: N3_13  and  C7_15
REMARK    4  A    between atoms: C7_15  and  C8_16
REMARK    5  A    between atoms: C8_16  and  N4_17
REMARK       I    between atoms: N4_17  and  C9_19
REMARK    6  A    between atoms: C9_19  and  C10_21
REMARK    7  A    between atoms: C10_21  and  N5_22
REMARK    8  A    between atoms: C10_21  and  C11_26
REMARK    9  A    between atoms: C11_26  and  C12_27
REMARK   10  A    between atoms: C12_27  and  C13_28
REMARK   11  A    between atoms: C13_28  and  N6_29
REMARK       I    between atoms: C14_31  and  N8_33
REMARK   12  A    between atoms: N8_33  and  C15_35
ROOT
HETATM    1  C10 UNL     1       1.511 -10.469  10.997  1.00  0.00     0.274 C
ENDROOT
BRANCH   1   2
HETATM    2  C9  UNL     1       1.415 -11.072  12.365  1.00  0.00     0.248 C
HETATM    3  N4  UNL     1       2.556 -11.096  13.184  1.00  0.00    -0.358 N
ATOM      4  H4  UNL     1       3.423 -10.699  12.824  1.00  0.00     0.162 HD
HETATM    5  O3  UNL     1       0.302 -11.536  12.727  1.00  0.00    -0.271 OA
BRANCH   3   6
HETATM    6  C8  UNL     1       2.552 -11.655  14.501  1.00  0.00     0.143 C
BRANCH   6   7
HETATM    7  C7  UNL     1       2.976 -13.073  14.498  1.00  0.00     0.153 C
BRANCH   7   8
HETATM    8  N3  UNL     1       2.240 -13.915  13.591  1.00  0.00    -0.300 N
ATOM      9  H3  UNL     1       2.361 -13.868  12.579  1.00  0.00     0.173 HD
BRANCH   8  10
HETATM   10  S1  UNL     1       1.160 -14.984  14.326  1.00  0.00     0.337 S
HETATM   11  O1  UNL     1      -0.071 -14.200  14.763  1.00  0.00    -0.181 OA
HETATM   12  O2  UNL     1       1.792 -15.425  15.643  1.00  0.00    -0.181 OA
BRANCH  10  13
HETATM   13  N2  UNL     1       0.732 -16.295  13.367  1.00  0.00    -0.170 N
HETATM   14  C4  UNL     1       0.262 -16.036  12.059  1.00  0.00     0.127 C
HETATM   15  N1  UNL     1      -0.466 -17.124  11.457  1.00  0.00    -0.379 N
HETATM   16  C5  UNL     1      -0.717 -14.853  12.068  1.00  0.00     0.065 C
HETATM   17  C6  UNL     1       1.439 -15.598  11.212  1.00  0.00     0.065 C
HETATM   18  C2  UNL     1       0.130 -18.409  11.550  1.00  0.00     0.103 C
ATOM     19  H1  UNL     1      -1.360 -16.979  10.990  1.00  0.00     0.157 HD
HETATM   20  C1  UNL     1      -0.953 -19.414  11.970  1.00  0.00     0.048 C
HETATM   21  C3  UNL     1       0.703 -18.938  10.260  1.00  0.00     0.048 C
HETATM   22  C25 UNL     1       1.186 -18.514  12.601  1.00  0.00     0.264 C
HETATM   23  N9  UNL     1       1.458 -17.446  13.498  1.00  0.00    -0.253 N
HETATM   24  O4  UNL     1       1.830 -19.585  12.663  1.00  0.00    -0.269 OA
ATOM     25  H9  UNL     1       2.174 -17.536  14.218  1.00  0.00     0.191 HD
ENDBRANCH  10  13
ENDBRANCH   8  10
ENDBRANCH   7   8
ENDBRANCH   6   7
ENDBRANCH   3   6
ENDBRANCH   1   2
BRANCH   1  26
HETATM   26  N5  UNL     1       0.343  -9.705  10.684  1.00  0.00    -0.067 N
ATOM     27  H53 UNL     1      -0.269 -10.203  10.038  1.00  0.00     0.275 HD
ATOM     28  H52 UNL     1      -0.290  -9.643  11.482  1.00  0.00     0.275 HD
ATOM     29  H51 UNL     1       0.589  -8.781  10.328  1.00  0.00     0.275 HD
ENDBRANCH   1  26
BRANCH   1  30
HETATM   30  C11 UNL     1       2.789  -9.665  10.954  1.00  0.00     0.044 C
BRANCH  30  31
HETATM   31  C12 UNL     1       3.753 -10.163   9.902  1.00  0.00     0.022 C
BRANCH  31  32
HETATM   32  C13 UNL     1       4.309 -11.505  10.337  1.00  0.00     0.122 C
BRANCH  32  33
HETATM   33  N6  UNL     1       5.229 -11.982   9.355  1.00  0.00    -0.365 N
HETATM   34  C14 UNL     1       5.845 -13.097   9.343  1.00  0.00     0.184 C
HETATM   35  N7  UNL     1       6.724 -13.404   8.286  1.00  0.00    -0.064 NA
HETATM   36  N8  UNL     1       5.649 -14.027  10.385  1.00  0.00    -0.355 N
ATOM     37  H8  UNL     1       4.726 -14.455  10.467  1.00  0.00     0.163 HD
ATOM     38  H6  UNL     1       5.415 -11.357   8.571  1.00  0.00     0.162 HD
BRANCH  36  39
HETATM   39  C15 UNL     1       6.650 -14.421  11.340  1.00  0.00     0.036 C
HETATM   40  C16 UNL     1       7.466 -15.551  10.746  1.00  0.00     0.036 C
HETATM   41  C17 UNL     1       8.424 -16.083  11.803  1.00  0.00    -0.009 C
HETATM   42  C18 UNL     1       9.387 -14.983  12.163  1.00  0.00     0.009 C
HETATM   43  C22 UNL     1       7.631 -16.573  12.972  1.00  0.00     0.048 C
HETATM   44  C19 UNL     1       8.587 -13.833  12.710  1.00  0.00    -0.009 C
HETATM   45  C20 UNL     1       7.917 -14.293  13.971  1.00  0.00     0.048 C
HETATM   46  C24 UNL     1       7.634 -13.321  11.675  1.00  0.00     0.036 C
HETATM   47  C21 UNL     1       6.942 -15.385  13.611  1.00  0.00     0.106 C
HETATM   48  F1  UNL     1       6.257 -15.753  14.743  1.00  0.00    -0.243 F
HETATM   49  C23 UNL     1       5.969 -14.833  12.618  1.00  0.00     0.074 C
ENDBRANCH  36  39
ENDBRANCH  32  33
ENDBRANCH  31  32
ENDBRANCH  30  31
ENDBRANCH   1  30
TORSDOF 12
ENDMDL