MODEL 3
REMARK VINA RESULT: -6.844773743      1.841      3.505
REMARK  15 active torsions:
REMARK  status: ('A' for Active; 'I' for Inactive)
REMARK    1  A    between atoms: S1_2  and  C2_3
REMARK    2  A    between atoms: C2_3  and  C3_4
REMARK    3  A    between atoms: C3_4  and  C4_5
REMARK    4  A    between atoms: C4_5  and  N1_6
REMARK    5  A    between atoms: C4_5  and  C5_10
REMARK    6  A    between atoms: C5_10  and  C6_11
REMARK    7  A    between atoms: C7_12  and  O1_13
REMARK    8  A    between atoms: C9_21  and  N4_22
REMARK    9  A    between atoms: N4_22  and  S2_23
REMARK   10  A    between atoms: S2_23  and  N5_25
REMARK   11  A    between atoms: S2_23  and  N6_32
REMARK   12  A    between atoms: N5_25  and  C10_27
REMARK   13  A    between atoms: N6_32  and  C14_34
REMARK   14  A    between atoms: C14_34  and  C15_35
REMARK   15  A    between atoms: C15_35  and  N7_36
ROOT
HETATM    1  C6  UNL     1       0.645 -14.384  13.331  1.00  0.00     0.054 A
HETATM    2  C7  UNL     1      -0.078 -15.392  13.918  1.00  0.00     0.155 A
HETATM    3  N2  UNL     1      -0.440 -16.432  13.163  1.00  0.00    -0.288 N
ATOM      4  H2  UNL     1      -0.978 -17.189  13.585  1.00  0.00     0.172 HD
HETATM    5  C8  UNL     1      -0.112 -16.506  11.862  1.00  0.00     0.328 A
HETATM    6  O2  UNL     1      -0.480 -17.529  11.171  1.00  0.00    -0.247 OA
HETATM    7  N3  UNL     1       0.586 -15.525  11.308  1.00  0.00    -0.282 N
ATOM      8  H3  UNL     1       0.819 -15.608  10.319  1.00  0.00     0.173 HD
HETATM    9  C9  UNL     1       1.021 -14.390  11.986  1.00  0.00     0.208 A
ENDROOT
BRANCH   9  10
HETATM   10  N4  UNL     1       1.605 -13.536  11.437  1.00  0.00    -0.303 NA
BRANCH  10  11
HETATM   11  S2  UNL     1       2.506 -12.656  10.468  1.00  0.00     0.264 S
HETATM   12  O3  UNL     1       2.878 -13.428   9.168  1.00  0.00    -0.192 OA
BRANCH  11  13
HETATM   13  N5  UNL     1       3.886 -12.145  11.012  1.00  0.00    -0.282 N
ATOM     14  H5  UNL     1       4.040 -11.144  11.139  1.00  0.00     0.175 HD
BRANCH  13  15
HETATM   15  C10 UNL     1       4.921 -13.062  11.330  1.00  0.00     0.231 C
HETATM   16  C11 UNL     1       6.120 -12.724  10.456  1.00  0.00     0.056 C
HETATM   17  C12 UNL     1       7.240 -13.311  11.286  1.00  0.00     0.031 C
HETATM   18  C13 UNL     1       6.696 -13.270  12.671  1.00  0.00     0.170 C
HETATM   19  O4  UNL     1       5.364 -12.954  12.639  1.00  0.00    -0.366 OA
ENDBRANCH  13  15
ENDBRANCH  11  13
BRANCH  11  20
HETATM   20  N6  UNL     1       1.716 -11.222   9.801  1.00  0.00    -0.308 N
ATOM     21  H6  UNL     1       0.803 -11.193   9.349  1.00  0.00     0.173 HD
BRANCH  20  22
HETATM   22  C14 UNL     1       2.594 -10.107  10.010  1.00  0.00     0.154 C
BRANCH  22  23
HETATM   23  C15 UNL     1       1.857  -8.905  10.579  1.00  0.00     0.168 C
BRANCH  23  24
HETATM   24  N7  UNL     1       1.735  -7.944   9.506  1.00  0.00    -0.301 N
HETATM   25  C16 UNL     1       1.858  -8.201   8.194  1.00  0.00     0.130 A
HETATM   26  C17 UNL     1       1.679  -7.046   7.476  1.00  0.00     0.044 A
HETATM   27 BR1  UNL     1       1.737  -6.800   5.595  1.00  0.00    -0.048 Br
HETATM   28  C18 UNL     1       1.440  -6.058   8.402  1.00  0.00     0.127 A
HETATM   29  N8  UNL     1       1.486  -6.659   9.607  1.00  0.00    -0.309 N
ATOM     30  H8  UNL     1       1.344  -6.173  10.493  1.00  0.00     0.186 HD
ENDBRANCH  23  24
ENDBRANCH  22  23
ENDBRANCH  20  22
ENDBRANCH  11  20
ENDBRANCH  10  11
ENDBRANCH   9  10
BRANCH   1  31
HETATM   31  C5  UNL     1       1.046 -13.256  14.177  1.00  0.00     0.081 C
BRANCH  31  32
HETATM   32  C4  UNL     1       2.557 -13.240  14.306  1.00  0.00     0.188 C
BRANCH  32  33
HETATM   33  C3  UNL     1       3.021 -14.153  15.427  1.00  0.00     0.043 C
BRANCH  33  34
HETATM   34  C2  UNL     1       3.981 -15.174  14.847  1.00  0.00     0.075 C
BRANCH  34  35
HETATM   35  S1  UNL     1       3.236 -16.843  14.880  1.00  0.00    -0.173 SA
HETATM   36  C1  UNL     1       3.201 -17.472  13.186  1.00  0.00     0.089 C
ENDBRANCH  34  35
ENDBRANCH  33  34
ENDBRANCH  32  33
BRANCH  32  37
HETATM   37  N1  UNL     1       3.128 -11.950  14.488  1.00  0.00    -0.075 N
ATOM     38  H13 UNL     1       3.483 -11.814  15.435  1.00  0.00     0.274 HD
ATOM     39  H12 UNL     1       4.010 -11.843  13.988  1.00  0.00     0.274 HD
ATOM     40  H11 UNL     1       2.445 -11.240  14.225  1.00  0.00     0.274 HD
ENDBRANCH  32  37
ENDBRANCH  31  32
ENDBRANCH   1  31
BRANCH   2  41
HETATM   41  O1  UNL     1      -0.433 -15.345  15.252  1.00  0.00    -0.345 OA
ATOM     42  H1  UNL     1       0.080 -15.783  15.920  1.00  0.00     0.219 HD
ENDBRANCH   2  41
TORSDOF 15
ENDMDL