MODEL 1
REMARK VINA RESULT: -8.465196645      0.000      0.000
REMARK  15 active torsions:
REMARK  status: ('A' for Active; 'I' for Inactive)
REMARK    1  A    between atoms: C2_2  and  C3_3
REMARK    2  A    between atoms: C2_2  and  N4_10
REMARK    3  A    between atoms: C3_3  and  C4_4
REMARK    4  A    between atoms: C4_4  and  N1_5
REMARK       I    between atoms: N1_5  and  C5_7
REMARK    5  A    between atoms: N4_10  and  C6_12
REMARK    6  A    between atoms: C6_12  and  N5_13
REMARK    7  A    between atoms: C6_12  and  C16_32
REMARK       I    between atoms: N5_13  and  C7_15
REMARK    8  A    between atoms: C7_15  and  C8_17
REMARK    9  A    between atoms: C8_17  and  C9_18
REMARK   10  A    between atoms: C16_32  and  N8_33
REMARK   11  A    between atoms: C16_32  and  C17_37
REMARK   12  A    between atoms: C17_37  and  C18_38
REMARK   13  A    between atoms: C18_38  and  C19_39
REMARK   14  A    between atoms: C19_39  and  C20_40
REMARK   15  A    between atoms: C20_40  and  N9_41
ROOT
HETATM    1  C6  UNL     1       2.173 -10.409   9.960  1.00  0.00     0.114 C
ENDROOT
BRANCH   1   2
HETATM    2  N4  UNL     1       1.487 -11.634  10.137  1.00  0.00    -0.352 N
ATOM      3  H4  UNL     1       1.590 -12.321   9.391  1.00  0.00     0.166 HD
BRANCH   2   4
HETATM    4  C2  UNL     1       0.759 -11.974  11.117  1.00  0.00    -0.014 C
HETATM    5  C1  UNL     1      -0.007 -11.024  11.924  1.00  0.00     0.063 C
BRANCH   4   6
HETATM    6  C3  UNL     1       0.700 -13.427  11.442  1.00  0.00     0.071 C
BRANCH   6   7
HETATM    7  C4  UNL     1      -0.716 -13.828  11.808  1.00  0.00     0.127 C
BRANCH   7   8
HETATM    8  N1  UNL     1      -0.785 -14.848  12.792  1.00  0.00    -0.367 N
HETATM    9  C5  UNL     1      -0.701 -14.763  14.051  1.00  0.00     0.196 C
HETATM   10  N2  UNL     1      -0.505 -13.490  14.654  1.00  0.00    -0.067 NA
HETATM   11  N3  UNL     1      -0.802 -15.936  14.869  1.00  0.00    -0.067 NA
ATOM     12  H1  UNL     1      -0.924 -15.791  12.431  1.00  0.00     0.161 HD
ENDBRANCH   7   8
ENDBRANCH   6   7
ENDBRANCH   4   6
ENDBRANCH   2   4
ENDBRANCH   1   2
BRANCH   1  13
HETATM   13  N5  UNL     1       3.438 -10.355  10.062  1.00  0.00    -0.315 N
HETATM   14  C7  UNL     1       4.448 -11.283   9.984  1.00  0.00     0.227 C
HETATM   15  O1  UNL     1       5.610 -10.917   9.552  1.00  0.00    -0.273 OA
ATOM     16  H5  UNL     1       3.780  -9.411  10.243  1.00  0.00     0.170 HD
BRANCH  14  17
HETATM   17  C8  UNL     1       4.326 -12.708  10.363  1.00  0.00     0.146 C
BRANCH  17  18
HETATM   18  C9  UNL     1       5.306 -13.105  11.405  1.00  0.00     0.012 A
HETATM   19  C10 UNL     1       5.112 -12.960  12.758  1.00  0.00     0.132 A
HETATM   20 BR1  UNL     1       3.552 -12.213  13.608  1.00  0.00    -0.022 Br
HETATM   21  O2  UNL     1       6.182 -13.424  13.354  1.00  0.00    -0.285 OA
HETATM   22  C11 UNL     1       7.072 -13.865  12.492  1.00  0.00     0.166 A
HETATM   23  N6  UNL     1       8.292 -14.417  12.634  1.00  0.00    -0.326 N
HETATM   24  C15 UNL     1       6.525 -13.668  11.222  1.00  0.00     0.093 A
HETATM   25  C12 UNL     1       9.025 -14.796  11.575  1.00  0.00     0.081 A
ATOM     26  H6  UNL     1       8.669 -14.551  13.572  1.00  0.00     0.169 HD
HETATM   27  C13 UNL     1      10.384 -15.410  11.770  1.00  0.00     0.089 C
HETATM   28  N7  UNL     1       8.512 -14.611  10.350  1.00  0.00    -0.312 N
HETATM   29  C14 UNL     1       7.301 -14.066  10.149  1.00  0.00     0.262 A
ATOM     30  H7  UNL     1       9.062 -14.896   9.540  1.00  0.00     0.170 HD
HETATM   31  O3  UNL     1       6.825 -13.897   8.996  1.00  0.00    -0.267 OA
ENDBRANCH  17  18
ENDBRANCH  14  17
ENDBRANCH   1  13
BRANCH   1  32
HETATM   32  C16 UNL     1       1.474  -9.142   9.641  1.00  0.00     0.250 C
BRANCH  32  33
HETATM   33  N8  UNL     1       1.864  -8.172  10.690  1.00  0.00    -0.068 N
ATOM     34  H83 UNL     1       2.604  -8.516  11.302  1.00  0.00     0.275 HD
ATOM     35  H82 UNL     1       2.367  -7.363  10.325  1.00  0.00     0.275 HD
ATOM     36  H81 UNL     1       1.009  -7.926  11.188  1.00  0.00     0.275 HD
ENDBRANCH  32  33
BRANCH  32  37
HETATM   37  C17 UNL     1       2.021  -8.584   8.321  1.00  0.00     0.041 C
BRANCH  37  38
HETATM   38  C18 UNL     1       1.103  -8.690   7.173  1.00  0.00     0.004 C
BRANCH  38  39
HETATM   39  C19 UNL     1       1.032  -7.490   6.314  1.00  0.00     0.020 C
BRANCH  39  40
HETATM   40  C20 UNL     1       0.251  -6.352   6.832  1.00  0.00     0.122 C
BRANCH  40  41
HETATM   41  N9  UNL     1       1.036  -5.183   7.063  1.00  0.00    -0.367 N
HETATM   42  C21 UNL     1       1.333  -4.747   8.248  1.00  0.00     0.196 C
HETATM   43  N10 UNL     1       2.119  -3.577   8.396  1.00  0.00    -0.067 NA
HETATM   44  N11 UNL     1       0.840  -5.486   9.344  1.00  0.00    -0.067 NA
ATOM     45  H9  UNL     1       1.381  -4.665   6.255  1.00  0.00     0.161 HD
ENDBRANCH  40  41
ENDBRANCH  39  40
ENDBRANCH  38  39
ENDBRANCH  37  38
ENDBRANCH  32  37
ENDBRANCH   1  32
TORSDOF 15
ENDMDL