MODEL 1
REMARK VINA RESULT: -7.625290644      0.000      0.000
REMARK  11 active torsions:
REMARK  status: ('A' for Active; 'I' for Inactive)
REMARK    1  A    between atoms: C2_2  and  C3_3
REMARK    2  A    between atoms: C3_3  and  C4_4
REMARK    3  A    between atoms: C4_4  and  C5_5
REMARK    4  A    between atoms: C7_10  and  C8_11
REMARK    5  A    between atoms: C8_11  and  C9_12
REMARK    6  A    between atoms: C12_15  and  O2_16
REMARK    7  A    between atoms: O2_16  and  C13_17
REMARK    8  A    between atoms: C21_33  and  C22_34
REMARK    9  A    between atoms: C22_34  and  C23_35
REMARK   10  A    between atoms: C23_35  and  C24_36
REMARK   11  A    between atoms: C24_36  and  N5_37
ROOT
HETATM    1  C13 UNL     1       1.858  -8.557   9.323  1.00  0.00     0.299 C
HETATM    2  C14 UNL     1       1.438  -7.141   9.224  1.00  0.00     0.085 C
HETATM    3  N2  UNL     1       1.115  -6.032   9.134  1.00  0.00    -0.195 NA
ENDROOT
BRANCH   1   4
HETATM    4  O2  UNL     1       1.661  -8.946  10.652  1.00  0.00    -0.338 OA
BRANCH   4   5
HETATM    5  C12 UNL     1       1.166 -10.213  10.968  1.00  0.00     0.071 A
HETATM    6  C11 UNL     1       0.078 -10.366  11.787  1.00  0.00     0.037 A
HETATM    7  C10 UNL     1      -0.385 -11.625  12.079  1.00  0.00     0.011 A
HETATM    8  C9  UNL     1       0.194 -12.775  11.584  1.00  0.00    -0.035 A
HETATM    9  C16 UNL     1       1.289 -12.614  10.759  1.00  0.00     0.043 A
HETATM   10  C15 UNL     1       1.764 -11.344  10.458  1.00  0.00     0.061 A
HETATM   11 CL1  UNL     1       2.091 -14.011  10.083  1.00  0.00    -0.084 Cl
BRANCH   8  12
HETATM   12  C8  UNL     1      -0.353 -14.085  11.937  1.00  0.00     0.056 C
BRANCH  12  13
HETATM   13  C7  UNL     1       0.633 -15.001  12.625  1.00  0.00     0.100 C
HETATM   14  C6  UNL     1       0.528 -14.728  14.083  1.00  0.00     0.224 C
HETATM   15  N1  UNL     1       1.626 -14.462  14.931  1.00  0.00    -0.347 N
HETATM   16  O1  UNL     1      -0.655 -14.743  14.568  1.00  0.00    -0.273 OA
HETATM   17  C5  UNL     1       2.897 -15.156  14.886  1.00  0.00     0.176 C
ATOM     18  H1  UNL     1       1.516 -13.726  15.629  1.00  0.00     0.163 HD
HETATM   19  C26 UNL     1       3.152 -15.966  16.076  1.00  0.00     0.241 C
HETATM   20  N8  UNL     1       3.577 -17.307  16.115  1.00  0.00    -0.346 N
HETATM   21  O5  UNL     1       2.972 -15.407  17.213  1.00  0.00    -0.271 OA
HETATM   22  C21 UNL     1       4.481 -17.953  15.217  1.00  0.00     0.176 C
ATOM     23  H8  UNL     1       3.199 -17.881  16.868  1.00  0.00     0.163 HD
HETATM   24  C20 UNL     1       4.020 -19.310  14.818  1.00  0.00     0.240 C
HETATM   25  N4  UNL     1       3.194 -19.579  13.694  1.00  0.00    -0.351 N
HETATM   26  O4  UNL     1       4.395 -20.274  15.535  1.00  0.00    -0.271 OA
HETATM   27  C19 UNL     1       2.036 -18.808  13.309  1.00  0.00     0.225 C
ATOM     28  H4  UNL     1       3.438 -20.381  13.113  1.00  0.00     0.163 HD
HETATM   29  C18 UNL     1       2.165 -18.207  11.975  1.00  0.00     0.235 C
HETATM   30  N3  UNL     1       1.466 -17.059  11.567  1.00  0.00    -0.359 N
HETATM   31  O3  UNL     1       2.948 -18.742  11.132  1.00  0.00    -0.272 OA
HETATM   32  C17 UNL     1       0.382 -16.454  12.313  1.00  0.00     0.137 C
ATOM     33  H3  UNL     1       1.739 -16.623  10.687  1.00  0.00     0.162 HD
BRANCH  17  34
HETATM   34  C4  UNL     1       3.960 -14.155  14.574  1.00  0.00     0.035 C
BRANCH  34  35
HETATM   35  C3  UNL     1       4.046 -13.833  13.099  1.00  0.00     0.002 C
BRANCH  35  36
HETATM   36  C2  UNL     1       4.228 -12.323  12.893  1.00  0.00    -0.004 C
HETATM   37  C1  UNL     1       3.297 -11.604  13.839  1.00  0.00     0.005 C
ENDBRANCH  35  36
ENDBRANCH  34  35
ENDBRANCH  17  34
BRANCH  22  38
HETATM   38  C22 UNL     1       5.871 -18.114  15.810  1.00  0.00     0.036 C
BRANCH  38  39
HETATM   39  C23 UNL     1       6.672 -16.836  15.689  1.00  0.00     0.022 C
BRANCH  39  40
HETATM   40  C24 UNL     1       6.768 -16.454  14.209  1.00  0.00     0.122 C
BRANCH  40  41
HETATM   41  N5  UNL     1       7.379 -15.174  14.030  1.00  0.00    -0.367 N
HETATM   42  C25 UNL     1       7.538 -14.638  12.881  1.00  0.00     0.196 C
HETATM   43  N6  UNL     1       8.154 -13.362  12.781  1.00  0.00    -0.067 NA
HETATM   44  N7  UNL     1       7.128 -15.246  11.653  1.00  0.00    -0.067 NA
ATOM     45  H5  UNL     1       7.702 -14.668  14.855  1.00  0.00     0.161 HD
ENDBRANCH  40  41
ENDBRANCH  39  40
ENDBRANCH  38  39
ENDBRANCH  22  38
ENDBRANCH  12  13
ENDBRANCH   8  12
ENDBRANCH   4   5
ENDBRANCH   1   4
TORSDOF 11
ENDMDL