MODEL 2
REMARK VINA RESULT: -7.475308692      1.667      2.092
REMARK  11 active torsions:
REMARK  status: ('A' for Active; 'I' for Inactive)
REMARK    1  A    between atoms: C2_2  and  C4_4
REMARK    2  A    between atoms: C4_4  and  C5_5
REMARK    3  A    between atoms: C10_13  and  C11_14
REMARK    4  A    between atoms: C11_14  and  C12_15
REMARK    5  A    between atoms: C12_15  and  C13_16
REMARK    6  A    between atoms: C13_16  and  C14_17
REMARK    7  A    between atoms: C14_17  and  O3_19
REMARK    8  A    between atoms: C20_32  and  C21_33
REMARK    9  A    between atoms: C21_33  and  C22_34
REMARK   10  A    between atoms: C22_34  and  C23_35
REMARK   11  A    between atoms: C23_35  and  N4_36
REMARK       I    between atoms: N4_36  and  C24_38
ROOT
HETATM    1  C5  UNL     1       4.834 -14.651  13.041  1.00  0.00     0.179 C
HETATM    2  C6  UNL     1       4.335 -15.305  11.829  1.00  0.00     0.240 C
HETATM    3  O1  UNL     1       3.496 -14.631  11.111  1.00  0.00    -0.271 OA
HETATM    4  N1  UNL     1       4.631 -16.573  11.316  1.00  0.00    -0.359 N
ATOM      5  H1  UNL     1       4.863 -16.610  10.324  1.00  0.00     0.162 HD
HETATM    6  C7  UNL     1       4.651 -17.832  12.016  1.00  0.00     0.122 C
HETATM    7  C8  UNL     1       3.351 -18.268  12.589  1.00  0.00     0.020 C
HETATM    8  C9  UNL     1       2.410 -18.938  11.597  1.00  0.00     0.007 C
HETATM    9  C10 UNL     1       1.320 -19.576  12.459  1.00  0.00    -0.006 C
HETATM   10  C15 UNL     1       0.405 -18.599  13.092  1.00  0.00     0.107 C
HETATM   11  C16 UNL     1      -0.447 -17.813  12.187  1.00  0.00     0.218 C
HETATM   12  O4  UNL     1      -0.948 -18.420  11.194  1.00  0.00    -0.274 OA
HETATM   13  N2  UNL     1      -0.762 -16.440  12.320  1.00  0.00    -0.348 N
ATOM     14  H2  UNL     1      -1.743 -16.185  12.215  1.00  0.00     0.163 HD
HETATM   15  C17 UNL     1       0.162 -15.364  12.588  1.00  0.00     0.172 C
HETATM   16  C18 UNL     1      -0.107 -14.258  11.577  1.00  0.00     0.042 C
HETATM   17  C19 UNL     1      -0.063 -14.853  13.984  1.00  0.00     0.240 C
HETATM   18  O5  UNL     1      -0.945 -15.427  14.716  1.00  0.00    -0.271 OA
HETATM   19  N3  UNL     1       0.642 -13.771  14.550  1.00  0.00    -0.346 N
ATOM     20  H3  UNL     1       0.139 -13.112  15.144  1.00  0.00     0.163 HD
HETATM   21  C20 UNL     1       2.045 -13.564  14.320  1.00  0.00     0.176 C
HETATM   22  C25 UNL     1       2.830 -14.791  14.609  1.00  0.00     0.243 C
HETATM   23  O6  UNL     1       2.205 -15.717  15.234  1.00  0.00    -0.271 OA
HETATM   24  N7  UNL     1       4.162 -15.041  14.276  1.00  0.00    -0.341 N
HETATM   25  C26 UNL     1       4.959 -15.761  15.282  1.00  0.00     0.153 C
ENDROOT
BRANCH  21  26
HETATM   26  C21 UNL     1       2.618 -12.429  15.115  1.00  0.00     0.036 C
BRANCH  26  27
HETATM   27  C22 UNL     1       3.149 -11.281  14.345  1.00  0.00     0.022 C
BRANCH  27  28
HETATM   28  C23 UNL     1       3.172 -11.523  12.842  1.00  0.00     0.122 C
BRANCH  28  29
HETATM   29  N4  UNL     1       2.130 -10.781  12.197  1.00  0.00    -0.365 N
HETATM   30  C24 UNL     1       1.635 -11.103  10.918  1.00  0.00     0.181 C
HETATM   31  N5  UNL     1       2.292 -11.909  10.148  1.00  0.00    -0.374 N
HETATM   32  N6  UNL     1       0.414 -10.558  10.441  1.00  0.00    -0.064 NA
ATOM     33  H52 UNL     1       3.169 -12.301  10.490  1.00  0.00     0.158 HD
ATOM     34  H51 UNL     1       1.934 -12.142   9.221  1.00  0.00     0.158 HD
ATOM     35  H4  UNL     1       1.727  -9.983  12.687  1.00  0.00     0.162 HD
ENDBRANCH  28  29
ENDBRANCH  27  28
ENDBRANCH  26  27
ENDBRANCH  21  26
BRANCH   1  36
HETATM   36  C4  UNL     1       6.310 -14.638  13.243  1.00  0.00     0.039 C
BRANCH  36  37
HETATM   37  C2  UNL     1       7.048 -13.401  12.931  1.00  0.00    -0.020 C
HETATM   38  C1  UNL     1       8.416 -13.242  13.509  1.00  0.00     0.009 C
HETATM   39  C3  UNL     1       7.058 -13.080  11.439  1.00  0.00     0.009 C
ENDBRANCH  36  37
ENDBRANCH   1  36
BRANCH   9  40
HETATM   40  C11 UNL     1       0.674 -20.730  11.751  1.00  0.00     0.005 C
BRANCH  40  41
HETATM   41  C12 UNL     1      -0.192 -21.541  12.650  1.00  0.00     0.010 C
BRANCH  41  42
HETATM   42  C13 UNL     1      -1.532 -21.818  12.008  1.00  0.00     0.114 C
BRANCH  42  43
HETATM   43  C14 UNL     1      -2.553 -20.891  12.531  1.00  0.00     0.294 C
HETATM   44  O2  UNL     1      -2.589 -20.481  13.716  1.00  0.00    -0.262 OA
BRANCH  43  45
HETATM   45  O3  UNL     1      -3.538 -20.437  11.667  1.00  0.00    -0.117 OA
HETATM   46  F1  UNL     1      -4.830 -20.718  11.925  1.00  0.00    -0.039 F
ENDBRANCH  43  45
ENDBRANCH  42  43
ENDBRANCH  41  42
ENDBRANCH  40  41
ENDBRANCH   9  40
TORSDOF 11
ENDMDL