MODEL 5
REMARK VINA RESULT: -6.097322369      3.044      7.164
REMARK  12 active torsions:
REMARK  status: ('A' for Active; 'I' for Inactive)
REMARK    1  A    between atoms: C5_7  and  N1_8
REMARK       I    between atoms: N1_8  and  C6_10
REMARK    2  A    between atoms: C6_10  and  C7_12
REMARK    3  A    between atoms: C7_12  and  C8_13
REMARK    4  A    between atoms: C9_15  and  C10_16
REMARK    5  A    between atoms: C10_16  and  C11_17
REMARK    6  A    between atoms: C11_17  and  C12_18
REMARK    7  A    between atoms: C12_18  and  N2_19
REMARK    8  A    between atoms: C13_23  and  C14_24
REMARK    9  A    between atoms: C14_24  and  C15_25
REMARK   10  A    between atoms: C15_25  and  C16_26
REMARK   11  A    between atoms: C16_26  and  N3_27
REMARK   12  A    between atoms: C19_36  and  C20_37
ROOT
HETATM    1  C1  UNL     1       0.991  -9.414  11.653  1.00  0.00     0.030 C
HETATM    2  C2  UNL     1       1.437 -10.892  11.666  1.00  0.00     0.040 C
HETATM    3  C3  UNL     1       2.603 -10.894  12.664  1.00  0.00     0.030 C
HETATM    4  S1  UNL     1       0.015 -11.779  12.317  1.00  0.00    -0.086 SA
HETATM    5  S2  UNL     1      -0.149 -13.784  11.810  1.00  0.00    -0.095 SA
HETATM    6  C4  UNL     1       0.477 -14.790  13.149  1.00  0.00     0.111 C
HETATM    7  C5  UNL     1       1.157 -16.021  12.556  1.00  0.00     0.099 C
HETATM    8  C9  UNL     1       1.837 -15.727  11.268  1.00  0.00     0.022 C
HETATM    9  C13 UNL     1       2.759 -14.491  11.373  1.00  0.00     0.084 C
HETATM   10  C18 UNL     1       2.637 -13.696  10.115  1.00  0.00     0.223 C
HETATM   11  O2  UNL     1       3.409 -14.171   9.204  1.00  0.00    -0.273 OA
HETATM   12  N6  UNL     1       1.832 -12.581   9.843  1.00  0.00    -0.346 N
ATOM     13  H6  UNL     1       1.085 -12.783   9.179  1.00  0.00     0.163 HD
HETATM   14  C19 UNL     1       1.826 -11.240  10.285  1.00  0.00     0.192 C
ENDROOT
BRANCH   9  15
HETATM   15  C14 UNL     1       4.171 -14.998  11.481  1.00  0.00     0.019 C
BRANCH  15  16
HETATM   16  C15 UNL     1       4.976 -14.270  12.544  1.00  0.00     0.045 C
BRANCH  16  17
HETATM   17  C16 UNL     1       6.200 -13.617  11.998  1.00  0.00     0.063 C
BRANCH  17  18
HETATM   18  N3  UNL     1       6.177 -13.392  10.613  1.00  0.00    -0.347 N
HETATM   19  C17 UNL     1       6.864 -13.892   9.685  1.00  0.00     0.200 C
HETATM   20  N4  UNL     1       7.892 -14.862   9.806  1.00  0.00    -0.067 NA
HETATM   21  N5  UNL     1       6.597 -13.451   8.344  1.00  0.00    -0.067 NA
ATOM     22  H3  UNL     1       5.486 -12.707  10.307  1.00  0.00     0.167 HD
ENDBRANCH  17  18
ENDBRANCH  16  17
ENDBRANCH  15  16
ENDBRANCH   9  15
BRANCH   8  23
HETATM   23  C10 UNL     1       2.502 -16.894  10.700  1.00  0.00     0.009 C
BRANCH  23  24
HETATM   24  C11 UNL     1       1.807 -17.607   9.602  1.00  0.00     0.028 C
BRANCH  24  25
HETATM   25  C12 UNL     1       1.073 -18.859   9.922  1.00  0.00     0.229 C
BRANCH  25  26
HETATM   26  N2  UNL     1      -0.171 -18.699  10.584  1.00  0.00    -0.079 N
ATOM     27  H23 UNL     1      -0.695 -17.936  10.155  1.00  0.00     0.274 HD
ATOM     28  H22 UNL     1      -0.784 -19.486  10.367  1.00  0.00     0.274 HD
ATOM     29  H21 UNL     1      -0.126 -18.564  11.594  1.00  0.00     0.274 HD
ENDBRANCH  25  26
ENDBRANCH  24  25
ENDBRANCH  23  24
ENDBRANCH   8  23
BRANCH   7  30
HETATM   30  N1  UNL     1       1.951 -16.565  13.609  1.00  0.00    -0.355 N
HETATM   31  C6  UNL     1       1.824 -17.934  13.994  1.00  0.00     0.218 C
HETATM   32  O1  UNL     1       0.998 -18.672  13.400  1.00  0.00    -0.274 OA
ATOM     33  H1  UNL     1       2.620 -15.967  14.095  1.00  0.00     0.162 HD
BRANCH  31  34
HETATM   34  C7  UNL     1       2.634 -18.530  15.079  1.00  0.00     0.113 C
BRANCH  34  35
HETATM   35  C8  UNL     1       3.978 -17.862  15.160  1.00  0.00     0.094 C
HETATM   36 BR1  UNL     1       4.115 -16.667  16.655  1.00  0.00    -0.096 Br
ENDBRANCH  34  35
ENDBRANCH  31  34
ENDBRANCH   7  30
BRANCH  14  37
HETATM   37  C20 UNL     1       3.067 -10.483   9.931  1.00  0.00     0.255 C
HETATM   38  N7  UNL     1       4.386 -10.932  10.065  1.00  0.00    -0.060 NA
HETATM   39  O3  UNL     1       2.901  -9.325   9.469  1.00  0.00    -0.275 OA
ENDBRANCH  14  37
TORSDOF 12
ENDMDL