MODEL 5
REMARK VINA RESULT: -8.302117028      2.504      9.816
REMARK  12 active torsions:
REMARK  status: ('A' for Active; 'I' for Inactive)
REMARK    1  A    between atoms: C3_5  and  N2_6
REMARK    2  A    between atoms: N2_6  and  C4_8
REMARK       I    between atoms: N3_11  and  C7_12
REMARK    3  A    between atoms: C7_12  and  C8_14
REMARK    4  A    between atoms: C8_14  and  C9_15
REMARK    5  A    between atoms: C9_15  and  N4_16
REMARK    6  A    between atoms: C11_19  and  C12_20
REMARK    7  A    between atoms: C12_20  and  C13_21
REMARK    8  A    between atoms: C13_21  and  C14_22
REMARK    9  A    between atoms: C14_22  and  C15_23
REMARK   10  A    between atoms: C15_23  and  C16_27
REMARK   11  A    between atoms: C16_27  and  C17_28
REMARK   12  A    between atoms: C22_37  and  N7_38
REMARK       I    between atoms: N7_38  and  C23_40
ROOT
HETATM    1  C4  UNL     1       1.406  -9.835  10.946  1.00  0.00     0.104 C
HETATM    2  C5  UNL     1       0.193 -10.146  11.808  1.00  0.00     0.045 C
HETATM    3  C6  UNL     1       0.428 -11.423  12.595  1.00  0.00     0.130 C
HETATM    4  N3  UNL     1       1.355 -12.298  11.875  1.00  0.00    -0.331 N
HETATM    5  C7  UNL     1       0.978 -13.576  11.406  1.00  0.00     0.223 C
HETATM    6  O1  UNL     1       1.822 -14.269  10.793  1.00  0.00    -0.273 OA
HETATM    7  C22 UNL     1       2.690 -11.782  11.668  1.00  0.00     0.192 C
HETATM    8  C24 UNL     1       2.611 -10.264  11.794  1.00  0.00     0.073 C
ENDROOT
BRANCH   5   9
HETATM    9  C8  UNL     1      -0.376 -14.130  11.608  1.00  0.00     0.123 C
BRANCH   9  10
HETATM   10  C9  UNL     1      -0.535 -14.756  12.976  1.00  0.00     0.145 C
BRANCH  10  11
HETATM   11  N4  UNL     1       0.430 -15.825  13.179  1.00  0.00    -0.275 N
HETATM   12  C10 UNL     1       0.376 -16.938  12.387  1.00  0.00     0.206 A
HETATM   13  F1  UNL     1      -0.568 -17.014  11.443  1.00  0.00    -0.185 F
HETATM   14  C11 UNL     1       1.271 -17.969  12.547  1.00  0.00     0.066 A
HETATM   15  C20 UNL     1       2.237 -17.891  13.514  1.00  0.00     0.260 A
HETATM   16  O2  UNL     1       3.064 -18.802  13.690  1.00  0.00    -0.267 OA
HETATM   17  N6  UNL     1       2.265 -16.767  14.289  1.00  0.00    -0.275 N
HETATM   18  C21 UNL     1       1.385 -15.762  14.125  1.00  0.00     0.331 A
ATOM     19  H6  UNL     1       2.976 -16.687  15.017  1.00  0.00     0.173 HD
HETATM   20  O3  UNL     1       1.431 -14.732  14.856  1.00  0.00    -0.246 OA
BRANCH  14  21
HETATM   21  C12 UNL     1       1.226 -19.209  11.679  1.00  0.00     0.049 C
BRANCH  21  22
HETATM   22  C13 UNL     1       0.185 -20.146  12.146  1.00  0.00     0.011 C
BRANCH  22  23
HETATM   23  C14 UNL     1      -0.942 -20.490  11.249  1.00  0.00     0.052 C
BRANCH  23  24
HETATM   24  C15 UNL     1      -2.316 -20.194  11.663  1.00  0.00    -0.020 C
HETATM   25  N5  UNL     1      -2.898 -19.235  10.955  1.00  0.00    -0.406 N
ATOM     26  H52 UNL     1      -2.376 -18.783  10.205  1.00  0.00     0.155 HD
ATOM     27  H51 UNL     1      -3.855 -19.029  11.243  1.00  0.00     0.155 HD
BRANCH  24  28
HETATM   28  C16 UNL     1      -3.068 -20.846  12.745  1.00  0.00     0.055 C
BRANCH  28  29
HETATM   29  C17 UNL     1      -4.470 -21.217  12.330  1.00  0.00    -0.018 C
HETATM   30  C18 UNL     1      -5.273 -21.588  13.554  1.00  0.00     0.010 C
HETATM   31  C19 UNL     1      -4.441 -22.411  11.402  1.00  0.00     0.010 C
ENDBRANCH  28  29
ENDBRANCH  24  28
ENDBRANCH  23  24
ENDBRANCH  22  23
ENDBRANCH  21  22
ENDBRANCH  14  21
ENDBRANCH  10  11
ENDBRANCH   9  10
ENDBRANCH   5   9
BRANCH   7  32
HETATM   32  N7  UNL     1       3.640 -12.334  12.607  1.00  0.00    -0.324 N
HETATM   33  C23 UNL     1       4.840 -12.897  12.099  1.00  0.00     0.330 C
HETATM   34  N8  UNL     1       5.817 -13.458  12.947  1.00  0.00    -0.040 NA
HETATM   35  O4  UNL     1       5.074 -12.914  10.846  1.00  0.00    -0.251 OA
ATOM     36  H7  UNL     1       3.454 -12.318  13.610  1.00  0.00     0.166 HD
ENDBRANCH   7  32
BRANCH   1  37
HETATM   37  N2  UNL     1       1.493  -8.431  10.713  1.00  0.00    -0.221 N
ATOM     38  H2  UNL     1       1.591  -7.785  11.496  1.00  0.00     0.178 HD
BRANCH  37  39
HETATM   39  C3  UNL     1       1.447  -7.976   9.485  1.00  0.00     0.679 A
HETATM   40  N1  UNL     1       1.065  -6.730   9.143  1.00  0.00    -0.191 N
HETATM   41  C2  UNL     1       1.142  -6.613   7.797  1.00  0.00     0.066 A
ATOM     42  H1  UNL     1       0.769  -5.998   9.789  1.00  0.00     0.184 HD
HETATM   43  C1  UNL     1       0.852  -5.545   7.083  1.00  0.00     0.046 C
HETATM   44  C25 UNL     1       1.583  -7.815   7.288  1.00  0.00     0.066 A
HETATM   45  N9  UNL     1       1.756  -8.618   8.351  1.00  0.00    -0.191 N
HETATM   46  C26 UNL     1       1.780  -8.083   6.007  1.00  0.00     0.046 C
ATOM     47  H9  UNL     1       2.080  -9.584   8.301  1.00  0.00     0.184 HD
ENDBRANCH  37  39
ENDBRANCH   1  37
TORSDOF 12
ENDMDL