MODEL 5
REMARK VINA RESULT: -7.314854195      2.817      3.257
REMARK  14 active torsions:
REMARK  status: ('A' for Active; 'I' for Inactive)
REMARK    1  A    between atoms: C3_3  and  C4_4
REMARK    2  A    between atoms: C4_4  and  C5_5
REMARK    3  A    between atoms: C11_12  and  O1_13
REMARK    4  A    between atoms: C12_17  and  C13_18
REMARK    5  A    between atoms: C13_18  and  C14_19
REMARK    6  A    between atoms: C14_19  and  C15_20
REMARK    7  A    between atoms: C15_20  and  N2_21
REMARK    8  A    between atoms: C19_30  and  C20_31
REMARK    9  A    between atoms: C22_36  and  C23_37
REMARK   10  A    between atoms: C23_37  and  C24_38
REMARK   11  A    between atoms: C24_38  and  C25_39
REMARK   12  A    between atoms: C25_39  and  C26_40
REMARK   13  A    between atoms: C26_40  and  N7_41
REMARK   14  A    between atoms: C27_45  and  N8_46
ROOT
HETATM    1  C1  UNL     1       5.551 -15.563  11.042  1.00  0.00     0.017 C
HETATM    2  C2  UNL     1       4.988 -15.778  12.204  1.00  0.00    -0.046 C
HETATM    3  C3  UNL     1       5.560 -14.999  13.380  1.00  0.00     0.095 C
HETATM    4  C11 UNL     1       5.710 -13.576  13.078  1.00  0.00     0.124 C
HETATM    5  N1  UNL     1       4.810 -12.500  13.156  1.00  0.00    -0.339 N
ATOM      6  H1  UNL     1       4.993 -11.894  13.956  1.00  0.00     0.167 HD
HETATM    7  C12 UNL     1       3.708 -12.060  12.382  1.00  0.00     0.079 C
HETATM    8  C17 UNL     1       2.351 -12.297  12.984  1.00  0.00     0.267 C
HETATM    9  O2  UNL     1       2.261 -11.786  14.146  1.00  0.00    -0.266 OA
HETATM   10  N5  UNL     1       1.216 -12.945  12.513  1.00  0.00    -0.332 N
HETATM   11  C18 UNL     1      -0.037 -12.183  12.249  1.00  0.00     0.154 C
HETATM   12  C19 UNL     1       1.005 -14.368  12.227  1.00  0.00     0.246 C
HETATM   13  C21 UNL     1       2.022 -15.282  12.736  1.00  0.00     0.165 C
HETATM   14  O4  UNL     1       2.459 -15.033  13.821  1.00  0.00    -0.295 OA
HETATM   15  C22 UNL     1       2.526 -16.466  12.016  1.00  0.00     0.092 C
HETATM   16  C27 UNL     1       3.915 -16.746  12.467  1.00  0.00     0.223 C
ENDROOT
BRANCH   3  17
HETATM   17  C4  UNL     1       6.905 -15.723  13.626  1.00  0.00     0.056 C
BRANCH  17  18
HETATM   18  C5  UNL     1       7.058 -16.291  14.958  1.00  0.00    -0.056 A
HETATM   19  C6  UNL     1       8.363 -16.195  15.506  1.00  0.00     0.007 A
HETATM   20  C7  UNL     1       8.687 -16.633  16.747  1.00  0.00     0.002 A
HETATM   21  C8  UNL     1       7.701 -17.221  17.555  1.00  0.00     0.024 A
HETATM   22  C9  UNL     1       6.456 -17.317  17.043  1.00  0.00     0.034 A
HETATM   23 CL1  UNL     1       5.225 -18.062  18.063  1.00  0.00    -0.084 Cl
HETATM   24  C10 UNL     1       6.129 -16.862  15.766  1.00  0.00     0.031 A
ENDBRANCH  17  18
ENDBRANCH   3  17
BRANCH   4  25
HETATM   25  O1  UNL     1       6.904 -13.260  12.659  1.00  0.00    -0.349 OA
ATOM     26  H1  UNL     1       6.898 -12.681  11.907  1.00  0.00     0.219 HD
ENDBRANCH   4  25
BRANCH  16  27
HETATM   27  N8  UNL     1       4.439 -18.041  12.056  1.00  0.00    -0.070 N
ATOM     28  H83 UNL     1       5.379 -17.995  11.664  1.00  0.00     0.275 HD
ATOM     29  H82 UNL     1       4.661 -18.658  12.838  1.00  0.00     0.275 HD
ATOM     30  H81 UNL     1       3.748 -18.429  11.414  1.00  0.00     0.275 HD
ENDBRANCH  16  27
BRANCH  15  31
HETATM   31  C23 UNL     1       2.293 -16.450  10.562  1.00  0.00     0.015 C
BRANCH  31  32
HETATM   32  C24 UNL     1       1.315 -17.285   9.908  1.00  0.00     0.002 C
BRANCH  32  33
HETATM   33  C25 UNL     1       1.093 -18.690  10.311  1.00  0.00     0.027 C
BRANCH  33  34
HETATM   34  C26 UNL     1      -0.108 -18.875  11.254  1.00  0.00     0.229 C
BRANCH  34  35
HETATM   35  N7  UNL     1      -1.143 -17.956  10.917  1.00  0.00    -0.079 N
ATOM     36  H73 UNL     1      -0.785 -17.150  10.403  1.00  0.00     0.274 HD
ATOM     37  H72 UNL     1      -1.764 -18.327  10.198  1.00  0.00     0.274 HD
ATOM     38  H71 UNL     1      -1.653 -17.678  11.755  1.00  0.00     0.274 HD
ENDBRANCH  34  35
ENDBRANCH  33  34
ENDBRANCH  32  33
ENDBRANCH  31  32
ENDBRANCH  15  31
BRANCH   7  39
HETATM   39  C13 UNL     1       3.717 -12.203  10.913  1.00  0.00     0.064 C
BRANCH  39  40
HETATM   40  C14 UNL     1       4.678 -11.336  10.169  1.00  0.00     0.026 C
BRANCH  40  41
HETATM   41  C15 UNL     1       3.998 -10.296   9.330  1.00  0.00     0.122 C
BRANCH  41  42
HETATM   42  N2  UNL     1       3.519  -9.182  10.161  1.00  0.00    -0.367 N
HETATM   43  C16 UNL     1       2.235  -8.977  10.164  1.00  0.00     0.196 C
HETATM   44  N3  UNL     1       1.758  -7.905  10.960  1.00  0.00    -0.067 NA
HETATM   45  N4  UNL     1       1.317  -9.751   9.433  1.00  0.00    -0.067 NA
ATOM     46  H2  UNL     1       4.158  -8.602  10.705  1.00  0.00     0.161 HD
ENDBRANCH  41  42
ENDBRANCH  40  41
ENDBRANCH  39  40
ENDBRANCH   7  39
BRANCH  12  47
HETATM   47  C20 UNL     1      -0.308 -14.687  12.945  1.00  0.00     0.261 C
HETATM   48  N6  UNL     1      -0.487 -14.409  14.315  1.00  0.00    -0.060 NA
HETATM   49  O3  UNL     1      -1.249 -15.219  12.264  1.00  0.00    -0.274 OA
ENDBRANCH  12  47
TORSDOF 14
ENDMDL