MODEL 2
REMARK VINA RESULT: -6.801848172      0.996      1.111
REMARK  16 active torsions:
REMARK  status: ('A' for Active; 'I' for Inactive)
REMARK    1  A    between atoms: C2_2  and  C4_4
REMARK    2  A    between atoms: C4_4  and  C5_5
REMARK    3  A    between atoms: C6_8  and  O1_9
REMARK    4  A    between atoms: C7_11  and  C8_12
REMARK    5  A    between atoms: C8_12  and  C9_13
REMARK    6  A    between atoms: C9_13  and  C10_14
REMARK    7  A    between atoms: C10_14  and  C11_15
REMARK    8  A    between atoms: C11_15  and  N2_16
REMARK    9  A    between atoms: C13_22  and  O2_23
REMARK   10  A    between atoms: C14_25  and  C15_26
REMARK   11  A    between atoms: C17_30  and  C18_31
REMARK   12  A    between atoms: C18_31  and  C19_32
REMARK   13  A    between atoms: C19_32  and  C20_33
REMARK   14  A    between atoms: C20_33  and  C21_34
REMARK   15  A    between atoms: C22_36  and  O4_37
REMARK   16  A    between atoms: C26_47  and  O6_48
ROOT
HETATM    1  C5  UNL     1       6.872 -14.664  13.879  1.00  0.00     0.158 C
HETATM    2  N1  UNL     1       6.295 -15.934  13.575  1.00  0.00    -0.357 N
ATOM      3  H1  UNL     1       6.950 -16.526  13.066  1.00  0.00     0.162 HD
HETATM    4  C6  UNL     1       5.093 -16.579  13.783  1.00  0.00     0.164 C
HETATM    5  C7  UNL     1       3.677 -16.357  13.348  1.00  0.00     0.083 C
HETATM    6  N3  UNL     1       3.070 -15.181  13.890  1.00  0.00    -0.332 N
HETATM    7  C12 UNL     1       3.534 -15.018  15.328  1.00  0.00     0.158 C
HETATM    8  C13 UNL     1       2.177 -14.217  13.530  1.00  0.00     0.134 C
HETATM    9  C14 UNL     1       1.846 -13.258  12.458  1.00  0.00     0.172 C
HETATM   10  C16 UNL     1       2.726 -13.012  11.337  1.00  0.00     0.002 C
HETATM   11  C17 UNL     1       3.072 -11.719  10.796  1.00  0.00    -0.035 C
HETATM   12  C22 UNL     1       4.507 -11.663  10.251  1.00  0.00     0.250 C
HETATM   13  N5  UNL     1       4.880 -12.858   9.547  1.00  0.00    -0.329 N
ATOM     14  H5  UNL     1       4.116 -13.377   9.113  1.00  0.00     0.165 HD
HETATM   15  C23 UNL     1       6.162 -13.399   9.382  1.00  0.00     0.242 C
HETATM   16  O5  UNL     1       6.543 -13.606   8.170  1.00  0.00    -0.271 OA
HETATM   17  C24 UNL     1       7.143 -13.767  10.435  1.00  0.00     0.171 C
HETATM   18  C25 UNL     1       7.324 -15.249  10.313  1.00  0.00     0.042 C
HETATM   19  N6  UNL     1       6.973 -13.189  11.702  1.00  0.00    -0.360 N
ATOM     20  H6  UNL     1       7.254 -12.208  11.687  1.00  0.00     0.162 HD
HETATM   21  C26 UNL     1       6.542 -13.545  12.957  1.00  0.00     0.135 C
ENDROOT
BRANCH   5  22
HETATM   22  C8  UNL     1       3.462 -16.866  12.004  1.00  0.00     0.007 C
BRANCH  22  23
HETATM   23  C9  UNL     1       3.675 -16.141  10.774  1.00  0.00     0.031 C
BRANCH  23  24
HETATM   24  C10 UNL     1       2.660 -16.282   9.679  1.00  0.00     0.031 C
BRANCH  24  25
HETATM   25  C11 UNL     1       1.969 -17.628   9.666  1.00  0.00     0.230 C
BRANCH  25  26
HETATM   26  N2  UNL     1       0.654 -17.434  10.244  1.00  0.00    -0.079 N
ATOM     27  H23 UNL     1       0.429 -16.453  10.407  1.00  0.00     0.274 HD
ATOM     28  H22 UNL     1      -0.104 -17.635   9.592  1.00  0.00     0.274 HD
ATOM     29  H21 UNL     1       0.614 -18.002  11.091  1.00  0.00     0.274 HD
ENDBRANCH  25  26
ENDBRANCH  24  25
ENDBRANCH  23  24
ENDBRANCH  22  23
ENDBRANCH   5  22
BRANCH   4  30
HETATM   30  O1  UNL     1       5.177 -17.652  14.532  1.00  0.00    -0.345 OA
ATOM     31  H1  UNL     1       4.677 -17.608  15.339  1.00  0.00     0.219 HD
ENDBRANCH   4  30
BRANCH   8  32
HETATM   32  O2  UNL     1       1.224 -14.034  14.473  1.00  0.00    -0.348 OA
ATOM     33  H2  UNL     1       1.170 -13.128  14.753  1.00  0.00     0.219 HD
ENDBRANCH   8  32
BRANCH   1  34
HETATM   34  C4  UNL     1       8.380 -14.640  14.028  1.00  0.00     0.037 C
BRANCH  34  35
HETATM   35  C2  UNL     1       9.202 -15.642  13.370  1.00  0.00    -0.020 C
HETATM   36  C1  UNL     1       9.736 -16.718  14.265  1.00  0.00     0.009 C
HETATM   37  C3  UNL     1      10.289 -15.072  12.471  1.00  0.00     0.009 C
ENDBRANCH  34  35
ENDBRANCH   1  34
BRANCH   9  38
HETATM   38  C15 UNL     1       0.402 -13.497  12.006  1.00  0.00     0.246 C
HETATM   39  N4  UNL     1       0.030 -14.799  11.637  1.00  0.00    -0.061 NA
HETATM   40  O3  UNL     1      -0.366 -12.522  11.990  1.00  0.00    -0.276 OA
ENDBRANCH   9  38
BRANCH  21  41
HETATM   41  O6  UNL     1       5.656 -12.740  13.467  1.00  0.00    -0.348 OA
ATOM     42  H6  UNL     1       5.296 -12.150  12.817  1.00  0.00     0.219 HD
ENDBRANCH  21  41
BRANCH  11  43
HETATM   43  C18 UNL     1       2.841 -10.407  11.409  1.00  0.00     0.038 C
BRANCH  43  44
HETATM   44  C19 UNL     1       1.615  -9.618  11.125  1.00  0.00     0.006 C
BRANCH  44  45
HETATM   45  C20 UNL     1       1.017 -10.062   9.778  1.00  0.00     0.015 C
BRANCH  45  46
HETATM   46  C21 UNL     1       1.483  -9.062   8.755  1.00  0.00     0.114 C
HETATM   47 CL1  UNL     1       1.489  -7.420   9.426  1.00  0.00    -0.130 Cl
ENDBRANCH  45  46
ENDBRANCH  44  45
ENDBRANCH  43  44
ENDBRANCH  11  43
BRANCH  12  48
HETATM   48  O4  UNL     1       4.499 -10.613   9.298  1.00  0.00    -0.373 OA
ATOM     49  H4  UNL     1       5.390 -10.284   9.286  1.00  0.00     0.212 HD
ENDBRANCH  12  48
TORSDOF 16
ENDMDL