MODEL 5
REMARK VINA RESULT: -6.807901960      2.735      7.338
REMARK  15 active torsions:
REMARK  status: ('A' for Active; 'I' for Inactive)
REMARK    1  A    between atoms: C2_2  and  C3_3
REMARK    2  A    between atoms: C3_3  and  C4_4
REMARK    3  A    between atoms: C7_10  and  C8_11
REMARK    4  A    between atoms: C8_11  and  C9_12
REMARK    5  A    between atoms: C12_17  and  O2_18
REMARK    6  A    between atoms: C16_26  and  C17_27
REMARK    7  A    between atoms: C17_27  and  C18_28
REMARK    8  A    between atoms: C18_28  and  C19_29
REMARK    9  A    between atoms: C19_29  and  N4_30
REMARK       I    between atoms: N4_30  and  C20_32
REMARK   10  A    between atoms: N7_37  and  C21_38
REMARK   11  A    between atoms: C21_38  and  C22_39
REMARK   12  A    between atoms: N8_41  and  C23_42
REMARK   13  A    between atoms: C23_42  and  O4_43
REMARK   14  A    between atoms: C23_42  and  N9_45
REMARK   15  A    between atoms: C26_48  and  O5_49
ROOT
HETATM    1  C4  UNL     1       3.921 -15.924  14.506  1.00  0.00     0.100 C
HETATM    2  C5  UNL     1       5.346 -15.983  14.029  1.00  0.00     0.077 C
HETATM    3  N1  UNL     1       6.166 -14.876  14.189  1.00  0.00    -0.338 N
ATOM      4  H1  UNL     1       6.361 -14.565  15.140  1.00  0.00     0.167 HD
HETATM    5  C6  UNL     1       6.746 -14.156  13.138  1.00  0.00     0.244 C
HETATM    6  O1  UNL     1       7.302 -13.009  13.357  1.00  0.00    -0.271 OA
HETATM    7  C7  UNL     1       6.792 -14.583  11.734  1.00  0.00     0.176 C
HETATM    8  N2  UNL     1       5.857 -13.762  10.986  1.00  0.00    -0.359 N
ATOM      9  H2  UNL     1       5.753 -12.812  11.342  1.00  0.00     0.162 HD
HETATM   10  C12 UNL     1       5.085 -14.044   9.876  1.00  0.00     0.135 C
HETATM   11  C13 UNL     1       4.181 -15.114   9.542  1.00  0.00     0.155 C
HETATM   12  C14 UNL     1       2.963 -14.595   8.764  1.00  0.00     0.041 C
HETATM   13  N3  UNL     1       3.740 -16.039  10.503  1.00  0.00    -0.345 N
ATOM     14  H3  UNL     1       4.483 -16.642  10.858  1.00  0.00     0.163 HD
HETATM   15  C15 UNL     1       2.478 -16.303  11.077  1.00  0.00     0.261 C
HETATM   16  O3  UNL     1       2.173 -17.553  10.984  1.00  0.00    -0.267 OA
HETATM   17  C16 UNL     1       1.505 -15.452  11.724  1.00  0.00     0.076 C
HETATM   18  N7  UNL     1       1.807 -14.182  12.217  1.00  0.00    -0.181 NA
HETATM   19  N8  UNL     1       2.691 -13.902  13.239  1.00  0.00    -0.215 N
HETATM   20  C26 UNL     1       3.240 -14.655  14.282  1.00  0.00     0.146 C
ENDROOT
BRANCH  17  21
HETATM   21  C17 UNL     1       0.358 -16.255  12.242  1.00  0.00     0.060 C
BRANCH  21  22
HETATM   22  C18 UNL     1       0.489 -17.032  13.488  1.00  0.00     0.025 C
BRANCH  22  23
HETATM   23  C19 UNL     1      -0.236 -18.365  13.296  1.00  0.00     0.122 C
BRANCH  23  24
HETATM   24  N4  UNL     1      -0.688 -18.584  11.954  1.00  0.00    -0.365 N
HETATM   25  C20 UNL     1      -1.608 -19.638  11.739  1.00  0.00     0.181 C
HETATM   26  N5  UNL     1      -2.666 -19.362  11.059  1.00  0.00    -0.374 N
HETATM   27  N6  UNL     1      -1.384 -20.939  12.243  1.00  0.00    -0.064 NA
ATOM     28  H52 UNL     1      -2.827 -18.422  10.695  1.00  0.00     0.158 HD
ATOM     29  H51 UNL     1      -3.328 -20.122  10.904  1.00  0.00     0.158 HD
ATOM     30  H4  UNL     1      -0.360 -18.002  11.183  1.00  0.00     0.162 HD
ENDBRANCH  23  24
ENDBRANCH  22  23
ENDBRANCH  21  22
ENDBRANCH  17  21
BRANCH  18  31
HETATM   31  C21 UNL     1       0.510 -13.557  12.464  1.00  0.00     0.151 C
BRANCH  31  32
HETATM   32  C22 UNL     1      -0.156 -12.844  11.368  1.00  0.00     0.238 C
HETATM   33  F1  UNL     1      -0.753 -11.643  11.615  1.00  0.00    -0.254 F
ENDBRANCH  31  32
ENDBRANCH  18  31
BRANCH  19  34
HETATM   34  C23 UNL     1       3.175 -12.548  13.234  1.00  0.00     0.239 C
BRANCH  34  35
HETATM   35  O4  UNL     1       4.034 -12.187  14.178  1.00  0.00    -0.331 OA
ATOM     36  H4  UNL     1       3.704 -12.067  15.061  1.00  0.00     0.221 HD
ENDBRANCH  34  35
BRANCH  34  37
HETATM   37  N9  UNL     1       2.908 -11.479  12.374  1.00  0.00    -0.343 N
HETATM   38  C24 UNL     1       2.387 -10.220  11.774  1.00  0.00     0.146 A
HETATM   39  C25 UNL     1       3.227 -11.008  11.003  1.00  0.00     0.146 A
ENDBRANCH  34  37
ENDBRANCH  19  34
BRANCH  20  40
HETATM   40  O5  UNL     1       3.121 -14.045  15.440  1.00  0.00    -0.348 OA
ATOM     41  H5  UNL     1       2.196 -13.915  15.613  1.00  0.00     0.219 HD
ENDBRANCH  20  40
BRANCH  10  42
HETATM   42  O2  UNL     1       5.202 -13.147   8.932  1.00  0.00    -0.348 OA
ATOM     43  H2  UNL     1       5.292 -13.529   8.068  1.00  0.00     0.219 HD
ENDBRANCH  10  42
BRANCH   1  44
HETATM   44  C3  UNL     1       3.979 -16.382  15.950  1.00  0.00     0.018 C
BRANCH  44  45
HETATM   45  C2  UNL     1       4.931 -17.449  16.296  1.00  0.00    -0.003 C
HETATM   46  C1  UNL     1       5.668 -17.040  17.566  1.00  0.00     0.005 C
ENDBRANCH  44  45
ENDBRANCH   1  44
BRANCH   7  47
HETATM   47  C8  UNL     1       8.116 -14.428  11.074  1.00  0.00     0.038 C
BRANCH  47  48
HETATM   48  C9  UNL     1       9.191 -15.389  11.335  1.00  0.00    -0.020 C
HETATM   49  C10 UNL     1      10.207 -15.058  12.376  1.00  0.00     0.009 C
HETATM   50  C11 UNL     1       8.700 -16.813  11.554  1.00  0.00     0.009 C
ENDBRANCH  47  48
ENDBRANCH   7  47
TORSDOF 15
ENDMDL