MODEL 5
REMARK VINA RESULT: -8.288863822      2.587      9.067
REMARK  8 active torsions:
REMARK  status: ('A' for Active; 'I' for Inactive)
REMARK    1  A    between atoms: C3_3  and  C4_4
REMARK       I    between atoms: C4_4  and  N1_6
REMARK    2  A    between atoms: N1_6  and  N2_8
REMARK    3  A    between atoms: N2_8  and  C5_10
REMARK    4  A    between atoms: C7_13  and  N4_14
REMARK    5  A    between atoms: N4_14  and  O2_16
REMARK    6  A    between atoms: C8_20  and  N6_21
REMARK    7  A    between atoms: N7_24  and  N8_25
REMARK    8  A    between atoms: C10_32  and  N10_33
ROOT
HETATM    1  C1  UNL     1      68.114  96.027 116.312  1.00  0.00     0.073 C
HETATM    2  C2  UNL     1      67.225  95.735 117.476  1.00  0.00     0.074 A
HETATM    3  C3  UNL     1      66.146  96.426 117.940  1.00  0.00     0.142 A
HETATM    4  N9  UNL     1      65.696  95.737 119.021  1.00  0.00    -0.183 N
ATOM      5  H9  UNL     1      64.894  96.005 119.590  1.00  0.00     0.184 HD
HETATM    6  C10 UNL     1      66.458  94.656 119.231  1.00  0.00     0.692 A
HETATM    7  N11 UNL     1      67.404  94.643 118.286  1.00  0.00    -0.083 N
HETATM    8  C11 UNL     1      68.405  93.676 118.151  1.00  0.00     0.204 C
HETATM    9  N12 UNL     1      69.242  92.884 118.031  1.00  0.00    -0.171 NA
ENDROOT
BRANCH   6  10
HETATM   10  N10 UNL     1      66.308  93.780 120.177  1.00  0.00    -0.233 N
ATOM     11 2H10 UNL     1      65.420  93.429 120.537  1.00  0.00     0.174 HD
ATOM     12 1H10 UNL     1      67.053  93.316 120.697  1.00  0.00     0.174 HD
ENDBRANCH   6  10
BRANCH   3  13
HETATM   13  C4  UNL     1      65.563  97.642 117.427  1.00  0.00     0.289 C
HETATM   14  O1  UNL     1      65.762  98.695 118.145  1.00  0.00    -0.264 OA
HETATM   15  N1  UNL     1      64.814  97.832 116.261  1.00  0.00    -0.263 N
ATOM     16  H1  UNL     1      64.615  97.046 115.642  1.00  0.00     0.190 HD
BRANCH  15  17
HETATM   17  N2  UNL     1      64.332  99.139 115.947  1.00  0.00    -0.284 N
ATOM     18  H2  UNL     1      64.982  99.848 115.611  1.00  0.00     0.188 HD
BRANCH  17  19
HETATM   19  C5  UNL     1      63.091  99.430 116.084  1.00  0.00     0.150 C
HETATM   20  N3  UNL     1      62.181  98.413 116.443  1.00  0.00    -0.080 NA
HETATM   21  C6  UNL     1      62.632 100.781 115.873  1.00  0.00     0.123 A
HETATM   22  C7  UNL     1      61.272 101.070 116.030  1.00  0.00     0.160 A
HETATM   23  C9  UNL     1      63.494 101.814 115.519  1.00  0.00     0.299 A
HETATM   24  N5  UNL     1      60.835 102.325 115.836  1.00  0.00    -0.172 N
HETATM   25  C8  UNL     1      61.715 103.277 115.495  1.00  0.00     0.701 A
ATOM     26  H5  UNL     1      59.847 102.551 115.945  1.00  0.00     0.186 HD
HETATM   27  N7  UNL     1      63.031 103.060 115.331  1.00  0.00    -0.054 N
HETATM   28  O3  UNL     1      64.717 101.571 115.374  1.00  0.00    -0.264 OA
BRANCH  22  29
HETATM   29  N4  UNL     1      60.367 100.034 116.392  1.00  0.00    -0.252 N
ATOM     30  H4  UNL     1      60.379  99.612 117.321  1.00  0.00     0.196 HD
BRANCH  29  31
HETATM   31  O2  UNL     1      59.549  99.662 115.506  1.00  0.00    -0.288 OA
ATOM     32  H2  UNL     1      59.151 100.346 114.980  1.00  0.00     0.244 HD
ENDBRANCH  29  31
ENDBRANCH  22  29
BRANCH  25  33
HETATM   33  N6  UNL     1      61.301 104.496 115.306  1.00  0.00    -0.233 N
ATOM     34  H62 UNL     1      62.015 105.186 115.075  1.00  0.00     0.174 HD
ATOM     35  H61 UNL     1      60.308 104.710 115.392  1.00  0.00     0.174 HD
ENDBRANCH  25  33
BRANCH  27  36
HETATM   36  N8  UNL     1      63.891 104.112 114.973  1.00  0.00    -0.321 N
ATOM     37  H82 UNL     1      64.899 103.971 114.897  1.00  0.00     0.178 HD
ATOM     38  H81 UNL     1      63.522 105.043 114.783  1.00  0.00     0.178 HD
ENDBRANCH  27  36
ENDBRANCH  17  19
ENDBRANCH  15  17
ENDBRANCH   3  13
TORSDOF 8
ENDMDL