MODEL 1
REMARK VINA RESULT: -7.983805128      0.000      0.000
REMARK  9 active torsions:
REMARK  status: ('A' for Active; 'I' for Inactive)
REMARK       I    between atoms: C1_4  and  N3_6
REMARK       I    between atoms: N3_6  and  C2_8
REMARK       I    between atoms: C2_8  and  N4_10
REMARK    1  A    between atoms: N4_10  and  C3_12
REMARK    2  A    between atoms: C3_12  and  O2_13
REMARK    3  A    between atoms: C3_12  and  C4_15
REMARK    4  A    between atoms: C4_15  and  O3_16
REMARK    5  A    between atoms: C4_15  and  C5_18
REMARK    6  A    between atoms: C6_22  and  C7_23
REMARK    7  A    between atoms: C7_23  and  O6_25
REMARK    8  A    between atoms: O6_25  and  S1_26
REMARK    9  A    between atoms: C8_30  and  O10_31
ROOT
HETATM    1  C4  UNL     1      65.278  98.845 119.624  1.00  0.00     0.228 C
ENDROOT
BRANCH   1   2
HETATM    2  C3  UNL     1      63.988  99.479 119.199  1.00  0.00     0.257 C
BRANCH   2   3
HETATM    3  N4  UNL     1      63.050  98.567 118.617  1.00  0.00    -0.314 N
HETATM    4  C2  UNL     1      61.909  98.957 117.889  1.00  0.00     0.324 C
HETATM    5  N3  UNL     1      61.014  98.011 117.334  1.00  0.00    -0.283 N
HETATM    6  O1  UNL     1      61.671 100.174 117.721  1.00  0.00    -0.247 OA
HETATM    7  C1  UNL     1      59.858  98.390 116.596  1.00  0.00     0.189 C
ATOM      8  H3  UNL     1      61.205  97.019 117.470  1.00  0.00     0.173 HD
HETATM    9  N1  UNL     1      59.069  97.503 116.108  1.00  0.00    -0.373 N
HETATM   10  N2  UNL     1      59.548  99.778 116.377  1.00  0.00    -0.064 NA
ATOM     11  H12 UNL     1      58.240  97.774 115.579  1.00  0.00     0.158 HD
ATOM     12  H11 UNL     1      59.289  96.519 116.264  1.00  0.00     0.158 HD
ATOM     13  H4  UNL     1      63.220  97.568 118.737  1.00  0.00     0.167 HD
ENDBRANCH   2   3
BRANCH   2  14
HETATM   14  O2  UNL     1      64.288 100.423 118.190  1.00  0.00    -0.374 OA
ATOM     15  H2  UNL     1      64.147 101.277 118.581  1.00  0.00     0.212 HD
ENDBRANCH   2  14
ENDBRANCH   1   2
BRANCH   1  16
HETATM   16  O3  UNL     1      66.236  99.803 119.979  1.00  0.00    -0.384 OA
ATOM     17  H3  UNL     1      66.553 100.283 119.223  1.00  0.00     0.210 HD
ENDBRANCH   1  16
BRANCH   1  18
HETATM   18  C5  UNL     1      65.835  98.072 118.499  1.00  0.00     0.144 A
HETATM   19  O4  UNL     1      65.658  98.317 117.231  1.00  0.00    -0.236 OA
HETATM   20  N5  UNL     1      66.279  97.455 116.498  1.00  0.00    -0.252 N
HETATM   21  C6  UNL     1      66.918  96.567 117.309  1.00  0.00     0.166 A
ATOM     22  H5  UNL     1      66.289  97.441 115.477  1.00  0.00     0.195 HD
HETATM   23  C8  UNL     1      66.638  96.956 118.594  1.00  0.00     0.135 A
BRANCH  21  24
HETATM   24  C7  UNL     1      67.717  95.455 116.811  1.00  0.00     0.331 C
HETATM   25  O5  UNL     1      67.542  95.016 115.632  1.00  0.00    -0.256 OA
BRANCH  24  26
HETATM   26  O6  UNL     1      68.687  94.815 117.547  1.00  0.00    -0.171 OA
BRANCH  26  27
HETATM   27  S1  UNL     1      68.501  93.345 118.337  1.00  0.00     0.259 S
HETATM   28  O7  UNL     1      67.108  92.812 118.078  1.00  0.00    -0.572 OA
HETATM   29  O8  UNL     1      68.598  93.587 119.829  1.00  0.00    -0.572 OA
HETATM   30  O9  UNL     1      69.643  92.218 117.926  1.00  0.00    -0.572 OA
ENDBRANCH  26  27
ENDBRANCH  24  26
ENDBRANCH  21  24
BRANCH  23  31
HETATM   31  O10 UNL     1      67.090  96.329 119.756  1.00  0.00    -0.356 OA
ATOM     32  H10 UNL     1      66.868  95.460 120.070  1.00  0.00     0.218 HD
ENDBRANCH  23  31
ENDBRANCH   1  18
TORSDOF 9
ENDMDL