MODEL 3
REMARK VINA RESULT: -8.442975608      1.669      2.134
REMARK  7 active torsions:
REMARK  status: ('A' for Active; 'I' for Inactive)
REMARK    1  A    between atoms: N1_1  and  N2_4
REMARK    2  A    between atoms: C4_9  and  C5_10
REMARK    3  A    between atoms: N4_12  and  O1_14
REMARK    4  A    between atoms: N5_16  and  O2_17
REMARK    5  A    between atoms: C7_21  and  O4_22
REMARK    6  A    between atoms: N6_26  and  N7_27
REMARK       I    between atoms: N7_27  and  C9_29
REMARK       I    between atoms: C9_29  and  N8_31
REMARK    7  A    between atoms: N8_31  and  N9_33
ROOT
HETATM    1  N2  UNL     1      65.110  98.143 116.528  1.00  0.00    -0.290 N
ATOM      2  H2  UNL     1      65.874  97.868 115.910  1.00  0.00     0.188 HD
HETATM    3  C1  UNL     1      65.196  97.514 117.582  1.00  0.00     0.159 A
HETATM    4  C2  UNL     1      66.270  96.517 117.820  1.00  0.00     0.068 A
HETATM    5  C3  UNL     1      66.152  96.026 119.120  1.00  0.00     0.084 A
HETATM    6  C4  UNL     1      67.070  95.073 119.504  1.00  0.00     0.126 A
HETATM    7  N5  UNL     1      68.032  94.639 118.639  1.00  0.00    -0.181 N
HETATM    8  C6  UNL     1      68.161  95.089 117.397  1.00  0.00     0.306 A
HETATM    9  O3  UNL     1      69.066  94.650 116.652  1.00  0.00    -0.263 OA
HETATM   10  C7  UNL     1      67.238  96.067 116.980  1.00  0.00     0.151 A
HETATM   11  C8  UNL     1      65.020  96.686 119.725  1.00  0.00     0.282 A
HETATM   12  O5  UNL     1      64.574  96.536 120.863  1.00  0.00    -0.265 OA
HETATM   13  N6  UNL     1      64.438  97.606 118.757  1.00  0.00    -0.197 N
ENDROOT
BRANCH  13  14
HETATM   14  N7  UNL     1      63.333  98.423 119.034  1.00  0.00    -0.239 N
HETATM   15  C9  UNL     1      62.089  98.374 118.358  1.00  0.00     0.358 C
HETATM   16  O6  UNL     1      61.931  97.541 117.430  1.00  0.00    -0.244 OA
HETATM   17  N8  UNL     1      61.023  99.234 118.698  1.00  0.00    -0.190 N
ATOM     18  H8  UNL     1      61.137  99.915 119.449  1.00  0.00     0.198 HD
ATOM     19  H7  UNL     1      63.432  99.108 119.783  1.00  0.00     0.192 HD
BRANCH  17  20
HETATM   20  N9  UNL     1      59.820  99.152 118.012  1.00  0.00    -0.035 N
HETATM   21  O7  UNL     1      58.802  98.716 118.635  1.00  0.00    -0.516 OA
HETATM   22  O8  UNL     1      59.706  99.531 116.692  1.00  0.00    -0.516 OA
ENDBRANCH  17  20
ENDBRANCH  13  14
BRANCH   1  23
HETATM   23  N1  UNL     1      64.360  99.059 115.917  1.00  0.00    -0.344 N
ATOM     24  H12 UNL     1      63.851  99.571 116.637  1.00  0.00     0.176 HD
ATOM     25  H11 UNL     1      64.130  99.415 114.989  1.00  0.00     0.176 HD
ENDBRANCH   1  23
BRANCH  10  26
HETATM   26  O4  UNL     1      67.379  96.525 115.701  1.00  0.00    -0.355 OA
ATOM     27  H4  UNL     1      66.865  96.192 114.975  1.00  0.00     0.218 HD
ENDBRANCH  10  26
BRANCH   6  28
HETATM   28  C5  UNL     1      67.042  94.498 120.816  1.00  0.00     0.166 C
HETATM   29  N3  UNL     1      66.523  93.149 121.011  1.00  0.00    -0.078 NA
HETATM   30  N4  UNL     1      67.460  95.029 121.865  1.00  0.00    -0.253 N
ATOM     31  H4  UNL     1      67.860  95.963 121.783  1.00  0.00     0.195 HD
BRANCH  30  32
HETATM   32  O1  UNL     1      67.432  94.477 123.105  1.00  0.00    -0.288 OA
ATOM     33  H1  UNL     1      67.533  93.555 123.309  1.00  0.00     0.244 HD
ENDBRANCH  30  32
ENDBRANCH   6  28
BRANCH   7  34
HETATM   34  O2  UNL     1      68.898  93.674 119.111  1.00  0.00    -0.279 OA
ATOM     35  H2  UNL     1      69.098  93.699 120.040  1.00  0.00     0.245 HD
ENDBRANCH   7  34
TORSDOF 7
ENDMDL