MODEL 4
REMARK VINA RESULT: -6.542676583      2.169      2.768
REMARK  11 active torsions:
REMARK  status: ('A' for Active; 'I' for Inactive)
REMARK    1  A    between atoms: S1_2  and  C2_3
REMARK    2  A    between atoms: C2_3  and  C3_4
REMARK    3  A    between atoms: C3_4  and  O1_5
REMARK    4  A    between atoms: C5_9  and  O3_10
REMARK    5  A    between atoms: C5_9  and  C6_12
REMARK    6  A    between atoms: C6_12  and  O4_14
REMARK    7  A    between atoms: C9_19  and  S2_20
REMARK    8  A    between atoms: S2_20  and  C10_21
REMARK    9  A    between atoms: C10_21  and  N3_25
REMARK   10  A    between atoms: N3_25  and  N4_27
REMARK   11  A    between atoms: N4_27  and  N5_28
ROOT
HETATM    1  C3  UNL     1      63.936  99.077 120.128  1.00  0.00     0.276 C
HETATM    2  O2  UNL     1      63.380 100.083 119.392  1.00  0.00    -0.333 OA
HETATM    3  C4  UNL     1      62.612  99.696 118.328  1.00  0.00     0.222 C
HETATM    4  C5  UNL     1      63.510  98.982 117.341  1.00  0.00     0.164 C
HETATM    5  C8  UNL     1      64.039  97.782 118.038  1.00  0.00     0.145 A
HETATM    6  N1  UNL     1      64.399  96.549 117.650  1.00  0.00    -0.321 N
ATOM      7  H1  UNL     1      64.368  96.185 116.699  1.00  0.00     0.169 HD
HETATM    8  C9  UNL     1      64.807  95.886 118.733  1.00  0.00     0.168 A
HETATM    9  N6  UNL     1      64.687  96.732 119.771  1.00  0.00    -0.271 N
ATOM     10  H6  UNL     1      64.925  96.506 120.737  1.00  0.00     0.189 HD
HETATM   11  N7  UNL     1      64.221  97.885 119.367  1.00  0.00    -0.214 N
ENDROOT
BRANCH   8  12
HETATM   12  S2  UNL     1      65.405  94.191 118.817  1.00  0.00    -0.016 SA
BRANCH  12  13
HETATM   13  C10 UNL     1      65.830  93.589 117.195  1.00  0.00     0.158 C
HETATM   14  N2  UNL     1      66.892  94.036 116.641  1.00  0.00    -0.379 N
ATOM     15  H22 UNL     1      67.488  94.718 117.108  1.00  0.00     0.158 HD
ATOM     16  H21 UNL     1      67.135  93.691 115.712  1.00  0.00     0.158 HD
BRANCH  13  17
HETATM   17  N3  UNL     1      64.997  92.636 116.542  1.00  0.00    -0.264 N
ATOM     18  H3  UNL     1      64.829  92.756 115.543  1.00  0.00     0.186 HD
BRANCH  17  19
HETATM   19  N4  UNL     1      64.403  91.558 117.170  1.00  0.00    -0.028 NA
BRANCH  19  20
HETATM   20  N5  UNL     1      63.289  91.069 116.491  1.00  0.00    -0.329 N
ATOM     21  H52 UNL     1      62.344  91.409 116.671  1.00  0.00     0.174 HD
ATOM     22  H51 UNL     1      63.516  90.348 115.806  1.00  0.00     0.174 HD
ENDBRANCH  19  20
ENDBRANCH  17  19
ENDBRANCH  13  17
ENDBRANCH  12  13
ENDBRANCH   8  12
BRANCH   4  23
HETATM   23  O3  UNL     1      64.583  99.824 117.075  1.00  0.00    -0.377 OA
ATOM     24  H3  UNL     1      65.243  99.657 117.737  1.00  0.00     0.211 HD
ENDBRANCH   4  23
BRANCH   4  25
HETATM   25  C6  UNL     1      62.764  98.609 116.079  1.00  0.00     0.158 C
HETATM   26  C7  UNL     1      61.978  99.769 115.526  1.00  0.00     0.043 C
BRANCH  25  27
HETATM   27  O4  UNL     1      63.671  98.198 115.105  1.00  0.00    -0.392 OA
ATOM     28  H4  UNL     1      63.573  97.266 114.952  1.00  0.00     0.210 HD
ENDBRANCH  25  27
ENDBRANCH   4  25
BRANCH   1  29
HETATM   29  C2  UNL     1      63.030  98.765 121.307  1.00  0.00     0.169 C
BRANCH  29  30
HETATM   30  S1  UNL     1      63.121 100.101 122.546  1.00  0.00    -0.166 SA
HETATM   31  C1  UNL     1      61.529 100.954 122.575  1.00  0.00     0.090 C
ENDBRANCH  29  30
ENDBRANCH   1  29
BRANCH   1  32
HETATM   32  O1  UNL     1      65.129  99.588 120.694  1.00  0.00    -0.347 OA
ATOM     33  H1  UNL     1      65.834  99.212 120.180  1.00  0.00     0.215 HD
ENDBRANCH   1  32
TORSDOF 11
ENDMDL