MODEL 3
REMARK VINA RESULT: -8.861974380      6.514     11.444
REMARK  6 active torsions:
REMARK  status: ('A' for Active; 'I' for Inactive)
REMARK    1  A    between atoms: C5_13  and  C6_14
REMARK    2  A    between atoms: N3_15  and  O5_17
REMARK    3  A    between atoms: C7_21  and  N5_22
REMARK    4  A    between atoms: N5_22  and  N6_24
REMARK    5  A    between atoms: C8_26  and  C9_27
REMARK    6  A    between atoms: C11_33  and  O8_34
ROOT
HETATM    1  O1  UNL     1      63.606 106.564 116.738  1.00  0.00    -0.247 OA
HETATM    2  C1  UNL     1      63.539 105.374 116.321  1.00  0.00     0.325 C
HETATM    3  N1  UNL     1      63.794 104.935 114.989  1.00  0.00    -0.275 N
ATOM      4  H1  UNL     1      64.064 105.539 114.213  1.00  0.00     0.173 HD
HETATM    5  C2  UNL     1      63.616 103.526 114.908  1.00  0.00     0.286 C
HETATM    6  O2  UNL     1      63.865 102.861 113.876  1.00  0.00    -0.267 OA
HETATM    7  C3  UNL     1      63.108 103.064 116.225  1.00  0.00     0.268 C
HETATM    8  N2  UNL     1      63.196 104.227 117.085  1.00  0.00    -0.299 N
ATOM      9  H2  UNL     1      63.035 104.222 118.092  1.00  0.00     0.168 HD
HETATM   10  O3  UNL     1      64.028 102.107 116.715  1.00  0.00    -0.273 OA
HETATM   11  C4  UNL     1      63.661 100.748 116.804  1.00  0.00     0.289 C
HETATM   12  O4  UNL     1      64.138 100.010 117.690  1.00  0.00    -0.262 OA
HETATM   13  C5  UNL     1      62.692 100.326 115.770  1.00  0.00     0.220 C
HETATM   14  N4  UNL     1      61.577 101.184 115.728  1.00  0.00    -0.379 N
ATOM     15  H4  UNL     1      60.682 100.842 115.379  1.00  0.00     0.156 HD
HETATM   16  C7  UNL     1      61.701 102.521 116.169  1.00  0.00     0.261 C
ENDROOT
BRANCH  16  17
HETATM   17  N5  UNL     1      60.817 103.467 115.463  1.00  0.00    -0.308 N
ATOM     18  H5  UNL     1      60.787 103.422 114.444  1.00  0.00     0.182 HD
BRANCH  17  19
HETATM   19  N6  UNL     1      60.044 104.388 116.076  1.00  0.00    -0.311 N
HETATM   20  C8  UNL     1      59.807 105.598 116.057  1.00  0.00     0.148 C
ATOM     21  H6  UNL     1      59.468 103.936 116.787  1.00  0.00     0.185 HD
BRANCH  20  22
HETATM   22  C9  UNL     1      60.333 106.679 115.256  1.00  0.00     0.148 A
HETATM   23  O6  UNL     1      60.347 107.958 115.649  1.00  0.00    -0.255 OA
HETATM   24  C10 UNL     1      60.873 108.712 114.739  1.00  0.00     0.372 A
HETATM   25  O7  UNL     1      61.059 109.962 114.739  1.00  0.00    -0.238 OA
HETATM   26  N7  UNL     1      61.232 107.947 113.696  1.00  0.00    -0.280 N
HETATM   27  C11 UNL     1      60.889 106.676 114.029  1.00  0.00     0.180 A
ATOM     28  H7  UNL     1      61.673 108.258 112.830  1.00  0.00     0.173 HD
BRANCH  27  29
HETATM   29  O8  UNL     1      61.108 105.603 113.194  1.00  0.00    -0.344 OA
ATOM     30  H8  UNL     1      61.729 105.531 112.478  1.00  0.00     0.219 HD
ENDBRANCH  27  29
ENDBRANCH  20  22
ENDBRANCH  17  19
ENDBRANCH  16  17
BRANCH  13  31
HETATM   31  C6  UNL     1      62.195  98.961 116.174  1.00  0.00     0.121 C
HETATM   32  N3  UNL     1      62.954  97.947 116.056  1.00  0.00    -0.282 N
ATOM     33  H3  UNL     1      62.566  97.049 116.345  1.00  0.00     0.193 HD
BRANCH  32  34
HETATM   34  O5  UNL     1      64.224  97.939 115.586  1.00  0.00    -0.290 OA
ATOM     35  H5  UNL     1      65.021  97.946 116.105  1.00  0.00     0.244 HD
ENDBRANCH  32  34
ENDBRANCH  13  31
TORSDOF 6
ENDMDL