MODEL 1
REMARK VINA RESULT: -8.627033831      0.000      0.000
REMARK  7 active torsions:
REMARK  status: ('A' for Active; 'I' for Inactive)
REMARK    1  A    between atoms: C2_2  and  C3_3
REMARK    2  A    between atoms: C3_3  and  N1_4
REMARK    3  A    between atoms: N3_13  and  C7_14
REMARK    4  A    between atoms: C10_17  and  N4_18
REMARK       I    between atoms: N4_18  and  C11_20
REMARK    5  A    between atoms: C11_20  and  C12_22
REMARK    6  A    between atoms: N5_24  and  O2_25
REMARK    7  A    between atoms: N8_29  and  O3_30
ROOT
HETATM    1  C7  UNL     1      62.464 101.767 116.922  1.00  0.00     0.103 A
HETATM    2  C8  UNL     1      61.218 101.977 116.415  1.00  0.00     0.051 A
HETATM    3  C9  UNL     1      60.706 103.238 116.324  1.00  0.00     0.035 A
HETATM    4  C10 UNL     1      61.470 104.343 116.757  1.00  0.00     0.050 A
HETATM    5  C14 UNL     1      62.719 104.082 117.261  1.00  0.00     0.119 A
HETATM    6  N9  UNL     1      63.167 102.835 117.327  1.00  0.00    -0.350 N
ATOM      7  H9  UNL     1      64.100 102.680 117.708  1.00  0.00     0.166 HD
ENDROOT
BRANCH   4   8
HETATM    8  N4  UNL     1      60.878 105.597 116.656  1.00  0.00    -0.323 N
HETATM    9  C11 UNL     1      61.060 106.515 115.635  1.00  0.00     0.267 C
HETATM   10  O1  UNL     1      61.811 106.273 114.659  1.00  0.00    -0.269 OA
ATOM     11  H4  UNL     1      60.246 105.869 117.410  1.00  0.00     0.169 HD
BRANCH   9  12
HETATM   12  C12 UNL     1      60.352 107.866 115.651  1.00  0.00     0.230 C
HETATM   13  C13 UNL     1      58.886 107.641 115.536  1.00  0.00     0.069 C
HETATM   14  N5  UNL     1      60.773 108.539 116.832  1.00  0.00    -0.056 NA
HETATM   15  N6  UNL     1      60.869 109.871 116.451  1.00  0.00    -0.009 NA
HETATM   16  N7  UNL     1      60.986 109.918 115.078  1.00  0.00    -0.009 NA
HETATM   17  N8  UNL     1      60.930 108.628 114.587  1.00  0.00    -0.056 NA
BRANCH  14  18
HETATM   18  O2  UNL     1      59.952 108.371 117.888  1.00  0.00    -0.293 OA
ATOM     19  H2  UNL     1      59.419 107.585 117.848  1.00  0.00     0.238 HD
ENDBRANCH  14  18
BRANCH  17  20
HETATM   20  O3  UNL     1      60.316 108.510 113.411  1.00  0.00    -0.293 OA
ATOM     21  H3  UNL     1      59.963 109.318 113.059  1.00  0.00     0.238 HD
ENDBRANCH  17  20
ENDBRANCH   9  12
ENDBRANCH   4   8
BRANCH   1  22
HETATM   22  N3  UNL     1      63.076 100.514 117.081  1.00  0.00    -0.353 N
HETATM   23  C2  UNL     1      62.998  99.594 118.171  1.00  0.00     0.069 C
HETATM   24  C1  UNL     1      64.461  99.144 118.416  1.00  0.00     0.042 C
HETATM   25  C4  UNL     1      62.203  98.403 117.668  1.00  0.00     0.146 C
HETATM   26  N2  UNL     1      62.061  98.438 116.226  1.00  0.00    -0.417 N
HETATM   27  C5  UNL     1      63.255  98.751 115.510  1.00  0.00     0.133 C
ATOM     28  H2  UNL     1      61.174  98.253 115.758  1.00  0.00     0.153 HD
HETATM   29  C6  UNL     1      63.908 100.043 115.948  1.00  0.00     0.144 C
BRANCH  23  30
HETATM   30  C3  UNL     1      62.538 100.132 119.479  1.00  0.00     0.262 C
BRANCH  30  31
HETATM   31  N1  UNL     1      63.581 100.087 120.492  1.00  0.00    -0.077 N
ATOM     32  H13 UNL     1      63.985  99.153 120.564  1.00  0.00     0.274 HD
ATOM     33  H12 UNL     1      64.409 100.599 120.190  1.00  0.00     0.274 HD
ATOM     34  H11 UNL     1      63.255 100.418 121.400  1.00  0.00     0.274 HD
ENDBRANCH  30  31
ENDBRANCH  23  30
ENDBRANCH   1  22
TORSDOF 7
ENDMDL