MODEL 2
REMARK VINA RESULT: -6.916308414      1.817      2.527
REMARK  10 active torsions:
REMARK  status: ('A' for Active; 'I' for Inactive)
REMARK    1  A    between atoms: C3_4  and  O1_5
REMARK    2  A    between atoms: C3_4  and  N2_7
REMARK    3  A    between atoms: N2_7  and  O2_8
REMARK    4  A    between atoms: O2_8  and  N3_9
REMARK    5  A    between atoms: C6_15  and  N5_16
REMARK    6  A    between atoms: C7_22  and  S1_23
REMARK    7  A    between atoms: S1_23  and  C8_24
REMARK    8  A    between atoms: C8_24  and  C9_25
REMARK    9  A    between atoms: C9_25  and  N8_30
REMARK   10  A    between atoms: N7_26  and  O3_28
ROOT
HETATM    1  C1  UNL     1      65.403  96.213 123.132  1.00  0.00     0.171 C
HETATM    2  N1  UNL     1      65.869  96.790 121.863  1.00  0.00    -0.324 N
HETATM    3  C2  UNL     1      65.658  98.192 121.622  1.00  0.00     0.225 C
HETATM    4  C3  UNL     1      65.512  98.522 120.165  1.00  0.00     0.255 C
HETATM    5  N6  UNL     1      66.234  97.615 119.299  1.00  0.00    -0.321 N
ATOM      6  H6  UNL     1      66.423  97.917 118.344  1.00  0.00     0.166 HD
HETATM    7  C7  UNL     1      66.698  96.332 119.694  1.00  0.00     0.158 C
HETATM    8  N9  UNL     1      66.503  95.982 120.918  1.00  0.00    -0.282 N
ATOM      9  H9  UNL     1      66.831  95.062 121.213  1.00  0.00     0.189 HD
ENDROOT
BRANCH   4  10
HETATM   10  O1  UNL     1      66.028  99.806 119.934  1.00  0.00    -0.354 OA
ATOM     11  H1  UNL     1      65.721 100.115 119.090  1.00  0.00     0.214 HD
ENDBRANCH   4  10
BRANCH   4  12
HETATM   12  N2  UNL     1      64.078  98.478 119.835  1.00  0.00    -0.016 NA
BRANCH  12  13
HETATM   13  O2  UNL     1      64.002  98.193 118.522  1.00  0.00    -0.182 OA
BRANCH  13  14
HETATM   14  N3  UNL     1      63.872  99.298 117.758  1.00  0.00    -0.118 NA
HETATM   15  C4  UNL     1      62.468  99.563 117.459  1.00  0.00     0.154 C
HETATM   16  C5  UNL     1      62.144  98.354 116.577  1.00  0.00     0.253 C
HETATM   17  N4  UNL     1      63.408  97.924 116.033  1.00  0.00    -0.030 N
HETATM   18  C6  UNL     1      64.372  98.960 116.430  1.00  0.00     0.483 C
ATOM     19  H42 UNL     1      63.678  96.982 116.313  1.00  0.00     0.281 HD
ATOM     20  H41 UNL     1      63.385  97.748 115.029  1.00  0.00     0.281 HD
BRANCH  18  21
HETATM   21  N5  UNL     1      64.210 100.054 115.504  1.00  0.00    -0.035 N
ATOM     22  H53 UNL     1      64.783  99.925 114.670  1.00  0.00     0.278 HD
ATOM     23  H52 UNL     1      63.289 100.038 115.067  1.00  0.00     0.278 HD
ATOM     24  H51 UNL     1      64.395 100.954 115.947  1.00  0.00     0.278 HD
ENDBRANCH  18  21
ENDBRANCH  13  14
ENDBRANCH  12  13
ENDBRANCH   4  12
BRANCH   7  25
HETATM   25  S1  UNL     1      67.517  95.268 118.499  1.00  0.00    -0.085 SA
BRANCH  25  26
HETATM   26  C8  UNL     1      68.591  94.138 119.448  1.00  0.00     0.160 C
BRANCH  26  27
HETATM   27  C9  UNL     1      68.057  92.782 119.501  1.00  0.00     0.108 C
HETATM   28  N7  UNL     1      68.587  91.840 118.815  1.00  0.00    -0.256 N
ATOM     29  H7  UNL     1      68.205  90.896 118.861  1.00  0.00     0.195 HD
BRANCH  28  30
HETATM   30  O3  UNL     1      69.670  92.107 118.019  1.00  0.00    -0.288 OA
ATOM     31  H3  UNL     1      69.719  91.729 117.149  1.00  0.00     0.244 HD
ENDBRANCH  28  30
BRANCH  27  32
HETATM   32  N8  UNL     1      66.939  92.490 120.318  1.00  0.00    -0.377 N
HETATM   33  C10 UNL     1      67.044  92.532 121.783  1.00  0.00     0.150 C
HETATM   34  C11 UNL     1      65.690  92.147 119.668  1.00  0.00     0.150 C
ENDBRANCH  27  32
ENDBRANCH  26  27
ENDBRANCH  25  26
ENDBRANCH   7  25
TORSDOF 10
ENDMDL