MODEL 5
REMARK VINA RESULT: -7.699018892      6.433     10.354
REMARK  9 active torsions:
REMARK  status: ('A' for Active; 'I' for Inactive)
REMARK    1  A    between atoms: C2_2  and  O1_3
REMARK    2  A    between atoms: C2_2  and  C3_5
REMARK    3  A    between atoms: C3_5  and  N1_6
REMARK       I    between atoms: N1_6  and  C4_8
REMARK    4  A    between atoms: C4_8  and  C5_10
REMARK    5  A    between atoms: C7_15  and  O3_16
REMARK    6  A    between atoms: C8_20  and  N5_21
REMARK       I    between atoms: N5_21  and  C9_23
REMARK    7  A    between atoms: C10_28  and  O5_29
REMARK    8  A    between atoms: C10_28  and  N8_31
REMARK    9  A    between atoms: N8_31  and  N9_33
ROOT
HETATM    1  C5  UNL     1      63.096  99.343 117.125  1.00  0.00     0.153 A
HETATM    2  N2  UNL     1      63.570  99.342 118.420  1.00  0.00    -0.284 N
ATOM      3  H2  UNL     1      63.156  99.873 119.187  1.00  0.00     0.188 HD
HETATM    4  N3  UNL     1      64.624  98.570 118.538  1.00  0.00    -0.198 N
HETATM    5  C6  UNL     1      64.916  98.019 117.380  1.00  0.00     0.180 A
HETATM    6  C7  UNL     1      63.942  98.509 116.458  1.00  0.00     0.146 A
HETATM    7  N4  UNL     1      65.954  97.059 117.200  1.00  0.00    -0.172 N
ATOM      8  H4  UNL     1      66.135  96.682 116.270  1.00  0.00     0.186 HD
HETATM    9  C8  UNL     1      66.681  96.654 118.215  1.00  0.00     0.689 C
HETATM   10  N7  UNL     1      66.261  97.114 119.471  1.00  0.00    -0.152 N
ATOM     11  H7  UNL     1      66.503  96.554 120.289  1.00  0.00     0.185 HD
HETATM   12  C10 UNL     1      65.511  98.321 119.680  1.00  0.00     0.356 C
ENDROOT
BRANCH   1  13
HETATM   13  C4  UNL     1      61.929 100.123 116.740  1.00  0.00     0.272 C
HETATM   14  N1  UNL     1      61.223  99.959 115.567  1.00  0.00    -0.353 N
ATOM     15  H1  UNL     1      61.572  99.214 114.963  1.00  0.00     0.162 HD
HETATM   16  O2  UNL     1      61.544 101.021 117.561  1.00  0.00    -0.266 OA
BRANCH  14  17
HETATM   17  C3  UNL     1      60.086 100.655 115.054  1.00  0.00     0.154 C
BRANCH  17  18
HETATM   18  C2  UNL     1      58.862  99.812 115.019  1.00  0.00     0.132 C
HETATM   19  C1  UNL     1      57.998 100.125 113.795  1.00  0.00     0.041 C
BRANCH  18  20
HETATM   20  O1  UNL     1      59.114  98.478 115.012  1.00  0.00    -0.394 OA
ATOM     21  H1  UNL     1      59.424  98.250 114.144  1.00  0.00     0.210 HD
ENDBRANCH  18  20
ENDBRANCH  17  18
ENDBRANCH  14  17
ENDBRANCH   1  13
BRANCH   6  22
HETATM   22  O3  UNL     1      63.992  98.111 115.164  1.00  0.00    -0.355 OA
ATOM     23  H3  UNL     1      63.922  97.255 114.759  1.00  0.00     0.218 HD
ENDBRANCH   6  22
BRANCH  12  24
HETATM   24  O5  UNL     1      66.425  99.390 119.713  1.00  0.00    -0.334 OA
ATOM     25  H5  UNL     1      66.689  99.544 118.813  1.00  0.00     0.216 HD
ENDBRANCH  12  24
BRANCH  12  26
HETATM   26  N8  UNL     1      64.781  98.280 120.910  1.00  0.00    -0.203 N
ATOM     27  H8  UNL     1      63.762  98.276 120.896  1.00  0.00     0.193 HD
BRANCH  26  28
HETATM   28  N9  UNL     1      65.451  98.246 122.116  1.00  0.00    -0.038 N
HETATM   29  O6  UNL     1      66.607  97.816 122.165  1.00  0.00    -0.517 OA
HETATM   30  O7  UNL     1      64.833  98.687 123.248  1.00  0.00    -0.517 OA
ENDBRANCH  26  28
ENDBRANCH  12  26
BRANCH   9  31
HETATM   31  N5  UNL     1      67.717  95.719 118.050  1.00  0.00    -0.144 N
HETATM   32  C9  UNL     1      67.661  94.437 117.499  1.00  0.00     0.346 C
HETATM   33  N6  UNL     1      68.859  93.676 117.434  1.00  0.00    -0.039 NA
HETATM   34  O4  UNL     1      66.594  93.959 117.072  1.00  0.00    -0.250 OA
ATOM     35  H5  UNL     1      68.636  96.019 118.377  1.00  0.00     0.188 HD
ENDBRANCH   9  31
TORSDOF 9
ENDMDL