MODEL 3
REMARK VINA RESULT: -7.884428162      1.217      1.991
REMARK  12 active torsions:
REMARK  status: ('A' for Active; 'I' for Inactive)
REMARK    1  A    between atoms: N1_1  and  C1_5
REMARK    2  A    between atoms: C1_5  and  C2_6
REMARK    3  A    between atoms: C1_5  and  C3_10
REMARK    4  A    between atoms: C2_6  and  N2_7
REMARK       I    between atoms: C3_10  and  N3_12
REMARK    5  A    between atoms: N3_12  and  N4_14
REMARK       I    between atoms: N4_14  and  C4_16
REMARK    6  A    between atoms: C4_16  and  C5_18
REMARK       I    between atoms: C5_18  and  N5_20
REMARK    7  A    between atoms: N5_20  and  O6_22
REMARK    8  A    between atoms: O6_22  and  C6_23
REMARK    9  A    between atoms: C6_23  and  C7_25
REMARK   10  A    between atoms: C8_27  and  O9_28
REMARK   11  A    between atoms: C9_30  and  O10_31
REMARK   12  A    between atoms: C10_33  and  O11_34
ROOT
HETATM    1  C5  UNL     1      63.970  99.529 116.261  1.00  0.00     0.335 C
HETATM    2  O5  UNL     1      63.646  99.122 115.126  1.00  0.00    -0.260 OA
HETATM    3  N5  UNL     1      63.527 100.784 116.712  1.00  0.00    -0.217 N
ATOM      4  H5  UNL     1      63.812 101.085 117.644  1.00  0.00     0.198 HD
ENDROOT
BRANCH   1   5
HETATM    5  C4  UNL     1      64.804  98.694 117.100  1.00  0.00     0.329 C
HETATM    6  N4  UNL     1      65.358  97.508 116.584  1.00  0.00    -0.259 N
ATOM      7  H4  UNL     1      65.166  97.253 115.615  1.00  0.00     0.190 HD
HETATM    8  O4  UNL     1      65.033  99.045 118.315  1.00  0.00    -0.261 OA
BRANCH   6   9
HETATM    9  N3  UNL     1      66.151  96.682 117.343  1.00  0.00    -0.265 N
HETATM   10  C3  UNL     1      65.690  95.586 118.092  1.00  0.00     0.268 C
HETATM   11  O3  UNL     1      64.446  95.315 118.069  1.00  0.00    -0.269 OA
ATOM     12  H3  UNL     1      67.151  96.880 117.366  1.00  0.00     0.190 HD
BRANCH  10  13
HETATM   13  C1  UNL     1      66.614  94.747 118.901  1.00  0.00     0.300 C
BRANCH  13  14
HETATM   14  N1  UNL     1      67.793  95.547 119.191  1.00  0.00    -0.065 N
ATOM     15  H13 UNL     1      68.475  95.535 118.433  1.00  0.00     0.275 HD
ATOM     16  H12 UNL     1      67.602  96.549 119.186  1.00  0.00     0.275 HD
ATOM     17  H11 UNL     1      68.181  95.223 120.076  1.00  0.00     0.275 HD
ENDBRANCH  13  14
BRANCH  13  18
HETATM   18  C2  UNL     1      67.066  93.498 118.178  1.00  0.00     0.243 C
BRANCH  18  19
HETATM   19  N2  UNL     1      68.394  93.693 117.608  1.00  0.00    -0.153 N
HETATM   20  O1  UNL     1      69.352  93.005 118.075  1.00  0.00    -0.536 OA
HETATM   21  O2  UNL     1      68.644  94.576 116.605  1.00  0.00    -0.536 OA
ENDBRANCH  18  19
ENDBRANCH  13  18
ENDBRANCH  10  13
ENDBRANCH   6   9
ENDBRANCH   1   5
BRANCH   3  22
HETATM   22  O6  UNL     1      62.729 101.636 115.971  1.00  0.00    -0.190 OA
BRANCH  22  23
HETATM   23  C6  UNL     1      61.370 101.686 116.108  1.00  0.00     0.342 C
HETATM   24  O7  UNL     1      60.878 102.791 116.498  1.00  0.00    -0.255 OA
BRANCH  23  25
HETATM   25  C7  UNL     1      60.431 100.603 115.849  1.00  0.00     0.191 A
HETATM   26  O8  UNL     1      60.499  99.382 116.293  1.00  0.00    -0.277 OA
HETATM   27  C8  UNL     1      59.520  98.626 115.897  1.00  0.00     0.221 A
HETATM   28  C9  UNL     1      58.697  99.390 115.109  1.00  0.00     0.161 A
HETATM   29  C10 UNL     1      59.271 100.660 115.071  1.00  0.00     0.144 A
BRANCH  27  30
HETATM   30  O9  UNL     1      59.307  97.262 116.203  1.00  0.00    -0.339 OA
ATOM     31  H9  UNL     1      58.875  96.609 115.664  1.00  0.00     0.220 HD
ENDBRANCH  27  30
BRANCH  28  32
HETATM   32  O10 UNL     1      57.523  99.082 114.440  1.00  0.00    -0.354 OA
ATOM     33  H10 UNL     1      57.367  98.733 113.571  1.00  0.00     0.218 HD
ENDBRANCH  28  32
BRANCH  29  34
HETATM   34  O11 UNL     1      58.793 101.772 114.396  1.00  0.00    -0.355 OA
ATOM     35  H11 UNL     1      58.673 101.849 113.457  1.00  0.00     0.218 HD
ENDBRANCH  29  34
ENDBRANCH  23  25
ENDBRANCH  22  23
ENDBRANCH   3  22
TORSDOF 12
ENDMDL