MODEL 5
REMARK VINA RESULT: -8.199726709      4.944      9.145
REMARK  8 active torsions:
REMARK  status: ('A' for Active; 'I' for Inactive)
REMARK    1  A    between atoms: C3_6  and  C4_7
REMARK    2  A    between atoms: C4_7  and  N2_8
REMARK    3  A    between atoms: N2_8  and  N3_10
REMARK    4  A    between atoms: N3_10  and  C5_12
REMARK    5  A    between atoms: N7_21  and  C8_22
REMARK       I    between atoms: N8_27  and  C12_28
REMARK    6  A    between atoms: C12_28  and  C13_30
REMARK    7  A    between atoms: C13_30  and  O3_31
REMARK    8  A    between atoms: C13_30  and  O4_33
ROOT
HETATM    1  N1  UNL     1      60.348  98.100 117.069  1.00  0.00    -0.384 N
ATOM      2  H11 UNL     1      59.597  98.749 116.833  1.00  0.00     0.157 HD
ATOM      3  H12 UNL     1      59.923  97.218 117.353  1.00  0.00     0.157 HD
HETATM    4  C1  UNL     1      61.644  98.312 117.031  1.00  0.00     0.125 A
HETATM    5  C2  UNL     1      62.647  97.446 117.346  1.00  0.00     0.082 A
HETATM    6  C3  UNL     1      63.846  98.098 117.158  1.00  0.00     0.069 A
HETATM    7  N6  UNL     1      63.513  99.330 116.738  1.00  0.00    -0.289 N
ATOM      8  H6  UNL     1      64.187 100.060 116.511  1.00  0.00     0.188 HD
HETATM    9  N7  UNL     1      62.204  99.474 116.657  1.00  0.00    -0.222 N
ENDROOT
BRANCH   9  10
HETATM   10  C8  UNL     1      61.480 100.637 116.250  1.00  0.00     0.144 A
HETATM   11  C9  UNL     1      61.913 101.893 116.626  1.00  0.00     0.057 A
HETATM   12  C10 UNL     1      61.181 102.984 116.209  1.00  0.00     0.080 A
HETATM   13  C11 UNL     1      60.056 102.788 115.439  1.00  0.00     0.269 A
HETATM   14  O1  UNL     1      59.356 103.763 115.037  1.00  0.00    -0.266 OA
HETATM   15  N8  UNL     1      59.640 101.545 115.076  1.00  0.00    -0.181 N
HETATM   16  C12 UNL     1      58.487 101.342 114.288  1.00  0.00     0.300 C
HETATM   17  N9  UNL     1      60.382 100.538 115.506  1.00  0.00    -0.272 N
HETATM   18  O2  UNL     1      57.823 102.320 113.909  1.00  0.00    -0.266 OA
ATOM     19  H9  UNL     1      60.083  99.599 115.242  1.00  0.00     0.189 HD
BRANCH  16  20
HETATM   20  C13 UNL     1      58.082  99.978 113.923  1.00  0.00     0.351 C
BRANCH  20  21
HETATM   21  O3  UNL     1      58.040  99.109 114.989  1.00  0.00    -0.363 OA
ATOM     22  H3  UNL     1      57.169  98.986 115.348  1.00  0.00     0.213 HD
ENDBRANCH  20  21
BRANCH  20  23
HETATM   23  O4  UNL     1      56.789  99.984 113.354  1.00  0.00    -0.363 OA
ATOM     24  H4  UNL     1      56.141 100.221 114.006  1.00  0.00     0.213 HD
ENDBRANCH  20  23
ENDBRANCH  16  20
ENDBRANCH   9  10
BRANCH   6  25
HETATM   25  C4  UNL     1      65.158  97.520 117.385  1.00  0.00     0.138 C
BRANCH  25  26
HETATM   26  N2  UNL     1      66.138  97.757 116.600  1.00  0.00    -0.307 N
ATOM     27  H2  UNL     1      66.299  98.707 116.265  1.00  0.00     0.186 HD
BRANCH  26  28
HETATM   28  N3  UNL     1      66.990  96.727 116.196  1.00  0.00    -0.272 N
ATOM     29  H3  UNL     1      67.401  96.779 115.264  1.00  0.00     0.190 HD
BRANCH  28  30
HETATM   30  C5  UNL     1      67.312  95.618 117.004  1.00  0.00     0.190 C
HETATM   31  N4  UNL     1      66.962  94.406 116.785  1.00  0.00    -0.360 N
HETATM   32  C6  UNL     1      67.434  93.495 117.776  1.00  0.00     0.142 C
ATOM     33  H4  UNL     1      66.401  94.121 115.982  1.00  0.00     0.162 HD
HETATM   34  C7  UNL     1      68.376  94.300 118.615  1.00  0.00     0.142 C
HETATM   35  N5  UNL     1      68.077  95.662 118.194  1.00  0.00    -0.360 N
ATOM     36  H5  UNL     1      68.371  96.510 118.679  1.00  0.00     0.162 HD
ENDBRANCH  28  30
ENDBRANCH  26  28
ENDBRANCH  25  26
ENDBRANCH   6  25
TORSDOF 8
ENDMDL