MODEL 1
REMARK VINA RESULT: -8.411699490      0.000      0.000
REMARK  7 active torsions:
REMARK  status: ('A' for Active; 'I' for Inactive)
REMARK    1  A    between atoms: C3_5  and  N2_6
REMARK    2  A    between atoms: C5_8  and  N3_9
REMARK    3  A    between atoms: C5_8  and  C6_13
REMARK    4  A    between atoms: C7_16  and  C8_17
REMARK    5  A    between atoms: N4_18  and  N5_20
REMARK    6  A    between atoms: N5_20  and  C9_22
REMARK    7  A    between atoms: C13_31  and  N9_32
ROOT
HETATM    1  C1  UNL     1      23.814   8.552   3.596  1.00  0.00     0.089 C
HETATM    2  C2  UNL     1      24.846   8.309   4.645  1.00  0.00     0.080 A
HETATM    3  N1  UNL     1      24.653   8.619   5.934  1.00  0.00    -0.332 N
ATOM      4  H1  UNL     1      23.773   9.038   6.234  1.00  0.00     0.168 HD
HETATM    5  C3  UNL     1      25.641   8.369   6.846  1.00  0.00     0.122 A
HETATM    6  C7  UNL     1      26.831   7.804   6.450  1.00  0.00     0.068 A
HETATM    7  C13 UNL     1      27.007   7.495   5.121  1.00  0.00     0.115 A
HETATM    8  N10 UNL     1      26.012   7.756   4.264  1.00  0.00    -0.332 N
ATOM      9  H10 UNL     1      26.144   7.526   3.278  1.00  0.00     0.168 HD
ENDROOT
BRANCH   6  10
HETATM   10  C8  UNL     1      27.879   7.541   7.444  1.00  0.00     0.126 C
HETATM   11  N4  UNL     1      27.858   6.423   8.042  1.00  0.00    -0.309 N
ATOM     12  H4  UNL     1      27.108   5.780   7.789  1.00  0.00     0.186 HD
BRANCH  11  13
HETATM   13  N5  UNL     1      28.748   5.992   9.001  1.00  0.00    -0.283 N
ATOM     14  H5  UNL     1      29.455   6.623   9.377  1.00  0.00     0.188 HD
BRANCH  13  15
HETATM   15  C9  UNL     1      28.659   4.648   9.454  1.00  0.00     0.158 A
HETATM   16  N6  UNL     1      27.705   4.183  10.137  1.00  0.00    -0.368 N
HETATM   17  C10 UNL     1      27.563   2.859  10.614  1.00  0.00     0.165 A
ATOM     18  H6  UNL     1      26.954   4.833  10.370  1.00  0.00     0.161 HD
HETATM   19  C11 UNL     1      28.679   1.955  10.255  1.00  0.00     0.082 A
HETATM   20  N7  UNL     1      29.704   2.550   9.492  1.00  0.00    -0.354 N
HETATM   21  C12 UNL     1      29.766   3.751   9.095  1.00  0.00     0.161 A
ATOM     22  H7  UNL     1      30.484   1.946   9.231  1.00  0.00     0.166 HD
HETATM   23  N8  UNL     1      30.866   4.244   8.320  1.00  0.00    -0.079 NA
ENDBRANCH  13  15
ENDBRANCH  11  13
ENDBRANCH   6  10
BRANCH   5  24
HETATM   24  N2  UNL     1      25.361   8.730   8.196  1.00  0.00    -0.319 N
HETATM   25  C4  UNL     1      25.649   9.682   9.312  1.00  0.00     0.201 A
HETATM   26  C5  UNL     1      24.706   8.597   9.482  1.00  0.00     0.303 A
BRANCH  26  27
HETATM   27  N3  UNL     1      23.294   8.990   9.561  1.00  0.00    -0.040 N
ATOM     28  H33 UNL     1      23.206   9.982   9.343  1.00  0.00     0.278 HD
ATOM     29  H32 UNL     1      22.783   8.578   8.781  1.00  0.00     0.278 HD
ATOM     30  H31 UNL     1      22.801   8.789  10.432  1.00  0.00     0.278 HD
ENDBRANCH  26  27
BRANCH  26  31
HETATM   31  C6  UNL     1      25.071   7.496  10.399  1.00  0.00     0.234 C
HETATM   32  O1  UNL     1      25.765   6.507  10.007  1.00  0.00    -0.645 OA
HETATM   33  O2  UNL     1      24.674   7.499  11.710  1.00  0.00    -0.645 OA
ENDBRANCH  26  31
ENDBRANCH   5  24
BRANCH   7  34
HETATM   34  N9  UNL     1      28.122   6.969   4.763  1.00  0.00    -0.385 N
ATOM     35  H92 UNL     1      28.183   6.150   4.159  1.00  0.00     0.157 HD
ATOM     36  H91 UNL     1      28.985   7.393   5.103  1.00  0.00     0.157 HD
ENDBRANCH   7  34
TORSDOF 7
ENDMDL