MODEL 2
REMARK VINA RESULT: -8.981474803      1.767      2.345
REMARK  6 active torsions:
REMARK  status: ('A' for Active; 'I' for Inactive)
REMARK    1  A    between atoms: C3_4  and  N2_5
REMARK    2  A    between atoms: N2_5  and  N3_7
REMARK    3  A    between atoms: N3_7  and  C4_9
REMARK    4  A    between atoms: C4_9  and  C5_13
REMARK    5  A    between atoms: C6_21  and  S2_22
REMARK    6  A    between atoms: S2_22  and  N9_23
ROOT
HETATM    1  N1  UNL     1      28.045   6.975   6.379  1.00  0.00    -0.191 NA
HETATM    2  C1  UNL     1      27.374   7.326   7.253  1.00  0.00     0.108 C
HETATM    3  C2  UNL     1      26.529   7.752   8.373  1.00  0.00     0.147 A
HETATM    4  C3  UNL     1      27.058   7.780   9.639  1.00  0.00     0.118 A
HETATM    5  S1  UNL     1      26.007   8.284  10.870  1.00  0.00    -0.038 SA
HETATM    6  C6  UNL     1      24.446   8.675  10.299  1.00  0.00     0.195 A
HETATM    7  N10 UNL     1      24.312   8.518   8.986  1.00  0.00    -0.305 N
ATOM      8  H10 UNL     1      23.395   8.738   8.596  1.00  0.00     0.170 HD
HETATM    9  C7  UNL     1      25.231   8.111   8.126  1.00  0.00     0.270 A
HETATM   10  O3  UNL     1      24.839   8.048   6.903  1.00  0.00    -0.266 OA
ENDROOT
BRANCH   4  11
HETATM   11  N2  UNL     1      28.430   7.396   9.869  1.00  0.00    -0.291 N
ATOM     12  H2  UNL     1      28.659   6.495  10.289  1.00  0.00     0.187 HD
BRANCH  11  13
HETATM   13  N3  UNL     1      29.435   8.289   9.502  1.00  0.00    -0.282 N
ATOM     14  H3  UNL     1      29.315   9.291   9.648  1.00  0.00     0.188 HD
BRANCH  13  15
HETATM   15  C4  UNL     1      30.619   7.787   8.927  1.00  0.00     0.160 C
HETATM   16  N4  UNL     1      31.505   8.598   8.490  1.00  0.00    -0.381 N
ATOM     17  H42 UNL     1      31.345   9.603   8.562  1.00  0.00     0.157 HD
ATOM     18  H41 UNL     1      32.363   8.235   8.074  1.00  0.00     0.157 HD
BRANCH  15  19
HETATM   19  C5  UNL     1      30.846   6.362   8.824  1.00  0.00     0.177 A
HETATM   20  N5  UNL     1      30.492   5.528   7.804  1.00  0.00    -0.267 N
HETATM   21  N6  UNL     1      30.879   4.291   8.093  1.00  0.00    -0.007 NA
ATOM     22  H5  UNL     1      30.006   5.810   6.952  1.00  0.00     0.185 HD
HETATM   23  N7  UNL     1      31.474   4.304   9.271  1.00  0.00    -0.007 NA
HETATM   24  N8  UNL     1      31.456   5.550   9.716  1.00  0.00    -0.267 N
ATOM     25  H8  UNL     1      31.847   5.856  10.607  1.00  0.00     0.185 HD
ENDBRANCH  15  19
ENDBRANCH  13  15
ENDBRANCH  11  13
ENDBRANCH   4  11
BRANCH   6  26
HETATM   26  S2  UNL     1      23.124   9.227  11.307  1.00  0.00     0.279 S
HETATM   27  O1  UNL     1      22.315  10.289  10.656  1.00  0.00    -0.199 OA
HETATM   28  O2  UNL     1      22.240   8.033  11.644  1.00  0.00    -0.199 OA
BRANCH  26  29
HETATM   29  N9  UNL     1      23.717   9.818  12.813  1.00  0.00    -0.323 N
ATOM     30  H92 UNL     1      24.455  10.517  12.900  1.00  0.00     0.169 HD
ATOM     31  H91 UNL     1      23.228   9.372  13.590  1.00  0.00     0.169 HD
ENDBRANCH  26  29
ENDBRANCH   6  26
TORSDOF 6
ENDMDL