MODEL 1
REMARK VINA RESULT: -8.509084164      0.000      0.000
REMARK  7 active torsions:
REMARK  status: ('A' for Active; 'I' for Inactive)
REMARK    1  A    between atoms: S1_2  and  C2_3
REMARK    2  A    between atoms: C3_6  and  C4_7
REMARK    3  A    between atoms: C4_7  and  O1_8
REMARK    4  A    between atoms: C4_7  and  C5_10
REMARK    5  A    between atoms: C6_13  and  C7_14
REMARK    6  A    between atoms: C7_14  and  N4_18
REMARK    7  A    between atoms: N4_18  and  C8_20
ROOT
HETATM    1  C5  UNL     1      25.596   7.081  10.410  1.00  0.00     0.120 A
HETATM    2  N2  UNL     1      25.678   8.377  10.059  1.00  0.00    -0.338 N
ATOM      3  H2  UNL     1      26.473   8.823   9.601  1.00  0.00     0.167 HD
HETATM    4  C6  UNL     1      24.519   8.992  10.418  1.00  0.00     0.119 A
HETATM    5  C9  UNL     1      23.697   8.034  11.011  1.00  0.00     0.148 A
HETATM    6  N9  UNL     1      22.394   8.267  11.526  1.00  0.00    -0.080 NA
HETATM    7  N10 UNL     1      24.405   6.901  10.977  1.00  0.00    -0.330 N
ATOM      8  H10 UNL     1      24.073   6.008  11.341  1.00  0.00     0.168 HD
ENDROOT
BRANCH   4   9
HETATM    9  C7  UNL     1      24.204  10.394  10.214  1.00  0.00     0.145 C
HETATM   10  N3  UNL     1      24.011  11.152  11.230  1.00  0.00    -0.383 N
ATOM     11  H32 UNL     1      24.082  10.748  12.164  1.00  0.00     0.157 HD
ATOM     12  H31 UNL     1      23.790  12.137  11.088  1.00  0.00     0.157 HD
BRANCH   9  13
HETATM   13  N4  UNL     1      24.105  10.953   8.919  1.00  0.00    -0.172 N
ATOM     14  H4  UNL     1      24.508  11.874   8.746  1.00  0.00     0.186 HD
BRANCH  13  15
HETATM   15  C8  UNL     1      23.522  10.333   7.948  1.00  0.00     0.715 A
HETATM   16  N5  UNL     1      24.109   9.899   6.822  1.00  0.00    -0.115 N
HETATM   17  N6  UNL     1      23.170   9.321   6.097  1.00  0.00    -0.213 N
ATOM     18  H5  UNL     1      25.093   9.996   6.572  1.00  0.00     0.207 HD
HETATM   19  N7  UNL     1      22.013   9.375   6.727  1.00  0.00    -0.213 N
ATOM     20  H6  UNL     1      23.317   8.895   5.182  1.00  0.00     0.210 HD
HETATM   21  N8  UNL     1      22.229   9.998   7.867  1.00  0.00    -0.115 N
ATOM     22  H7  UNL     1      21.122   9.006   6.395  1.00  0.00     0.210 HD
ATOM     23  H8  UNL     1      21.522  10.193   8.576  1.00  0.00     0.207 HD
ENDBRANCH  13  15
ENDBRANCH   9  13
ENDBRANCH   4   9
BRANCH   1  24
HETATM   24  C4  UNL     1      26.647   6.036  10.204  1.00  0.00     0.254 C
BRANCH  24  25
HETATM   25  C3  UNL     1      27.689   6.507   9.238  1.00  0.00     0.135 A
HETATM   26  N1  UNL     1      27.561   6.639   7.850  1.00  0.00    -0.322 N
HETATM   27  C2  UNL     1      28.652   7.072   7.311  1.00  0.00     0.162 A
ATOM     28  H1  UNL     1      26.711   6.420   7.328  1.00  0.00     0.169 HD
HETATM   29  N12 UNL     1      29.563   7.243   8.387  1.00  0.00    -0.274 N
HETATM   30  N11 UNL     1      28.884   6.868   9.561  1.00  0.00    -0.283 N
HETATM   31  C10 UNL     1      30.931   7.716   8.267  1.00  0.00     0.180 C
ATOM     32  H11 UNL     1      29.271   6.879  10.504  1.00  0.00     0.188 HD
BRANCH  27  33
HETATM   33  S1  UNL     1      29.011   7.408   5.594  1.00  0.00    -0.097 SA
HETATM   34  C1  UNL     1      27.739   6.658   4.539  1.00  0.00     0.099 C
ENDBRANCH  27  33
ENDBRANCH  24  25
BRANCH  24  35
HETATM   35  O1  UNL     1      26.023   4.866   9.742  1.00  0.00    -0.380 OA
ATOM     36  H1  UNL     1      26.264   4.118  10.275  1.00  0.00     0.211 HD
ENDBRANCH  24  35
ENDBRANCH   1  24
TORSDOF 7
ENDMDL