MODEL 2
REMARK VINA RESULT: -8.336668460      1.721      2.071
REMARK  8 active torsions:
REMARK  status: ('A' for Active; 'I' for Inactive)
REMARK    1  A    between atoms: S1_2  and  C2_3
REMARK    2  A    between atoms: C3_6  and  N2_7
REMARK    3  A    between atoms: N2_7  and  C4_9
REMARK    4  A    between atoms: C4_9  and  C5_10
REMARK    5  A    between atoms: C7_19  and  O1_20
REMARK    6  A    between atoms: C7_19  and  C8_22
REMARK    7  A    between atoms: C8_22  and  N8_26
REMARK    8  A    between atoms: N8_26  and  N9_28
ROOT
HETATM    1  C5  UNL     1      24.894   7.459  10.633  1.00  0.00     0.090 A
HETATM    2  N3  UNL     1      23.686   7.285  11.165  1.00  0.00    -0.285 N
ATOM      3  H3  UNL     1      23.430   6.592  11.868  1.00  0.00     0.188 HD
HETATM    4  N4  UNL     1      22.885   8.171  10.617  1.00  0.00    -0.238 N
ATOM      5  H4  UNL     1      21.894   8.270  10.835  1.00  0.00     0.208 HD
HETATM    6  N5  UNL     1      23.547   8.919   9.739  1.00  0.00    -0.255 N
HETATM    7  C6  UNL     1      24.815   8.490   9.730  1.00  0.00     0.148 A
HETATM    8  N6  UNL     1      25.567   9.287   8.776  1.00  0.00    -0.334 N
ATOM      9  H6  UNL     1      26.567   9.489   8.772  1.00  0.00     0.164 HD
HETATM   10  C7  UNL     1      24.563   9.726   7.835  1.00  0.00     0.212 C
HETATM   11  C9  UNL     1      23.406  10.025   8.793  1.00  0.00     0.222 C
ENDROOT
BRANCH   1  12
HETATM   12  C4  UNL     1      26.089   6.674  10.968  1.00  0.00     0.200 C
BRANCH  12  13
HETATM   13  N2  UNL     1      26.288   5.539  10.118  1.00  0.00    -0.220 N
ATOM     14  H2  UNL     1      25.458   5.114   9.703  1.00  0.00     0.178 HD
BRANCH  13  15
HETATM   15  C3  UNL     1      27.414   5.016   9.836  1.00  0.00     0.681 A
HETATM   16  N1  UNL     1      28.398   5.665   9.182  1.00  0.00    -0.170 N
HETATM   17  C2  UNL     1      29.586   5.106   8.888  1.00  0.00     0.160 A
ATOM     18  H1  UNL     1      28.233   6.629   8.895  1.00  0.00     0.186 HD
HETATM   19  N11 UNL     1      29.786   3.833   9.275  1.00  0.00    -0.326 N
HETATM   20  C10 UNL     1      28.833   3.144   9.932  1.00  0.00     0.095 A
ATOM     21  H11 UNL     1      30.677   3.381   9.067  1.00  0.00     0.169 HD
HETATM   22  N10 UNL     1      27.651   3.744  10.208  1.00  0.00    -0.181 N
HETATM   23  C11 UNL     1      29.134   1.744  10.325  1.00  0.00     0.089 C
ATOM     24  H10 UNL     1      26.928   3.223  10.705  1.00  0.00     0.185 HD
BRANCH  17  25
HETATM   25  S1  UNL     1      30.862   6.022   8.011  1.00  0.00    -0.098 SA
HETATM   26  C1  UNL     1      30.068   7.136   6.817  1.00  0.00     0.099 C
ENDBRANCH  17  25
ENDBRANCH  13  15
ENDBRANCH  12  13
ENDBRANCH   1  12
BRANCH  10  27
HETATM   27  O1  UNL     1      24.205   8.604   7.093  1.00  0.00    -0.363 OA
ATOM     28  H1  UNL     1      24.811   7.915   7.339  1.00  0.00     0.213 HD
ENDBRANCH  10  27
BRANCH  10  29
HETATM   29  C8  UNL     1      24.921  10.876   7.023  1.00  0.00     0.147 C
HETATM   30  N7  UNL     1      25.111  12.029   7.539  1.00  0.00    -0.384 N
ATOM     31  H72 UNL     1      25.009  12.138   8.548  1.00  0.00     0.157 HD
ATOM     32  H71 UNL     1      25.363  12.836   6.968  1.00  0.00     0.157 HD
BRANCH  29  33
HETATM   33  N8  UNL     1      25.062  10.723   5.621  1.00  0.00    -0.292 N
ATOM     34  H8  UNL     1      25.943  10.996   5.185  1.00  0.00     0.188 HD
BRANCH  33  35
HETATM   35  N9  UNL     1      24.041  10.214   4.812  1.00  0.00    -0.344 N
ATOM     36  H92 UNL     1      23.914  10.633   3.891  1.00  0.00     0.176 HD
ATOM     37  H91 UNL     1      23.432   9.452   5.110  1.00  0.00     0.176 HD
ENDBRANCH  33  35
ENDBRANCH  29  33
ENDBRANCH  10  29
TORSDOF 8
ENDMDL