MODEL 3
REMARK VINA RESULT: -9.050428713      1.865      3.453
REMARK  5 active torsions:
REMARK  status: ('A' for Active; 'I' for Inactive)
REMARK    1  A    between atoms: C2_2  and  C3_3
REMARK    2  A    between atoms: C3_3  and  C4_4
REMARK    3  A    between atoms: C6_7  and  N1_8
REMARK    4  A    between atoms: N1_8  and  C7_10
REMARK    5  A    between atoms: C7_10  and  C8_11
ROOT
HETATM    1  C4  UNL     1      27.902   7.336   6.391  1.00  0.00     0.020 A
HETATM    2  C5  UNL     1      27.015   8.299   5.975  1.00  0.00     0.078 A
HETATM    3  S1  UNL     1      25.673   8.002   6.986  1.00  0.00    -0.064 SA
HETATM    4  C6  UNL     1      26.316   6.679   7.873  1.00  0.00     0.144 A
HETATM    5  N5  UNL     1      27.528   6.539   7.342  1.00  0.00    -0.340 N
ATOM      6  H5  UNL     1      28.157   5.810   7.681  1.00  0.00     0.168 HD
ENDROOT
BRANCH   1   7
HETATM    7  C3  UNL     1      29.259   7.269   5.714  1.00  0.00     0.096 C
BRANCH   7   8
HETATM    8  C2  UNL     1      30.308   7.993   6.535  1.00  0.00     0.090 C
HETATM    9  C1  UNL     1      30.710   9.305   5.848  1.00  0.00     0.047 C
HETATM   10  N6  UNL     1      29.837   8.299   7.861  1.00  0.00    -0.348 N
HETATM   11  C11 UNL     1      29.749   7.672   8.972  1.00  0.00     0.191 C
ATOM     12  H6  UNL     1      29.486   9.254   7.931  1.00  0.00     0.163 HD
HETATM   13  N7  UNL     1      29.208   8.337  10.100  1.00  0.00    -0.063 NA
HETATM   14  N8  UNL     1      30.175   6.304   9.151  1.00  0.00    -0.305 N
HETATM   15  C12 UNL     1      31.068   5.662   8.437  1.00  0.00     0.195 C
ATOM     16  H8  UNL     1      29.735   5.784   9.910  1.00  0.00     0.171 HD
HETATM   17  N9  UNL     1      31.298   4.320   8.829  1.00  0.00    -0.063 NA
HETATM   18  N10 UNL     1      31.806   6.177   7.336  1.00  0.00    -0.320 N
HETATM   19  C13 UNL     1      31.501   7.134   6.550  1.00  0.00     0.123 C
ATOM     20  H10 UNL     1      32.698   5.720   7.149  1.00  0.00     0.169 HD
HETATM   21  N11 UNL     1      32.448   7.409   5.544  1.00  0.00    -0.085 NA
ENDBRANCH   7   8
ENDBRANCH   1   7
BRANCH   4  22
HETATM   22  N1  UNL     1      25.745   5.989   8.834  1.00  0.00    -0.368 N
ATOM     23  H1  UNL     1      25.137   5.200   8.618  1.00  0.00     0.161 HD
BRANCH  22  24
HETATM   24  C7  UNL     1      25.994   6.366  10.184  1.00  0.00     0.148 C
BRANCH  24  25
HETATM   25  C8  UNL     1      25.303   7.636  10.596  1.00  0.00     0.119 C
HETATM   26  C9  UNL     1      24.484   7.497  11.834  1.00  0.00     0.149 C
HETATM   27  N2  UNL     1      25.378   7.859  12.904  1.00  0.00    -0.363 N
HETATM   28  C10 UNL     1      26.390   8.481  12.419  1.00  0.00     0.184 C
ATOM     29  H2  UNL     1      25.229   7.653  13.892  1.00  0.00     0.162 HD
HETATM   30  N3  UNL     1      27.467   8.978  13.231  1.00  0.00    -0.064 NA
HETATM   31  N4  UNL     1      26.302   8.607  11.009  1.00  0.00    -0.357 N
ATOM     32  H4  UNL     1      26.828   9.244  10.412  1.00  0.00     0.162 HD
ENDBRANCH  24  25
ENDBRANCH  22  24
ENDBRANCH   4  22
TORSDOF 5
ENDMDL