MODEL 1
REMARK VINA RESULT: -8.636254765      0.000      0.000
REMARK  9 active torsions:
REMARK  status: ('A' for Active; 'I' for Inactive)
REMARK    1  A    between atoms: C3_7  and  S1_8
REMARK    2  A    between atoms: S1_8  and  C4_9
REMARK    3  A    between atoms: C4_9  and  C5_10
REMARK    4  A    between atoms: C5_10  and  N5_16
REMARK    5  A    between atoms: N3_11  and  N4_13
REMARK    6  A    between atoms: N5_16  and  N6_18
REMARK    7  A    between atoms: N6_18  and  C6_20
REMARK    8  A    between atoms: C7_23  and  N8_24
REMARK    9  A    between atoms: N13_36  and  N14_37
ROOT
HETATM    1  N5  UNL     1      25.289   6.678  10.821  1.00  0.00    -0.273 N
ATOM      2  H5  UNL     1      25.390   6.476  11.816  1.00  0.00     0.189 HD
ENDROOT
BRANCH   1   3
HETATM    3  C5  UNL     1      24.571   7.814  10.402  1.00  0.00     0.120 C
HETATM    4  N3  UNL     1      23.312   7.946  10.539  1.00  0.00    -0.294 N
ATOM      5  H3  UNL     1      22.900   8.813  10.197  1.00  0.00     0.187 HD
BRANCH   3   6
HETATM    6  C4  UNL     1      25.344   8.913   9.762  1.00  0.00     0.161 C
BRANCH   6   7
HETATM    7  S1  UNL     1      24.260   9.605   8.456  1.00  0.00    -0.083 SA
BRANCH   7   8
HETATM    8  C3  UNL     1      24.893   8.968   6.888  1.00  0.00     0.182 A
HETATM    9  N2  UNL     1      26.121   8.579   6.575  1.00  0.00    -0.277 N
HETATM   10  N1  UNL     1      26.122   8.180   5.294  1.00  0.00    -0.286 N
ATOM     11  H2  UNL     1      26.927   8.581   7.201  1.00  0.00     0.189 HD
HETATM   12  C2  UNL     1      24.899   8.315   4.792  1.00  0.00     0.116 A
ATOM     13  H1  UNL     1      26.934   7.829   4.785  1.00  0.00     0.188 HD
HETATM   14  C1  UNL     1      24.346   8.024   3.440  1.00  0.00     0.092 C
HETATM   15  N13 UNL     1      24.112   8.812   5.790  1.00  0.00    -0.226 N
BRANCH  15  16
HETATM   16  N14 UNL     1      22.755   9.111   5.713  1.00  0.00    -0.335 N
ATOM     17 2H14 UNL     1      22.123   8.814   4.969  1.00  0.00     0.177 HD
ATOM     18 1H14 UNL     1      22.210   9.659   6.379  1.00  0.00     0.177 HD
ENDBRANCH  15  16
ENDBRANCH   7   8
ENDBRANCH   6   7
ENDBRANCH   3   6
BRANCH   4  19
HETATM   19  N4  UNL     1      22.452   7.025  11.107  1.00  0.00    -0.344 N
ATOM     20  H42 UNL     1      22.470   6.090  10.699  1.00  0.00     0.176 HD
ATOM     21  H41 UNL     1      21.813   7.196  11.883  1.00  0.00     0.176 HD
ENDBRANCH   4  19
ENDBRANCH   1   3
BRANCH   1  22
HETATM   22  N6  UNL     1      25.856   5.835   9.882  1.00  0.00    -0.128 N
ATOM     23  H6  UNL     1      25.220   5.204   9.394  1.00  0.00     0.205 HD
BRANCH  22  24
HETATM   24  C6  UNL     1      27.082   5.761   9.562  1.00  0.00     0.747 A
HETATM   25  N7  UNL     1      27.766   6.783   9.017  1.00  0.00    -0.018 N
HETATM   26  C7  UNL     1      29.055   6.632   8.704  1.00  0.00     0.705 A
ATOM     27  H7  UNL     1      27.300   7.673   8.843  1.00  0.00     0.203 HD
HETATM   28  N9  UNL     1      29.681   5.456   8.930  1.00  0.00    -0.020 N
HETATM   29  C8  UNL     1      29.001   4.414   9.480  1.00  0.00     0.734 A
ATOM     30  H9  UNL     1      30.667   5.350   8.689  1.00  0.00     0.203 HD
HETATM   31  N10 UNL     1      29.337   3.156   9.818  1.00  0.00    -0.184 N
HETATM   32  N12 UNL     1      27.697   4.567   9.796  1.00  0.00     0.093 N
HETATM   33  C9  UNL     1      28.256   2.520  10.342  1.00  0.00     0.216 A
ATOM     34  H10 UNL     1      30.261   2.743   9.699  1.00  0.00     0.185 HD
HETATM   35  N11 UNL     1      27.265   3.429  10.310  1.00  0.00    -0.260 N
ATOM     36  H11 UNL     1      26.313   3.263  10.636  1.00  0.00     0.189 HD
BRANCH  26  37
HETATM   37  N8  UNL     1      29.691   7.642   8.178  1.00  0.00    -0.234 N
ATOM     38  H82 UNL     1      29.505   7.939   7.220  1.00  0.00     0.174 HD
ATOM     39  H81 UNL     1      30.382   8.131   8.746  1.00  0.00     0.174 HD
ENDBRANCH  26  37
ENDBRANCH  22  24
ENDBRANCH   1  22
TORSDOF 9
ENDMDL