MODEL 2
REMARK VINA RESULT: -7.878948243      2.892      5.813
REMARK  10 active torsions:
REMARK  status: ('A' for Active; 'I' for Inactive)
REMARK    1  A    between atoms: C2_2  and  N1_3
REMARK    2  A    between atoms: C2_2  and  C7_25
REMARK    3  A    between atoms: N1_3  and  N2_5
REMARK       I    between atoms: N2_5  and  C3_7
REMARK    4  A    between atoms: C3_7  and  C4_9
REMARK    5  A    between atoms: C5_14  and  N5_15
REMARK    6  A    between atoms: N5_15  and  N6_17
REMARK    7  A    between atoms: N7_20  and  O2_21
REMARK    8  A    between atoms: C10_32  and  N10_33
REMARK    9  A    between atoms: N10_33  and  N11_35
REMARK   10  A    between atoms: N11_35  and  N12_37
ROOT
HETATM    1  N2  UNL     1      26.342   6.665  10.441  1.00  0.00    -0.264 N
ATOM      2  H2  UNL     1      26.911   6.788  11.278  1.00  0.00     0.190 HD
HETATM    3  C3  UNL     1      26.997   6.518   9.176  1.00  0.00     0.293 C
HETATM    4  O1  UNL     1      26.292   6.370   8.166  1.00  0.00    -0.264 OA
ENDROOT
BRANCH   1   5
HETATM    5  N1  UNL     1      24.961   6.646  10.568  1.00  0.00    -0.300 N
ATOM      6  H1  UNL     1      24.468   5.752  10.553  1.00  0.00     0.186 HD
BRANCH   5   7
HETATM    7  C2  UNL     1      24.285   7.746  10.706  1.00  0.00     0.052 C
HETATM    8  C1  UNL     1      23.076   7.745  11.530  1.00  0.00     0.072 C
BRANCH   7   9
HETATM    9  C7  UNL     1      24.775   8.935  10.025  1.00  0.00     0.103 A
HETATM   10  N8  UNL     1      24.745   9.194   8.696  1.00  0.00    -0.342 N
HETATM   11  C8  UNL     1      25.293  10.398   8.460  1.00  0.00     0.079 A
ATOM     12  H8  UNL     1      24.364   8.570   7.984  1.00  0.00     0.167 HD
HETATM   13  C9  UNL     1      25.459  11.068   7.124  1.00  0.00     0.089 C
HETATM   14  N9  UNL     1      25.671  10.899   9.657  1.00  0.00    -0.329 N
HETATM   15  C10 UNL     1      25.362  10.017  10.634  1.00  0.00     0.151 A
ATOM     16  H9  UNL     1      26.121  11.803   9.800  1.00  0.00     0.168 HD
BRANCH  15  17
HETATM   17  N10 UNL     1      25.589  10.153  12.029  1.00  0.00    -0.269 N
ATOM     18  H10 UNL     1      24.805  10.336  12.655  1.00  0.00     0.190 HD
BRANCH  17  19
HETATM   19  N11 UNL     1      26.780  10.046  12.507  1.00  0.00    -0.248 N
ATOM     20  H11 UNL     1      27.447  10.811  12.411  1.00  0.00     0.207 HD
BRANCH  19  21
HETATM   21  N12 UNL     1      27.143   8.864  13.160  1.00  0.00    -0.331 N
ATOM     22 2H12 UNL     1      27.314   8.877  14.165  1.00  0.00     0.178 HD
ATOM     23 1H12 UNL     1      27.230   8.006  12.616  1.00  0.00     0.178 HD
ENDBRANCH  19  21
ENDBRANCH  17  19
ENDBRANCH  15  17
ENDBRANCH   7   9
ENDBRANCH   5   7
ENDBRANCH   1   5
BRANCH   3  24
HETATM   24  C4  UNL     1      28.446   6.545   9.086  1.00  0.00     0.189 A
HETATM   25  N3  UNL     1      29.111   7.639   9.482  1.00  0.00    -0.277 N
HETATM   26  N4  UNL     1      30.427   7.677   9.408  1.00  0.00    -0.128 N
ATOM     27  H3  UNL     1      28.597   8.444   9.842  1.00  0.00     0.188 HD
HETATM   28  C5  UNL     1      31.138   6.641   8.939  1.00  0.00     0.740 A
ATOM     29  H4  UNL     1      30.918   8.517   9.714  1.00  0.00     0.205 HD
HETATM   30  N7  UNL     1      30.512   5.538   8.538  1.00  0.00    -0.008 N
HETATM   31  C6  UNL     1      29.169   5.493   8.612  1.00  0.00     0.322 A
HETATM   32  O3  UNL     1      28.580   4.451   8.231  1.00  0.00    -0.262 OA
BRANCH  28  33
HETATM   33  N5  UNL     1      32.406   6.736   8.891  1.00  0.00    -0.135 N
ATOM     34  H5  UNL     1      32.936   6.481   9.724  1.00  0.00     0.205 HD
BRANCH  33  35
HETATM   35  N6  UNL     1      33.114   7.162   7.780  1.00  0.00    -0.331 N
ATOM     36  H62 UNL     1      32.989   8.135   7.501  1.00  0.00     0.177 HD
ATOM     37  H61 UNL     1      33.741   6.569   7.236  1.00  0.00     0.177 HD
ENDBRANCH  33  35
ENDBRANCH  28  33
BRANCH  30  38
HETATM   38  O2  UNL     1      31.261   4.495   8.065  1.00  0.00    -0.266 OA
ATOM     39  H2  UNL     1      30.867   3.900   7.438  1.00  0.00     0.246 HD
ENDBRANCH  30  38
ENDBRANCH   3  24
TORSDOF 10
ENDMDL