MODEL 2
REMARK VINA RESULT: -9.039453852      3.165      5.402
REMARK  7 active torsions:
REMARK  status: ('A' for Active; 'I' for Inactive)
REMARK    1  A    between atoms: C3_3  and  C4_4
REMARK    2  A    between atoms: C4_4  and  N2_6
REMARK    3  A    between atoms: N2_6  and  N3_8
REMARK    4  A    between atoms: N3_8  and  N4_9
REMARK    5  A    between atoms: N4_9  and  C5_11
REMARK    6  A    between atoms: C11_20  and  N6_21
REMARK    7  A    between atoms: C13_25  and  O3_27
ROOT
HETATM    1  N2  UNL     1      22.472  10.047   8.342  1.00  0.00    -0.271 N
ATOM      2  H2  UNL     1      21.525   9.759   8.091  1.00  0.00     0.185 HD
ENDROOT
BRANCH   1   3
HETATM    3  C4  UNL     1      22.742  10.519   9.675  1.00  0.00     0.144 C
HETATM    4  N1  UNL     1      21.654  11.264  10.191  1.00  0.00    -0.081 NA
BRANCH   3   5
HETATM    5  C3  UNL     1      23.842  10.295  10.349  1.00  0.00     0.066 A
HETATM    6  C2  UNL     1      24.932  11.192  10.381  1.00  0.00     0.057 A
HETATM    7  C1  UNL     1      25.076  12.367   9.844  1.00  0.00     0.046 C
HETATM    8  N9  UNL     1      25.927  10.630  11.135  1.00  0.00    -0.296 N
HETATM    9  N8  UNL     1      25.514   9.483  11.548  1.00  0.00    -0.294 N
HETATM   10  C14 UNL     1      27.245  11.250  11.414  1.00  0.00     0.178 C
HETATM   11  C12 UNL     1      24.221   9.222  11.093  1.00  0.00     0.112 A
ATOM     12  H8  UNL     1      26.059   8.848  12.132  1.00  0.00     0.187 HD
HETATM   13  C13 UNL     1      23.536   8.034  11.521  1.00  0.00     0.179 C
HETATM   14  N7  UNL     1      22.188   7.766  11.752  1.00  0.00    -0.073 NA
BRANCH  13  15
HETATM   15  O3  UNL     1      24.304   7.006  11.749  1.00  0.00    -0.347 OA
ATOM     16  H3  UNL     1      23.937   6.167  11.500  1.00  0.00     0.219 HD
ENDBRANCH  13  15
ENDBRANCH   3   5
ENDBRANCH   1   3
BRANCH   1  17
HETATM   17  N3  UNL     1      23.491   9.978   7.384  1.00  0.00    -0.021 NA
BRANCH  17  18
HETATM   18  N4  UNL     1      23.147   9.248   6.266  1.00  0.00    -0.282 N
ATOM     19  H4  UNL     1      22.159   9.112   6.051  1.00  0.00     0.184 HD
BRANCH  18  20
HETATM   20  C5  UNL     1      24.123   8.682   5.408  1.00  0.00     0.080 A
HETATM   21  C6  UNL     1      23.971   8.588   4.097  1.00  0.00     0.088 A
HETATM   22  C7  UNL     1      25.142   7.964   3.498  1.00  0.00     0.191 A
HETATM   23  O1  UNL     1      25.305   7.734   2.276  1.00  0.00    -0.287 OA
HETATM   24  C8  UNL     1      26.046   7.677   4.589  1.00  0.00     0.098 A
HETATM   25  C9  UNL     1      25.425   8.117   5.764  1.00  0.00     0.103 A
HETATM   26  C11 UNL     1      27.258   7.154   4.948  1.00  0.00     0.180 A
HETATM   27  N5  UNL     1      26.284   7.837   6.744  1.00  0.00    -0.252 N
HETATM   28  C10 UNL     1      26.038   8.128   8.144  1.00  0.00     0.186 C
HETATM   29  O2  UNL     1      27.347   7.277   6.253  1.00  0.00    -0.217 OA
BRANCH  26  30
HETATM   30  N6  UNL     1      28.127   6.642   4.119  1.00  0.00    -0.377 N
ATOM     31  H62 UNL     1      27.953   6.132   3.253  1.00  0.00     0.158 HD
ATOM     32  H61 UNL     1      29.140   6.686   4.233  1.00  0.00     0.158 HD
ENDBRANCH  26  30
ENDBRANCH  18  20
ENDBRANCH  17  18
ENDBRANCH   1  17
TORSDOF 7
ENDMDL