MODEL 3
REMARK VINA RESULT: -8.047171220      3.079      4.689
REMARK  5 active torsions:
REMARK  status: ('A' for Active; 'I' for Inactive)
REMARK       I    between atoms: N1_2  and  C2_4
REMARK    1  A    between atoms: C2_4  and  C3_6
REMARK    2  A    between atoms: N2_8  and  N3_9
REMARK    3  A    between atoms: C7_14  and  N5_15
REMARK    4  A    between atoms: C10_25  and  N9_26
REMARK    5  A    between atoms: N9_26  and  C11_29
ROOT
HETATM    1  N3  UNL     1      29.282   7.312   8.529  1.00  0.00    -0.255 N
HETATM    2  C5  UNL     1      30.049   8.407   9.073  1.00  0.00     0.208 C
HETATM    3  C6  UNL     1      31.076   8.948   8.192  1.00  0.00     0.076 A
HETATM    4  N4  UNL     1      31.876   9.928   8.635  1.00  0.00    -0.192 N
ATOM      5  H4  UNL     1      31.763  10.288   9.582  1.00  0.00     0.184 HD
HETATM    6  C7  UNL     1      32.843  10.446   7.822  1.00  0.00     0.677 A
HETATM    7  N6  UNL     1      33.028  10.001   6.567  1.00  0.00    -0.177 N
ATOM      8  H6  UNL     1      33.757  10.400   5.975  1.00  0.00     0.185 HD
HETATM    9  C8  UNL     1      32.229   9.014   6.106  1.00  0.00     0.160 A
HETATM   10  N7  UNL     1      32.384   8.516   4.804  1.00  0.00    -0.080 NA
HETATM   11  C9  UNL     1      31.227   8.458   6.909  1.00  0.00     0.098 A
HETATM   12  N8  UNL     1      30.402   7.422   6.401  1.00  0.00    -0.341 N
ATOM     13  H8  UNL     1      30.409   7.219   5.402  1.00  0.00     0.163 HD
HETATM   14  C10 UNL     1      29.557   6.656   7.273  1.00  0.00     0.408 C
ENDROOT
BRANCH   1  15
HETATM   15  N2  UNL     1      28.188   6.871   9.309  1.00  0.00    -0.188 N
HETATM   16  C4  UNL     1      27.227   7.618   9.871  1.00  0.00     0.170 A
HETATM   17  C3  UNL     1      26.335   6.791  10.560  1.00  0.00     0.132 A
HETATM   18  N11 UNL     1      26.810   5.563  10.376  1.00  0.00    -0.276 N
HETATM   19  N10 UNL     1      27.906   5.597   9.636  1.00  0.00     0.001 NA
ATOM     20  H11 UNL     1      26.389   4.713  10.751  1.00  0.00     0.184 HD
BRANCH  17  21
HETATM   21  C2  UNL     1      25.170   7.257  11.290  1.00  0.00     0.270 C
HETATM   22  N1  UNL     1      23.884   7.324  10.704  1.00  0.00    -0.360 N
HETATM   23  C1  UNL     1      22.729   7.780  11.408  1.00  0.00     0.149 C
ATOM     24  H1  UNL     1      23.778   7.033   9.732  1.00  0.00     0.162 HD
HETATM   25  O1  UNL     1      25.302   7.612  12.481  1.00  0.00    -0.266 OA
ENDBRANCH  17  21
ENDBRANCH   1  15
BRANCH  14  26
HETATM   26  N9  UNL     1      28.302   6.340   6.627  1.00  0.00    -0.032 N
ATOM     27  H92 UNL     1      28.306   5.381   6.279  1.00  0.00     0.282 HD
ATOM     28  H91 UNL     1      27.550   6.268   7.312  1.00  0.00     0.282 HD
BRANCH  26  29
HETATM   29  C11 UNL     1      27.952   7.254   5.587  1.00  0.00     0.182 C
HETATM   30  C12 UNL     1      26.723   8.043   6.062  1.00  0.00     0.039 C
HETATM   31  C13 UNL     1      27.592   6.601   4.294  1.00  0.00     0.039 C
ENDBRANCH  26  29
ENDBRANCH  14  26
BRANCH   6  32
HETATM   32  N5  UNL     1      33.608  11.392   8.268  1.00  0.00    -0.234 N
ATOM     33  H52 UNL     1      34.619  11.263   8.237  1.00  0.00     0.174 HD
ATOM     34  H51 UNL     1      33.186  12.242   8.642  1.00  0.00     0.174 HD
ENDBRANCH   6  32
TORSDOF 5
ENDMDL