MODEL 3
REMARK VINA RESULT: -8.450454515      2.368      5.028
REMARK  8 active torsions:
REMARK  status: ('A' for Active; 'I' for Inactive)
REMARK    1  A    between atoms: N1_2  and  O1_3
REMARK    2  A    between atoms: N1_2  and  C2_5
REMARK    3  A    between atoms: N3_8  and  C3_9
REMARK    4  A    between atoms: C5_14  and  C6_15
REMARK    5  A    between atoms: C6_15  and  N7_19
REMARK    6  A    between atoms: N7_19  and  N8_21
REMARK    7  A    between atoms: C7_23  and  C8_24
REMARK    8  A    between atoms: C11_31  and  O2_32
ROOT
HETATM    1  C3  UNL     1      26.854   7.419  10.631  1.00  0.00     0.160 A
HETATM    2  N4  UNL     1      27.459   8.437  11.263  1.00  0.00    -0.327 N
ATOM      3  H4  UNL     1      28.470   8.515  11.369  1.00  0.00     0.168 HD
HETATM    4  C4  UNL     1      26.595   9.334  11.738  1.00  0.00     0.135 A
HETATM    5  N5  UNL     1      26.853  10.530  12.455  1.00  0.00    -0.082 NA
HETATM    6  C5  UNL     1      25.350   8.870  11.393  1.00  0.00     0.087 A
HETATM    7  C11 UNL     1      25.502   7.664  10.695  1.00  0.00     0.129 A
ENDROOT
BRANCH   6   8
HETATM    8  C6  UNL     1      24.065   9.490  11.679  1.00  0.00     0.130 C
HETATM    9  N6  UNL     1      23.853   9.914  12.875  1.00  0.00    -0.384 N
ATOM     10  H62 UNL     1      24.568   9.814  13.596  1.00  0.00     0.157 HD
ATOM     11  H61 UNL     1      22.952  10.349  13.076  1.00  0.00     0.157 HD
BRANCH   8  12
HETATM   12  N7  UNL     1      23.071   9.628  10.678  1.00  0.00    -0.285 N
ATOM     13  H7  UNL     1      22.430   8.860  10.480  1.00  0.00     0.188 HD
BRANCH  12  14
HETATM   14  N8  UNL     1      22.979  10.818   9.968  1.00  0.00    -0.308 N
HETATM   15  C7  UNL     1      23.545  11.052   8.841  1.00  0.00     0.139 C
ATOM     16  H8  UNL     1      22.418  11.565  10.375  1.00  0.00     0.186 HD
BRANCH  15  17
HETATM   17  C8  UNL     1      24.362  10.045   8.191  1.00  0.00     0.079 A
HETATM   18  C9  UNL     1      25.731  10.115   7.941  1.00  0.00     0.139 A
HETATM   19  N9  UNL     1      26.131   8.999   7.323  1.00  0.00    -0.289 N
HETATM   20  C10 UNL     1      27.462   8.633   6.873  1.00  0.00     0.174 C
HETATM   21  N10 UNL     1      25.049   8.237   7.182  1.00  0.00    -0.021 NA
HETATM   22  N11 UNL     1      23.993   8.854   7.697  1.00  0.00    -0.281 N
ATOM     23  H11 UNL     1      23.044   8.479   7.715  1.00  0.00     0.184 HD
ENDBRANCH  15  17
ENDBRANCH  12  14
ENDBRANCH   8  12
ENDBRANCH   6   8
BRANCH   7  24
HETATM   24  O2  UNL     1      24.467   6.919  10.196  1.00  0.00    -0.356 OA
ATOM     25  H2  UNL     1      23.532   7.070  10.270  1.00  0.00     0.218 HD
ENDBRANCH   7  24
BRANCH   1  26
HETATM   26  N3  UNL     1      27.514   6.293  10.009  1.00  0.00    -0.253 N
HETATM   27  N2  UNL     1      28.751   6.404   9.361  1.00  0.00    -0.264 N
HETATM   28  C2  UNL     1      29.166   5.307   8.882  1.00  0.00     0.217 A
ATOM     29  H2  UNL     1      29.266   7.281   9.282  1.00  0.00     0.190 HD
HETATM   30  N12 UNL     1      28.191   4.307   9.182  1.00  0.00    -0.341 N
HETATM   31  C12 UNL     1      27.103   4.933   9.914  1.00  0.00     0.275 A
ATOM     32  H12 UNL     1      28.248   3.321   8.926  1.00  0.00     0.164 HD
BRANCH  28  33
HETATM   33  N1  UNL     1      30.392   5.134   8.174  1.00  0.00    -0.233 N
HETATM   34  C1  UNL     1      30.994   6.225   7.439  1.00  0.00     0.188 C
BRANCH  33  35
HETATM   35  O1  UNL     1      31.020   3.941   8.173  1.00  0.00    -0.285 OA
ATOM     36  H1  UNL     1      31.465   3.667   8.967  1.00  0.00     0.245 HD
ENDBRANCH  33  35
ENDBRANCH  28  33
ENDBRANCH   1  26
TORSDOF 8
ENDMDL