MODEL 3
REMARK VINA RESULT: -8.934674744      1.800      6.798
REMARK  0 active torsions:
REMARK  status: ('A' for Active; 'I' for Inactive)
ROOT
HETATM    1  O1  UNL     1      -3.285  54.148 164.159  1.00  0.00    -0.259 OA
HETATM    2  C1  UNL     1      -2.534  53.205 164.486  1.00  0.00     0.302 A
HETATM    3  O2  UNL     1      -1.227  53.398 164.659  1.00  0.00    -0.271 OA
HETATM    4  C2  UNL     1      -0.479  52.378 165.003  1.00  0.00     0.121 A
HETATM    5  C3  UNL     1       0.882  52.269 165.251  1.00  0.00     0.027 A
HETATM    6  C4  UNL     1       1.852  53.247 165.197  1.00  0.00     0.017 A
HETATM    7  C5  UNL     1       3.180  52.929 165.485  1.00  0.00     0.001 A
HETATM    8  C6  UNL     1       3.443  51.621 165.812  1.00  0.00     0.002 A
HETATM    9  C7  UNL     1       2.486  50.638 165.867  1.00  0.00     0.030 A
HETATM   10  C8  UNL     1       1.162  50.960 165.580  1.00  0.00     0.045 A
HETATM   11  N1  UNL     1       0.014  50.266 165.542  1.00  0.00    -0.351 N
ATOM     12  H1  UNL     1      -0.089  49.271 165.740  1.00  0.00     0.166 HD
HETATM   13  C9  UNL     1      -0.976  51.106 165.197  1.00  0.00     0.096 A
HETATM   14  C10 UNL     1      -2.316  50.885 165.025  1.00  0.00     0.080 A
HETATM   15  N2  UNL     1      -3.091  49.793 165.134  1.00  0.00    -0.353 N
ATOM     16  H2  UNL     1      -2.752  48.865 165.391  1.00  0.00     0.166 HD
HETATM   17  C11 UNL     1      -4.379  50.090 164.858  1.00  0.00     0.044 A
HETATM   18  C12 UNL     1      -5.528  49.325 164.835  1.00  0.00     0.030 A
HETATM   19  C13 UNL     1      -6.718  49.938 164.507  1.00  0.00     0.002 A
HETATM   20  C14 UNL     1      -6.738  51.288 164.211  1.00  0.00     0.001 A
HETATM   21  C15 UNL     1      -5.576  52.044 164.238  1.00  0.00     0.015 A
HETATM   22  C16 UNL     1      -4.385  51.441 164.565  1.00  0.00     0.009 A
HETATM   23  C17 UNL     1      -3.107  51.962 164.661  1.00  0.00     0.081 A
ENDROOT
TORSDOF 0
ENDMDL