MODEL 1
REMARK VINA RESULT: -9.505668795      0.000      0.000
REMARK  0 active torsions:
REMARK  status: ('A' for Active; 'I' for Inactive)
ROOT
HETATM    1  O1  UNL     1       0.305  48.280 166.571  1.00  0.00    -0.267 OA
HETATM    2  C1  UNL     1      -0.162  49.283 165.951  1.00  0.00     0.257 A
HETATM    3  N1  UNL     1      -1.504  49.374 165.785  1.00  0.00    -0.319 N
ATOM      4  H1  UNL     1      -2.120  48.650 166.152  1.00  0.00     0.169 HD
HETATM    5  C2  UNL     1      -2.010  50.429 165.132  1.00  0.00     0.099 A
HETATM    6  C3  UNL     1      -1.171  51.406 164.637  1.00  0.00     0.074 A
HETATM    7  N2  UNL     1      -1.946  52.328 164.037  1.00  0.00    -0.351 N
ATOM      8  H2  UNL     1      -1.609  53.173 163.575  1.00  0.00     0.166 HD
HETATM    9  C4  UNL     1      -3.232  51.961 164.141  1.00  0.00     0.082 A
HETATM   10  C5  UNL     1      -4.550  52.307 163.829  1.00  0.00     0.027 A
HETATM   11  C6  UNL     1      -5.002  53.418 163.147  1.00  0.00     0.017 A
HETATM   12  C7  UNL     1      -6.372  53.523 162.970  1.00  0.00     0.001 A
HETATM   13  C8  UNL     1      -7.216  52.540 163.468  1.00  0.00     0.003 A
HETATM   14  C9  UNL     1      -6.721  51.432 164.152  1.00  0.00     0.038 A
HETATM   15  C10 UNL     1      -5.349  51.327 164.328  1.00  0.00     0.088 A
HETATM   16  O2  UNL     1      -4.592  50.429 164.913  1.00  0.00    -0.305 OA
HETATM   17  C11 UNL     1      -3.325  50.765 164.825  1.00  0.00     0.132 A
HETATM   18  C12 UNL     1       0.215  51.317 164.805  1.00  0.00     0.009 A
HETATM   19  C13 UNL     1       1.005  52.325 164.287  1.00  0.00     0.015 A
HETATM   20  C14 UNL     1       2.371  52.228 164.459  1.00  0.00     0.001 A
HETATM   21  C15 UNL     1       2.887  51.140 165.133  1.00  0.00     0.001 A
HETATM   22  C16 UNL     1       2.084  50.139 165.645  1.00  0.00     0.018 A
HETATM   23  C17 UNL     1       0.714  50.236 165.473  1.00  0.00     0.044 A
ENDROOT
TORSDOF 0
ENDMDL