MODEL 4
REMARK VINA RESULT: -8.694332708      1.653      2.244
REMARK  2 active torsions:
REMARK  status: ('A' for Active; 'I' for Inactive)
REMARK    1  A    between atoms: C2_5  and  C3_6
REMARK    2  A    between atoms: C8_11  and  C9_12
ROOT
HETATM    1  O1  UNL     1      -6.818  54.442 162.584  1.00  0.00    -0.238 OA
HETATM    2  C1  UNL     1      -5.955  53.653 163.050  1.00  0.00     0.370 A
HETATM    3  N1  UNL     1      -6.175  52.376 163.414  1.00  0.00    -0.299 N
ATOM      4  H1  UNL     1      -7.061  51.874 163.365  1.00  0.00     0.171 HD
HETATM    5  C2  UNL     1      -5.006  51.892 163.854  1.00  0.00     0.084 A
HETATM    6  C9  UNL     1      -2.356  51.412 164.649  1.00  0.00     0.017 A
HETATM    7  C10 UNL     1      -1.018  51.469 164.953  1.00  0.00     0.004 A
HETATM    8  C11 UNL     1      -0.105  50.591 165.460  1.00  0.00     0.014 A
HETATM    9  C12 UNL     1       1.234  50.948 165.666  1.00  0.00     0.001 A
HETATM   10  C13 UNL     1       1.635  52.224 165.346  1.00  0.00     0.002 A
HETATM   11  C14 UNL     1       0.711  53.089 164.840  1.00  0.00     0.030 A
HETATM   12  C15 UNL     1      -0.609  52.764 164.629  1.00  0.00     0.043 A
HETATM   13  N2  UNL     1      -1.669  53.444 164.151  1.00  0.00    -0.352 N
ATOM     14  H2  UNL     1      -1.650  54.414 163.838  1.00  0.00     0.166 HD
HETATM   15  C16 UNL     1      -2.751  52.655 164.147  1.00  0.00     0.081 A
HETATM   16  C17 UNL     1      -4.053  52.876 163.762  1.00  0.00     0.136 A
HETATM   17  O2  UNL     1      -4.692  53.929 163.264  1.00  0.00    -0.257 OA
ENDROOT
BRANCH   5  18
HETATM   18  C3  UNL     1      -4.606  50.656 164.354  1.00  0.00     0.005 A
HETATM   19  C4  UNL     1      -4.795  50.475 165.708  1.00  0.00     0.014 A
HETATM   20  C5  UNL     1      -4.434  49.292 166.300  1.00  0.00     0.001 A
HETATM   21  C6  UNL     1      -3.893  48.329 165.499  1.00  0.00     0.001 A
HETATM   22  C7  UNL     1      -3.691  48.481 164.128  1.00  0.00     0.013 A
HETATM   23  C8  UNL     1      -4.051  49.664 163.534  1.00  0.00    -0.010 A
ENDBRANCH   5  18
TORSDOF 2
ENDMDL