MODEL 3
REMARK VINA RESULT: -7.819456898      1.773      3.140
REMARK  1 active torsions:
REMARK  status: ('A' for Active; 'I' for Inactive)
REMARK    1  A    between atoms: C5_7  and  N2_8
ROOT
HETATM    1  C1  UNL     1      -0.219  51.417 163.417  1.00  0.00     0.050 C
HETATM    2  C2  UNL     1      -1.169  51.091 164.474  1.00  0.00    -0.029 A
HETATM    3  C3  UNL     1      -2.508  51.500 164.403  1.00  0.00    -0.018 A
HETATM    4  C4  UNL     1      -3.349  51.191 165.457  1.00  0.00     0.026 A
HETATM    5  N1  UNL     1      -2.883  50.500 166.541  1.00  0.00    -0.344 N
ATOM      6  H1  UNL     1      -3.526  50.286 167.304  1.00  0.00     0.167 HD
HETATM    7  C5  UNL     1      -1.608  50.095 166.633  1.00  0.00     0.120 A
HETATM    8  C6  UNL     1      -0.745  50.385 165.608  1.00  0.00     0.094 A
HETATM    9  C7  UNL     1       0.631  49.981 165.645  1.00  0.00     0.104 C
HETATM   10  N3  UNL     1       1.745  49.657 165.695  1.00  0.00    -0.191 NA
HETATM   11  C8  UNL     1      -4.776  51.595 165.533  1.00  0.00    -0.004 C
HETATM   12  C9  UNL     1      -5.736  50.461 165.589  1.00  0.00     0.021 C
HETATM   13  C10 UNL     1      -4.897  52.313 166.892  1.00  0.00     0.021 C
HETATM   14  C11 UNL     1      -5.075  52.542 164.443  1.00  0.00     0.024 C
HETATM   15  C12 UNL     1      -4.456  52.186 163.126  1.00  0.00    -0.035 C
HETATM   16  C13 UNL     1      -4.962  53.264 162.154  1.00  0.00     0.016 C
HETATM   17  C14 UNL     1      -4.988  50.893 162.572  1.00  0.00     0.016 C
HETATM   18  C15 UNL     1      -2.921  52.227 163.181  1.00  0.00    -0.011 C
HETATM   19  C16 UNL     1      -2.498  51.566 161.886  1.00  0.00     0.021 C
HETATM   20  C17 UNL     1      -2.557  53.691 163.195  1.00  0.00     0.021 C
ENDROOT
BRANCH   7  21
HETATM   21  N2  UNL     1      -1.166  49.439 167.662  1.00  0.00    -0.384 N
ATOM     22  H22 UNL     1      -1.048  49.929 168.549  1.00  0.00     0.157 HD
ATOM     23  H21 UNL     1      -0.931  48.447 167.611  1.00  0.00     0.157 HD
ENDBRANCH   7  21
TORSDOF 1
ENDMDL