MODEL 2
REMARK VINA RESULT: -9.116548673      1.295      6.502
REMARK  0 active torsions:
REMARK  status: ('A' for Active; 'I' for Inactive)
ROOT
HETATM    1  O1  UNL     1      -2.529  49.447 164.858  1.00  0.00    -0.285 OA
HETATM    2  C1  UNL     1      -2.119  50.630 164.821  1.00  0.00     0.216 A
HETATM    3  C2  UNL     1      -0.793  50.921 165.061  1.00  0.00     0.119 A
HETATM    4  N1  UNL     1       0.303  50.201 165.355  1.00  0.00    -0.350 N
ATOM      5  H1  UNL     1       0.333  49.186 165.463  1.00  0.00     0.166 HD
HETATM    6  C3  UNL     1       1.368  51.040 165.485  1.00  0.00     0.045 A
HETATM    7  C4  UNL     1       2.699  50.835 165.776  1.00  0.00     0.030 A
HETATM    8  C5  UNL     1       3.603  51.881 165.853  1.00  0.00     0.002 A
HETATM    9  C6  UNL     1       3.165  53.182 165.633  1.00  0.00     0.001 A
HETATM   10  C7  UNL     1       1.831  53.371 165.344  1.00  0.00     0.017 A
HETATM   11  C8  UNL     1       0.935  52.331 165.268  1.00  0.00     0.027 A
HETATM   12  C9  UNL     1      -0.434  52.252 164.998  1.00  0.00     0.121 A
HETATM   13  O2  UNL     1      -1.326  53.182 164.723  1.00  0.00    -0.289 OA
HETATM   14  C10 UNL     1      -2.582  52.954 164.492  1.00  0.00     0.164 A
HETATM   15  N2  UNL     1      -3.638  53.735 164.200  1.00  0.00    -0.335 N
ATOM     16  H2  UNL     1      -3.621  54.750 164.100  1.00  0.00     0.168 HD
HETATM   17  C11 UNL     1      -4.710  52.955 164.062  1.00  0.00     0.045 A
HETATM   18  C12 UNL     1      -6.016  53.268 163.766  1.00  0.00     0.030 A
HETATM   19  C13 UNL     1      -6.946  52.276 163.678  1.00  0.00     0.002 A
HETATM   20  C14 UNL     1      -6.613  50.945 163.880  1.00  0.00     0.001 A
HETATM   21  C15 UNL     1      -5.308  50.614 164.178  1.00  0.00     0.015 A
HETATM   22  C16 UNL     1      -4.376  51.626 164.264  1.00  0.00     0.009 A
HETATM   23  C17 UNL     1      -3.020  51.630 164.538  1.00  0.00     0.080 A
ENDROOT
TORSDOF 0
ENDMDL