MODEL 3
REMARK VINA RESULT: -7.877569785      3.214      4.680
REMARK  3 active torsions:
REMARK  status: ('A' for Active; 'I' for Inactive)
REMARK    1  A    between atoms: C4_4  and  C5_5
REMARK    2  A    between atoms: C12_12  and  N1_13
REMARK    3  A    between atoms: N1_13  and  C13_15
ROOT
HETATM    1  C13 UNL     1      -4.114  52.869 165.229  1.00  0.00     0.143 A
HETATM    2  N2  UNL     1      -3.846  53.953 164.482  1.00  0.00    -0.284 N
ATOM      3  H2  UNL     1      -3.011  54.534 164.551  1.00  0.00     0.188 HD
HETATM    4  N3  UNL     1      -4.864  54.143 163.628  1.00  0.00    -0.302 N
ATOM      5  H3  UNL     1      -4.918  54.897 162.944  1.00  0.00     0.186 HD
HETATM    6  C14 UNL     1      -5.795  53.205 163.801  1.00  0.00     0.046 A
HETATM    7  C15 UNL     1      -7.081  53.045 163.065  1.00  0.00     0.071 C
HETATM    8  C16 UNL     1      -5.319  52.382 164.829  1.00  0.00     0.113 A
HETATM    9  C17 UNL     1      -6.037  51.251 165.312  1.00  0.00     0.105 C
HETATM   10  N4  UNL     1      -6.633  50.347 165.707  1.00  0.00    -0.191 NA
ENDROOT
BRANCH   1  11
HETATM   11  N1  UNL     1      -3.374  52.391 166.142  1.00  0.00    -0.340 N
ATOM     12  H1  UNL     1      -3.791  52.190 167.051  1.00  0.00     0.167 HD
BRANCH  11  13
HETATM   13  C12 UNL     1      -1.975  52.121 165.958  1.00  0.00     0.040 A
HETATM   14  C2  UNL     1      -1.514  50.825 166.004  1.00  0.00    -0.035 A
HETATM   15  C1  UNL     1      -2.476  49.716 166.246  1.00  0.00     0.050 C
HETATM   16  C3  UNL     1      -0.161  50.583 165.824  1.00  0.00     0.017 A
HETATM   17  C4  UNL     1       0.779  51.568 165.596  1.00  0.00    -0.044 A
HETATM   18  C9  UNL     1       0.296  52.868 165.553  1.00  0.00    -0.053 A
HETATM   19  C10 UNL     1       1.206  53.986 165.322  1.00  0.00     0.049 C
HETATM   20  C11 UNL     1      -1.072  53.115 165.735  1.00  0.00     0.037 A
BRANCH  17  21
HETATM   21  C5  UNL     1       2.214  51.268 165.405  1.00  0.00    -0.024 C
HETATM   22  C6  UNL     1       2.349  49.736 165.456  1.00  0.00     0.019 C
HETATM   23  C7  UNL     1       3.106  51.783 166.476  1.00  0.00     0.019 C
HETATM   24  C8  UNL     1       2.698  51.636 164.009  1.00  0.00     0.019 C
ENDBRANCH  17  21
ENDBRANCH  11  13
ENDBRANCH   1  11
TORSDOF 3
ENDMDL