MODEL 2
REMARK VINA RESULT: -9.611571555      1.869      3.005
REMARK  0 active torsions:
REMARK  status: ('A' for Active; 'I' for Inactive)
ROOT
HETATM    1  O1  UNL     1      -6.381  48.888 165.684  1.00  0.00    -0.247 OA
HETATM    2  C1  UNL     1      -6.016  49.917 165.063  1.00  0.00     0.324 A
HETATM    3  N1  UNL     1      -6.935  50.697 164.460  1.00  0.00    -0.318 N
ATOM      4  H1  UNL     1      -7.916  50.427 164.525  1.00  0.00     0.170 HD
HETATM    5  C2  UNL     1      -6.625  51.817 163.774  1.00  0.00     0.106 A
HETATM    6  C3  UNL     1      -5.291  52.147 163.708  1.00  0.00     0.007 A
HETATM    7  C4  UNL     1      -5.072  53.302 162.990  1.00  0.00     0.015 C
HETATM    8  C5  UNL     1      -3.881  53.834 162.572  1.00  0.00     0.002 C
HETATM    9  C6  UNL     1      -2.617  53.615 163.063  1.00  0.00     0.013 C
HETATM   10  C7  UNL     1      -2.135  52.543 163.801  1.00  0.00    -0.007 A
HETATM   11  C8  UNL     1      -1.001  51.946 164.307  1.00  0.00     0.023 A
HETATM   12  C9  UNL     1      -1.735  50.909 164.890  1.00  0.00     0.101 A
HETATM   13  O2  UNL     1      -0.886  50.109 165.495  1.00  0.00    -0.308 OA
HETATM   14  C10 UNL     1       0.348  50.560 165.340  1.00  0.00     0.087 A
HETATM   15  C11 UNL     1       1.581  50.112 165.762  1.00  0.00     0.038 A
HETATM   16  C12 UNL     1       2.750  50.783 165.461  1.00  0.00     0.003 A
HETATM   17  C13 UNL     1       2.725  51.927 164.725  1.00  0.00     0.001 A
HETATM   18  C14 UNL     1       1.505  52.403 164.289  1.00  0.00     0.015 A
HETATM   19  C15 UNL     1       0.334  51.728 164.592  1.00  0.00     0.012 A
HETATM   20  C16 UNL     1      -2.901  51.463 164.409  1.00  0.00     0.038 A
HETATM   21  C17 UNL     1      -4.270  51.322 164.350  1.00  0.00     0.061 A
HETATM   22  N2  UNL     1      -4.696  50.228 165.007  1.00  0.00    -0.307 N
ATOM     23  H2  UNL     1      -4.017  49.624 165.470  1.00  0.00     0.170 HD
ENDROOT
TORSDOF 0
ENDMDL