MODEL 1
REMARK VINA RESULT: -9.898551202      0.000      0.000
REMARK  0 active torsions:
REMARK  status: ('A' for Active; 'I' for Inactive)
ROOT
HETATM    1  O1  UNL     1      -3.555  48.404 166.304  1.00  0.00    -0.285 OA
HETATM    2  C1  UNL     1      -3.100  49.422 165.721  1.00  0.00     0.213 A
HETATM    3  C2  UNL     1      -1.751  49.708 165.664  1.00  0.00     0.045 A
HETATM    4  C3  UNL     1      -0.834  48.867 166.260  1.00  0.00     0.019 A
HETATM    5  C4  UNL     1       0.521  49.112 166.229  1.00  0.00     0.015 A
HETATM    6  C5  UNL     1       1.007  50.236 165.583  1.00  0.00    -0.007 A
HETATM    7  C6  UNL     1       2.372  50.495 165.543  1.00  0.00     0.015 A
HETATM    8  C7  UNL     1       2.809  51.607 164.900  1.00  0.00     0.018 A
HETATM    9  C8  UNL     1       1.885  52.441 164.307  1.00  0.00     0.088 A
HETATM   10  N1  UNL     1       0.558  52.167 164.359  1.00  0.00    -0.363 N
ATOM     11  H1  UNL     1      -0.098  52.806 163.908  1.00  0.00     0.165 HD
HETATM   12  C9  UNL     1       0.079  51.067 164.991  1.00  0.00     0.070 A
HETATM   13  C10 UNL     1      -1.281  50.833 165.014  1.00  0.00     0.075 A
HETATM   14  N2  UNL     1      -2.175  51.663 164.427  1.00  0.00    -0.351 N
ATOM     15  H2  UNL     1      -1.849  52.499 163.943  1.00  0.00     0.166 HD
HETATM   16  C11 UNL     1      -3.495  51.390 164.478  1.00  0.00     0.076 A
HETATM   17  C12 UNL     1      -4.006  50.274 165.118  1.00  0.00     0.112 A
HETATM   18  N3  UNL     1      -5.349  50.260 165.008  1.00  0.00    -0.350 N
ATOM     19  H3  UNL     1      -5.963  49.542 165.393  1.00  0.00     0.166 HD
HETATM   20  C13 UNL     1      -5.757  51.337 164.311  1.00  0.00     0.045 A
HETATM   21  C14 UNL     1      -7.011  51.804 163.915  1.00  0.00     0.030 A
HETATM   22  C15 UNL     1      -7.057  52.960 163.203  1.00  0.00     0.002 A
HETATM   23  C16 UNL     1      -5.926  53.673 162.864  1.00  0.00     0.001 A
HETATM   24  C17 UNL     1      -4.678  53.222 163.252  1.00  0.00     0.016 A
HETATM   25  C18 UNL     1      -4.616  52.045 163.978  1.00  0.00     0.020 A
ENDROOT
TORSDOF 0
ENDMDL