MODEL 2
REMARK VINA RESULT: -7.482319266      0.031      1.948
REMARK  4 active torsions:
REMARK  status: ('A' for Active; 'I' for Inactive)
REMARK    1  A    between atoms: C6_6  and  N1_7
REMARK    2  A    between atoms: N1_7  and  C7_9
REMARK    3  A    between atoms: C7_9  and  N2_11
REMARK       I    between atoms: N2_11  and  C8_13
REMARK    4  A    between atoms: C8_13  and  C9_15
ROOT
HETATM    1  N1  UNL     1      -1.685  50.461 166.404  1.00  0.00    -0.332 N
ATOM      2  H1  UNL     1      -1.971  50.734 167.344  1.00  0.00     0.168 HD
ENDROOT
BRANCH   1   3
HETATM    3  C6  UNL     1      -0.373  50.717 165.994  1.00  0.00     0.046 A
HETATM    4  C4  UNL     1       0.589  49.701 166.025  1.00  0.00    -0.034 A
HETATM    5  C3  UNL     1       1.875  49.971 165.618  1.00  0.00     0.015 A
HETATM    6  C5  UNL     1       0.214  48.342 166.497  1.00  0.00     0.050 C
HETATM    7  C2  UNL     1       2.247  51.228 165.176  1.00  0.00    -0.061 A
HETATM    8  C1  UNL     1       3.638  51.512 164.738  1.00  0.00     0.048 C
HETATM    9  C15 UNL     1       1.282  52.216 165.154  1.00  0.00     0.015 A
HETATM   10  C13 UNL     1      -0.013  51.964 165.558  1.00  0.00    -0.034 A
HETATM   11  C14 UNL     1      -1.025  53.059 165.518  1.00  0.00     0.050 C
ENDBRANCH   1   3
BRANCH   1  12
HETATM   12  C7  UNL     1      -2.632  49.833 165.551  1.00  0.00     0.178 C
HETATM   13  S1  UNL     1      -3.558  48.641 166.160  1.00  0.00    -0.040 SA
BRANCH  12  14
HETATM   14  N2  UNL     1      -2.793  50.211 164.195  1.00  0.00    -0.303 N
HETATM   15  C8  UNL     1      -3.587  51.297 163.762  1.00  0.00     0.231 C
HETATM   16  O1  UNL     1      -4.190  51.977 164.629  1.00  0.00    -0.272 OA
ATOM     17  H2  UNL     1      -2.305  49.663 163.486  1.00  0.00     0.171 HD
BRANCH  15  18
HETATM   18  C9  UNL     1      -3.738  51.670 162.335  1.00  0.00     0.030 C
HETATM   19  C10 UNL     1      -2.354  52.095 161.830  1.00  0.00     0.025 C
HETATM   20  C11 UNL     1      -4.152  50.470 161.517  1.00  0.00     0.025 C
HETATM   21  C12 UNL     1      -4.675  52.810 162.123  1.00  0.00     0.025 C
ENDBRANCH  15  18
ENDBRANCH  12  14
ENDBRANCH   1  12
TORSDOF 4
ENDMDL