MODEL 4
REMARK VINA RESULT: -7.628898161      2.361      2.970
REMARK  5 active torsions:
REMARK  status: ('A' for Active; 'I' for Inactive)
REMARK    1  A    between atoms: C2_2  and  C4_5
REMARK    2  A    between atoms: N1_10  and  C9_11
REMARK    3  A    between atoms: N2_13  and  C11_14
REMARK    4  A    between atoms: C11_14  and  C12_15
REMARK    5  A    between atoms: C21_30  and  C22_31
ROOT
HETATM    1  C4  UNL     1      24.052   5.560  14.172  1.00  0.00     0.015 C
HETATM    2  C5  UNL     1      24.071   6.383  15.178  1.00  0.00    -0.040 C
HETATM    3  C6  UNL     1      24.390   7.803  14.790  1.00  0.00    -0.059 C
HETATM    4  C7  UNL     1      23.350   8.455  13.951  1.00  0.00     0.046 C
HETATM    5  C8  UNL     1      25.075   8.614  15.802  1.00  0.00     0.160 C
HETATM    6  N1  UNL     1      25.677   7.807  16.817  1.00  0.00    -0.341 N
HETATM    7  C20 UNL     1      24.923   6.761  17.394  1.00  0.00     0.229 C
HETATM    8  O5  UNL     1      25.110   6.384  18.560  1.00  0.00    -0.273 OA
HETATM    9  C21 UNL     1      23.833   6.055  16.563  1.00  0.00     0.118 C
ENDROOT
BRANCH   6  10
HETATM   10  C9  UNL     1      27.045   8.028  17.282  1.00  0.00     0.117 C
HETATM   11  C10 UNL     1      27.446   9.434  17.182  1.00  0.00     0.134 C
HETATM   12  N2  UNL     1      28.641   9.666  16.468  1.00  0.00    -0.204 NA
HETATM   13  S1  UNL     1      29.481   8.172  16.564  1.00  0.00     0.213 S
HETATM   14  O3  UNL     1      30.215   7.796  15.337  1.00  0.00    -0.211 OA
HETATM   15  O4  UNL     1      30.281   8.033  17.814  1.00  0.00    -0.211 OA
HETATM   16  C19 UNL     1      28.029   7.103  16.646  1.00  0.00     0.184 C
BRANCH  12  17
HETATM   17  C11 UNL     1      29.328  10.785  17.027  1.00  0.00     0.145 C
BRANCH  17  18
HETATM   18  C12 UNL     1      28.895  12.097  16.577  1.00  0.00    -0.041 A
HETATM   19  C13 UNL     1      28.193  12.948  17.385  1.00  0.00     0.011 A
HETATM   20  C14 UNL     1      27.825  14.179  16.875  1.00  0.00     0.040 A
HETATM   21  C15 UNL     1      28.137  14.575  15.598  1.00  0.00     0.105 A
HETATM   22  C16 UNL     1      28.845  13.721  14.777  1.00  0.00     0.105 A
HETATM   23  O2  UNL     1      27.875  15.754  14.876  1.00  0.00    -0.323 OA
HETATM   24  C17 UNL     1      29.202  12.503  15.301  1.00  0.00     0.048 A
HETATM   25  O1  UNL     1      29.003  14.385  13.585  1.00  0.00    -0.323 OA
HETATM   26  C18 UNL     1      28.106  15.475  13.500  1.00  0.00     0.352 C
ENDBRANCH  17  18
ENDBRANCH  12  17
ENDBRANCH   6  10
BRANCH   9  27
HETATM   27  C22 UNL     1      22.585   6.368  17.272  1.00  0.00    -0.035 C
HETATM   28  C23 UNL     1      22.481   7.600  18.106  1.00  0.00     0.015 C
HETATM   29  C24 UNL     1      22.189   5.211  18.225  1.00  0.00     0.015 C
HETATM   30  C25 UNL     1      21.356   6.475  16.320  1.00  0.00     0.015 C
ENDBRANCH   9  27
BRANCH   1  31
HETATM   31  C2  UNL     1      23.838   4.184  13.932  1.00  0.00    -0.051 C
HETATM   32  C1  UNL     1      24.808   3.112  14.192  1.00  0.00     0.049 C
HETATM   33  C3  UNL     1      22.687   3.752  13.343  1.00  0.00     0.091 C
HETATM   34 CL1  UNL     1      21.478   4.965  12.996  1.00  0.00    -0.096 Cl
ENDBRANCH   1  31
TORSDOF 5
ENDMDL