MODEL 5
REMARK VINA RESULT: -6.596776944      3.518      5.644
REMARK  6 active torsions:
REMARK  status: ('A' for Active; 'I' for Inactive)
REMARK    1  A    between atoms: C7_7  and  C8_8
REMARK       I    between atoms: C8_8  and  N1_10
REMARK    2  A    between atoms: N1_10  and  C9_11
REMARK    3  A    between atoms: N1_10  and  C14_19
REMARK    4  A    between atoms: C9_11  and  C10_12
REMARK       I    between atoms: N2_27  and  C21_28
REMARK    5  A    between atoms: C21_28  and  O5_30
REMARK    6  A    between atoms: O5_30  and  C22_31
ROOT
HETATM    1  C8  UNL     1      29.889   7.131  17.106  1.00  0.00     0.258 C
HETATM    2  O1  UNL     1      30.724   6.253  16.780  1.00  0.00    -0.267 OA
HETATM    3  N1  UNL     1      29.675   8.297  16.268  1.00  0.00    -0.322 N
ENDROOT
BRANCH   3   4
HETATM    4  C9  UNL     1      30.452   8.368  15.094  1.00  0.00     0.073 C
BRANCH   4   5
HETATM    5  C10 UNL     1      31.826   8.861  15.093  1.00  0.00     0.039 C
HETATM    6  C11 UNL     1      32.664   8.859  16.292  1.00  0.00     0.026 C
HETATM    7  C12 UNL     1      33.995   9.518  15.852  1.00  0.00     0.141 C
HETATM    8  S1  UNL     1      34.197   8.801  14.242  1.00  0.00     0.145 S
HETATM    9  O2  UNL     1      34.200   9.845  13.164  1.00  0.00    -0.228 OA
HETATM   10  O3  UNL     1      35.372   7.886  14.167  1.00  0.00    -0.228 OA
HETATM   11  C13 UNL     1      32.653   7.922  14.154  1.00  0.00     0.150 C
ENDBRANCH   4   5
ENDBRANCH   3   4
BRANCH   3  12
HETATM   12  C14 UNL     1      28.796   9.295  16.748  1.00  0.00     0.096 C
HETATM   13  C15 UNL     1      29.580  10.271  17.648  1.00  0.00     0.051 C
HETATM   14  C16 UNL     1      28.674  11.395  18.099  1.00  0.00     0.094 C
HETATM   15  C17 UNL     1      28.794  12.552  17.121  1.00  0.00     0.065 C
HETATM   16  N2  UNL     1      27.276  11.044  17.964  1.00  0.00    -0.316 N
HETATM   17  C18 UNL     1      27.580  12.463  16.199  1.00  0.00     0.195 C
HETATM   18  F1  UNL     1      27.971  12.545  14.887  1.00  0.00    -0.247 F
HETATM   19  C19 UNL     1      27.057  11.063  16.520  1.00  0.00     0.125 C
HETATM   20  C20 UNL     1      27.926  10.033  15.811  1.00  0.00     0.054 C
HETATM   21  C21 UNL     1      26.396  10.770  19.030  1.00  0.00     0.364 C
HETATM   22  O4  UNL     1      26.835  10.827  20.203  1.00  0.00    -0.238 OA
BRANCH  21  23
HETATM   23  O5  UNL     1      25.067  10.440  18.868  1.00  0.00    -0.294 OA
BRANCH  23  24
HETATM   24  C22 UNL     1      24.546   9.135  18.888  1.00  0.00     0.061 C
HETATM   25  C23 UNL     1      23.032   9.263  18.828  1.00  0.00     0.046 C
HETATM   26  C24 UNL     1      24.973   8.270  17.751  1.00  0.00     0.046 C
HETATM   27  C25 UNL     1      24.839   8.450  20.231  1.00  0.00     0.046 C
ENDBRANCH  23  24
ENDBRANCH  21  23
ENDBRANCH   3  12
BRANCH   1  28
HETATM   28  C7  UNL     1      29.168   6.909  18.346  1.00  0.00     0.038 A
HETATM   29  C5  UNL     1      28.010   6.164  18.346  1.00  0.00    -0.046 A
HETATM   30  C4  UNL     1      27.280   5.908  19.473  1.00  0.00     0.008 A
HETATM   31  C6  UNL     1      27.511   5.597  17.045  1.00  0.00     0.049 C
HETATM   32  C3  UNL     1      27.692   6.403  20.680  1.00  0.00     0.007 A
HETATM   33  C2  UNL     1      28.850   7.155  20.719  1.00  0.00    -0.061 A
HETATM   34  C1  UNL     1      29.318   7.703  22.016  1.00  0.00     0.048 C
HETATM   35  C26 UNL     1      29.581   7.406  19.562  1.00  0.00     0.024 A
ENDBRANCH   1  28
TORSDOF 6
ENDMDL