MODEL 3
REMARK VINA RESULT: -7.630694548      3.844      8.188
REMARK  5 active torsions:
REMARK  status: ('A' for Active; 'I' for Inactive)
REMARK    1  A    between atoms: N1_4  and  C4_5
REMARK    2  A    between atoms: C4_5  and  C5_6
REMARK    3  A    between atoms: C18_25  and  C19_26
REMARK    4  A    between atoms: C19_26  and  O3_28
REMARK    5  A    between atoms: O3_28  and  C20_29
ROOT
HETATM    1  C1  UNL     1      23.981   9.848  18.375  1.00  0.00     0.021 C
HETATM    2  C2  UNL     1      24.871   9.465  17.490  1.00  0.00    -0.030 C
HETATM    3  C3  UNL     1      25.032   8.080  16.930  1.00  0.00     0.313 C
HETATM    4  N1  UNL     1      25.594   8.302  15.605  1.00  0.00     0.113 N
HETATM    5  C14 UNL     1      26.321   9.520  15.628  1.00  0.00     0.319 C
HETATM    6  S1  UNL     1      28.122   9.357  15.791  1.00  0.00    -0.118 SA
HETATM    7  C15 UNL     1      28.726  10.996  16.331  1.00  0.00     0.019 C
HETATM    8  C16 UNL     1      29.902  11.405  15.500  1.00  0.00     0.028 C
HETATM    9  C17 UNL     1      29.165  10.860  17.765  1.00  0.00     0.028 C
HETATM   10  C18 UNL     1      27.552  11.941  16.200  1.00  0.00     0.126 C
HETATM   11  C22 UNL     1      26.498  11.411  17.105  1.00  0.00    -0.000 C
HETATM   12  C23 UNL     1      25.902  10.268  16.857  1.00  0.00    -0.011 C
ENDROOT
BRANCH   4  13
HETATM   13  C4  UNL     1      26.217   7.161  15.055  1.00  0.00     0.309 C
BRANCH  13  14
HETATM   14  C5  UNL     1      25.428   6.406  14.012  1.00  0.00     0.204 A
HETATM   15  C6  UNL     1      24.505   7.221  13.258  1.00  0.00     0.187 A
HETATM   16  O1  UNL     1      24.838   8.307  12.674  1.00  0.00    -0.290 OA
HETATM   17  C7  UNL     1      23.110   6.867  13.101  1.00  0.00     0.041 A
HETATM   18  C8  UNL     1      22.240   7.666  12.369  1.00  0.00     0.036 A
HETATM   19  C12 UNL     1      22.661   5.712  13.700  1.00  0.00     0.061 A
HETATM   20  C9  UNL     1      20.923   7.304  12.236  1.00  0.00     0.012 A
HETATM   21 BR1  UNL     1      19.699   8.350  11.250  1.00  0.00    -0.051 Br
HETATM   22  C10 UNL     1      20.485   6.131  12.848  1.00  0.00     0.021 A
HETATM   23  C11 UNL     1      21.345   5.338  13.576  1.00  0.00     0.033 A
HETATM   24  N2  UNL     1      23.614   4.968  14.420  1.00  0.00    -0.302 N
HETATM   25  N3  UNL     1      24.827   5.240  14.578  1.00  0.00    -0.318 N
ATOM     26  H2  UNL     1      23.280   4.112  14.862  1.00  0.00     0.186 HD
HETATM   27  C13 UNL     1      25.686   4.331  15.375  1.00  0.00     0.171 C
ENDBRANCH  13  14
ENDBRANCH   4  13
BRANCH  10  28
HETATM   28  C19 UNL     1      27.863  13.336  16.521  1.00  0.00     0.268 C
HETATM   29  O2  UNL     1      27.421  13.790  17.625  1.00  0.00    -0.264 OA
BRANCH  28  30
HETATM   30  O3  UNL     1      28.589  14.187  15.726  1.00  0.00    -0.321 OA
BRANCH  30  31
HETATM   31  C20 UNL     1      27.901  15.101  14.893  1.00  0.00     0.174 C
HETATM   32  C21 UNL     1      28.481  15.100  13.500  1.00  0.00     0.034 C
ENDBRANCH  30  31
ENDBRANCH  28  30
ENDBRANCH  10  28
TORSDOF 5
ENDMDL