MODEL 5
REMARK VINA RESULT: -6.936432840      3.582      5.898
REMARK  4 active torsions:
REMARK  status: ('A' for Active; 'I' for Inactive)
REMARK    1  A    between atoms: O1_2  and  C2_3
REMARK    2  A    between atoms: N1_8  and  O2_9
REMARK    3  A    between atoms: N3_21  and  C17_22
REMARK    4  A    between atoms: C17_22  and  C18_23
ROOT
HETATM    1  C2  UNL     1      22.647   7.600  17.544  1.00  0.00     0.051 C
HETATM    2  C3  UNL     1      21.731   6.809  17.014  1.00  0.00     0.033 C
HETATM    3  C4  UNL     1      21.495   6.032  15.774  1.00  0.00     0.012 C
HETATM    4  C5  UNL     1      22.245   5.744  14.705  1.00  0.00    -0.030 C
HETATM    5  C6  UNL     1      21.250   4.950  13.981  1.00  0.00     0.160 C
HETATM    6  N1  UNL     1      21.245   5.458  12.598  1.00  0.00    -0.193 NA
HETATM    7  C8  UNL     1      22.353   4.843  11.942  1.00  0.00     0.127 C
HETATM    8  C9  UNL     1      23.570   5.713  11.800  1.00  0.00     0.075 C
HETATM    9  C10 UNL     1      24.158   6.103  13.095  1.00  0.00     0.024 A
HETATM   10  C11 UNL     1      23.642   6.129  14.384  1.00  0.00     0.002 A
HETATM   11  C12 UNL     1      24.691   6.590  15.168  1.00  0.00    -0.022 A
HETATM   12  C13 UNL     1      25.786   6.829  14.373  1.00  0.00     0.020 A
HETATM   13  N2  UNL     1      25.458   6.529  13.106  1.00  0.00    -0.357 N
HETATM   14  C14 UNL     1      26.363   6.653  11.973  1.00  0.00     0.156 C
HETATM   15  C15 UNL     1      27.068   7.361  14.950  1.00  0.00     0.077 C
HETATM   16  C16 UNL     1      26.860   8.814  15.375  1.00  0.00     0.132 C
HETATM   17  N3  UNL     1      27.092   9.007  16.790  1.00  0.00    -0.347 N
HETATM   18  C22 UNL     1      26.166   8.823  17.823  1.00  0.00     0.224 C
HETATM   19  O4  UNL     1      26.639   8.380  18.931  1.00  0.00    -0.273 OA
HETATM   20  C23 UNL     1      24.683   9.100  17.733  1.00  0.00     0.084 C
HETATM   21  C24 UNL     1      24.275   9.473  19.125  1.00  0.00     0.020 C
HETATM   22  C25 UNL     1      23.949   8.062  17.019  1.00  0.00     0.059 C
HETATM   23  C26 UNL     1      24.791   6.844  16.645  1.00  0.00     0.053 C
ENDROOT
BRANCH  17  24
HETATM   24  C17 UNL     1      28.461   9.436  17.145  1.00  0.00     0.166 C
BRANCH  24  25
HETATM   25  C18 UNL     1      28.406  10.930  17.213  1.00  0.00    -0.015 A
HETATM   26  C19 UNL     1      28.481  11.725  18.348  1.00  0.00     0.152 A
HETATM   27  O3  UNL     1      28.396  12.990  18.000  1.00  0.00    -0.315 OA
HETATM   28  C20 UNL     1      28.268  13.099  16.702  1.00  0.00     0.121 A
HETATM   29 BR1  UNL     1      28.106  14.725  15.696  1.00  0.00    -0.023 Br
HETATM   30  C21 UNL     1      28.269  11.823  16.161  1.00  0.00     0.056 A
ENDBRANCH  24  25
ENDBRANCH  17  24
BRANCH   1  31
HETATM   31  O1  UNL     1      22.255   8.023  18.788  1.00  0.00    -0.360 OA
HETATM   32  C1  UNL     1      21.552   7.238  19.683  1.00  0.00     0.209 C
ENDBRANCH   1  31
BRANCH   6  33
HETATM   33  O2  UNL     1      20.075   5.118  12.032  1.00  0.00    -0.308 OA
HETATM   34  C7  UNL     1      19.683   6.006  11.039  1.00  0.00     0.229 C
ENDBRANCH   6  33
TORSDOF 4
ENDMDL