MODEL 3
REMARK VINA RESULT: -7.805276637      1.087      1.228
REMARK  5 active torsions:
REMARK  status: ('A' for Active; 'I' for Inactive)
REMARK    1  A    between atoms: O1_2  and  C2_3
REMARK    2  A    between atoms: C2_3  and  C3_5
REMARK    3  A    between atoms: C5_8  and  C6_9
REMARK       I    between atoms: C6_9  and  N1_11
REMARK    4  A    between atoms: C21_27  and  C22_28
REMARK    5  A    between atoms: C23_29  and  C24_30
ROOT
HETATM    1  C3  UNL     1      28.172   8.907  16.555  1.00  0.00     0.044 C
HETATM    2  C4  UNL     1      27.932   7.618  16.667  1.00  0.00     0.149 C
HETATM    3  O3  UNL     1      26.608   7.246  16.775  1.00  0.00    -0.347 OA
HETATM    4  C5  UNL     1      25.680   7.968  15.948  1.00  0.00     0.224 C
HETATM    5  C16 UNL     1      25.742   9.452  16.358  1.00  0.00     0.037 C
HETATM    6  C17 UNL     1      24.761   9.793  17.423  1.00  0.00     0.035 C
HETATM    7  C18 UNL     1      25.294   9.915  18.784  1.00  0.00    -0.023 C
HETATM    8  C19 UNL     1      26.501  10.372  18.962  1.00  0.00    -0.079 C
HETATM    9  C20 UNL     1      27.011  10.482  20.372  1.00  0.00     0.044 C
HETATM   10  C21 UNL     1      27.336  10.760  17.830  1.00  0.00     0.045 C
HETATM   11  C26 UNL     1      27.125   9.948  16.569  1.00  0.00     0.045 C
ENDROOT
BRANCH   4  12
HETATM   12  C6  UNL     1      24.369   7.363  16.107  1.00  0.00     0.251 C
HETATM   13  O4  UNL     1      24.123   6.701  17.166  1.00  0.00    -0.270 OA
HETATM   14  N1  UNL     1      23.322   7.452  15.150  1.00  0.00    -0.331 N
HETATM   15  C7  UNL     1      23.505   8.170  13.905  1.00  0.00     0.166 C
HETATM   16  C15 UNL     1      22.034   6.813  15.409  1.00  0.00     0.164 C
HETATM   17  C8  UNL     1      22.553   7.727  12.855  1.00  0.00    -0.034 A
HETATM   18  C9  UNL     1      22.853   7.593  11.523  1.00  0.00     0.009 A
HETATM   19  C13 UNL     1      21.242   7.424  13.238  1.00  0.00    -0.048 A
HETATM   20  C10 UNL     1      21.867   7.172  10.626  1.00  0.00     0.001 A
HETATM   21  C11 UNL     1      20.586   6.883  11.047  1.00  0.00     0.001 A
HETATM   22  C12 UNL     1      20.273   7.016  12.389  1.00  0.00     0.008 A
HETATM   23  C14 UNL     1      20.963   7.581  14.711  1.00  0.00     0.076 C
HETATM   24 BR1  UNL     1      22.120   5.029  14.629  1.00  0.00    -0.068 Br
ENDBRANCH   4  12
BRANCH   1  25
HETATM   25  C2  UNL     1      29.598   9.278  16.437  1.00  0.00     0.291 C
HETATM   26  O2  UNL     1      30.377   9.178  17.427  1.00  0.00    -0.260 OA
BRANCH  25  27
HETATM   27  O1  UNL     1      30.150   9.747  15.260  1.00  0.00    -0.323 OA
HETATM   28  C1  UNL     1      31.463   9.437  14.880  1.00  0.00     0.213 C
ENDBRANCH  25  27
ENDBRANCH   1  25
BRANCH  10  29
HETATM   29  C22 UNL     1      27.204  12.225  17.585  1.00  0.00    -0.018 C
HETATM   30  C23 UNL     1      27.633  12.804  16.490  1.00  0.00     0.003 C
BRANCH  30  31
HETATM   31  C24 UNL     1      27.499  14.265  16.252  1.00  0.00     0.167 A
HETATM   32  C25 UNL     1      27.863  14.928  15.032  1.00  0.00     0.204 A
HETATM   33  O5  UNL     1      28.730  14.995  16.117  1.00  0.00    -0.377 OA
ENDBRANCH  30  31
ENDBRANCH  10  29
TORSDOF 5
ENDMDL