MODEL 5
REMARK VINA RESULT: -6.881606023      1.544      2.706
REMARK  4 active torsions:
REMARK  status: ('A' for Active; 'I' for Inactive)
REMARK    1  A    between atoms: C2_2  and  C4_4
REMARK    2  A    between atoms: C4_4  and  C5_5
REMARK    3  A    between atoms: C6_7  and  C7_8
REMARK    4  A    between atoms: N3_12  and  O1_13
ROOT
HETATM    1  C5  UNL     1      29.935  10.067  17.248  1.00  0.00     0.199 C
HETATM    2  N1  UNL     1      28.751  10.001  18.004  1.00  0.00    -0.264 N
HETATM    3  C6  UNL     1      28.427   8.872  18.682  1.00  0.00     0.118 C
HETATM    4  S1  UNL     1      28.023  11.480  18.259  1.00  0.00     0.267 S
HETATM    5  O2  UNL     1      26.515  11.439  18.316  1.00  0.00    -0.200 OA
HETATM    6  O3  UNL     1      28.481  12.100  19.529  1.00  0.00    -0.200 OA
HETATM    7  C15 UNL     1      28.343  12.609  16.914  1.00  0.00     0.099 A
HETATM    8  C16 UNL     1      28.106  13.909  17.134  1.00  0.00     0.027 A
HETATM    9  C17 UNL     1      28.322  14.815  16.086  1.00  0.00     0.002 A
HETATM   10  C18 UNL     1      28.789  14.349  14.848  1.00  0.00     0.002 A
HETATM   11  C19 UNL     1      29.003  12.994  14.734  1.00  0.00     0.023 A
HETATM   12  C20 UNL     1      28.793  12.119  15.761  1.00  0.00     0.057 A
HETATM   13  S2  UNL     1      29.224  10.478  15.546  1.00  0.00     0.075 S
HETATM   14  O4  UNL     1      27.941   9.392  15.340  1.00  0.00    -0.251 OA
ENDROOT
BRANCH   1  15
HETATM   15  C4  UNL     1      30.693   8.814  17.014  1.00  0.00     0.044 C
BRANCH  15  16
HETATM   16  C2  UNL     1      31.693   8.942  15.902  1.00  0.00    -0.020 C
HETATM   17  C1  UNL     1      32.953   9.475  16.500  1.00  0.00     0.009 C
HETATM   18  C3  UNL     1      31.875   7.832  14.979  1.00  0.00     0.009 C
ENDBRANCH  15  16
ENDBRANCH   1  15
BRANCH   3  19
HETATM   19  C7  UNL     1      27.047   8.706  19.148  1.00  0.00     0.010 A
HETATM   20  C8  UNL     1      26.461   9.178  20.216  1.00  0.00     0.123 A
HETATM   21  N2  UNL     1      25.154   9.026  20.528  1.00  0.00    -0.284 N
HETATM   22  N3  UNL     1      24.399   8.332  19.630  1.00  0.00    -0.162 N
ATOM     23  H2  UNL     1      24.756   9.408  21.386  1.00  0.00     0.188 HD
HETATM   24  C9  UNL     1      24.919   7.825  18.523  1.00  0.00     0.109 A
HETATM   25  C10 UNL     1      24.129   7.085  17.666  1.00  0.00     0.042 A
HETATM   26  C14 UNL     1      26.252   7.986  18.232  1.00  0.00     0.009 A
HETATM   27 BR1  UNL     1      22.274   6.830  18.010  1.00  0.00    -0.049 Br
HETATM   28  C11 UNL     1      24.690   6.500  16.525  1.00  0.00     0.021 A
HETATM   29  C12 UNL     1      26.040   6.658  16.227  1.00  0.00     0.002 A
HETATM   30  C13 UNL     1      26.797   7.425  17.115  1.00  0.00     0.015 A
BRANCH  22  31
HETATM   31  O1  UNL     1      23.073   8.169  19.917  1.00  0.00    -0.267 OA
ATOM     32  H1  UNL     1      22.852   7.790  20.759  1.00  0.00     0.247 HD
ENDBRANCH  22  31
ENDBRANCH   3  19
TORSDOF 4
ENDMDL