MODEL 1
REMARK VINA RESULT: -7.431590235      0.000      0.000
REMARK  5 active torsions:
REMARK  status: ('A' for Active; 'I' for Inactive)
REMARK    1  A    between atoms: C2_2  and  C3_3
REMARK    2  A    between atoms: C2_2  and  C13_14
REMARK    3  A    between atoms: C3_3  and  C4_4
REMARK    4  A    between atoms: C4_4  and  C5_5
REMARK    5  A    between atoms: C8_8  and  C9_9
ROOT
HETATM    1  C13 UNL     1      27.077   9.149  17.437  1.00  0.00     0.238 C
HETATM    2  O2  UNL     1      27.995   9.920  18.107  1.00  0.00    -0.290 OA
HETATM    3  C14 UNL     1      28.373  11.215  18.006  1.00  0.00     0.302 C
HETATM    4  O3  UNL     1      28.547  11.828  19.131  1.00  0.00    -0.259 OA
HETATM    5  C15 UNL     1      28.617  12.042  16.831  1.00  0.00     0.082 C
HETATM    6 BR1  UNL     1      27.550  13.708  16.713  1.00  0.00    -0.045 Br
HETATM    7  C16 UNL     1      29.458  11.845  15.854  1.00  0.00     0.005 C
HETATM    8  C17 UNL     1      30.427  10.840  15.520  1.00  0.00     0.045 C
HETATM    9  C18 UNL     1      31.092  10.052  16.620  1.00  0.00     0.046 C
HETATM   10  C19 UNL     1      30.775   8.651  16.124  1.00  0.00     0.227 C
HETATM   11  C20 UNL     1      31.153   8.770  14.643  1.00  0.00     0.072 C
HETATM   12  C21 UNL     1      29.939   9.681  14.676  1.00  0.00     0.233 C
HETATM   13  N1  UNL     1      29.428   8.798  15.703  1.00  0.00     0.107 N
HETATM   14  C22 UNL     1      28.690   7.695  15.215  1.00  0.00     0.375 C
HETATM   15  C23 UNL     1      27.811   7.065  16.225  1.00  0.00     0.249 C
HETATM   16  O4  UNL     1      27.404   5.888  16.061  1.00  0.00    -0.271 OA
HETATM   17  N2  UNL     1      27.376   7.734  17.426  1.00  0.00    -0.327 N
HETATM   18  C24 UNL     1      27.247   6.972  18.654  1.00  0.00     0.155 C
ENDROOT
BRANCH   1  19
HETATM   19  C2  UNL     1      25.640   9.462  17.865  1.00  0.00     0.031 C
HETATM   20  C1  UNL     1      25.655  10.695  18.691  1.00  0.00     0.014 C
BRANCH  19  21
HETATM   21  C3  UNL     1      24.624   9.313  16.819  1.00  0.00     0.011 C
BRANCH  21  22
HETATM   22  C4  UNL     1      23.951   8.003  16.691  1.00  0.00     0.032 C
BRANCH  22  23
HETATM   23  C5  UNL     1      23.511   7.524  15.368  1.00  0.00     0.122 C
HETATM   24  C6  UNL     1      24.606   7.966  14.382  1.00  0.00     0.034 C
HETATM   25  C7  UNL     1      23.809   7.941  13.086  1.00  0.00     0.035 C
HETATM   26  C8  UNL     1      22.458   8.368  13.564  1.00  0.00     0.129 C
HETATM   27  O1  UNL     1      22.348   8.118  14.900  1.00  0.00    -0.380 OA
BRANCH  26  28
HETATM   28  C9  UNL     1      21.375   7.742  12.719  1.00  0.00    -0.025 C
HETATM   29  C10 UNL     1      21.799   7.605  11.273  1.00  0.00     0.017 C
HETATM   30  C11 UNL     1      20.958   6.395  13.215  1.00  0.00     0.017 C
HETATM   31  C12 UNL     1      20.169   8.672  12.731  1.00  0.00     0.017 C
ENDBRANCH  26  28
ENDBRANCH  22  23
ENDBRANCH  21  22
ENDBRANCH  19  21
ENDBRANCH   1  19
TORSDOF 5
ENDMDL