MODEL 4
REMARK VINA RESULT: -7.482861285      5.137      7.121
REMARK  5 active torsions:
REMARK  status: ('A' for Active; 'I' for Inactive)
REMARK    1  A    between atoms: C2_2  and  C3_3
REMARK    2  A    between atoms: C3_3  and  C4_4
REMARK       I    between atoms: N3_16  and  C11_17
REMARK    3  A    between atoms: C11_17  and  C12_19
REMARK    4  A    between atoms: N4_22  and  C15_23
REMARK    5  A    between atoms: C15_23  and  C16_24
ROOT
HETATM    1  C4  UNL     1      34.990   8.553  16.699  1.00  0.00     0.083 A
HETATM    2  N1  UNL     1      34.596   7.737  17.687  1.00  0.00    -0.349 N
ATOM      3  H1  UNL     1      35.296   7.151  18.142  1.00  0.00     0.167 HD
HETATM    4  C5  UNL     1      33.321   7.655  18.105  1.00  0.00     0.017 A
HETATM    5  C6  UNL     1      32.881   6.748  19.202  1.00  0.00     0.069 C
HETATM    6  C7  UNL     1      32.330   8.444  17.503  1.00  0.00     0.016 A
HETATM    7  C8  UNL     1      32.748   9.274  16.495  1.00  0.00     0.152 A
HETATM    8  N2  UNL     1      34.048   9.312  16.118  1.00  0.00    -0.326 N
ATOM      9  H2  UNL     1      34.321   9.942  15.364  1.00  0.00     0.169 HD
HETATM   10  O1  UNL     1      31.798  10.082  15.863  1.00  0.00    -0.327 OA
HETATM   11  C9  UNL     1      30.643  10.395  16.615  1.00  0.00     0.164 C
HETATM   12  C10 UNL     1      29.647  11.152  15.760  1.00  0.00     0.185 C
HETATM   13  N3  UNL     1      28.505  11.483  16.585  1.00  0.00    -0.253 N
HETATM   14  C11 UNL     1      27.976  12.773  16.549  1.00  0.00     0.241 C
HETATM   15  O2  UNL     1      26.982  13.059  17.261  1.00  0.00    -0.271 OA
HETATM   16  N4  UNL     1      27.942  10.480  17.406  1.00  0.00    -0.252 N
HETATM   17  C22 UNL     1      28.715   9.268  17.582  1.00  0.00     0.245 C
HETATM   18  O3  UNL     1      28.247   8.314  18.294  1.00  0.00    -0.271 OA
HETATM   19  C23 UNL     1      30.029   9.060  16.983  1.00  0.00     0.115 C
HETATM   20  C24 UNL     1      30.924   8.349  17.969  1.00  0.00     0.062 C
ENDROOT
BRANCH  16  21
HETATM   21  C15 UNL     1      26.691  10.531  18.066  1.00  0.00     0.191 C
BRANCH  21  22
HETATM   22  C16 UNL     1      25.606   9.735  17.514  1.00  0.00    -0.037 A
HETATM   23  C17 UNL     1      24.639   9.234  18.347  1.00  0.00     0.009 A
HETATM   24  C18 UNL     1      23.576   8.475  17.861  1.00  0.00     0.002 A
HETATM   25  C19 UNL     1      23.501   8.231  16.515  1.00  0.00     0.019 A
HETATM   26  C20 UNL     1      24.464   8.730  15.680  1.00  0.00     0.011 A
HETATM   27 BR1  UNL     1      24.288   8.344  13.810  1.00  0.00    -0.051 Br
HETATM   28  C21 UNL     1      25.504   9.475  16.178  1.00  0.00     0.028 A
ENDBRANCH  21  22
ENDBRANCH  16  21
BRANCH  14  29
HETATM   29  C12 UNL     1      28.494  13.882  15.720  1.00  0.00     0.071 C
HETATM   30  C13 UNL     1      28.856  13.514  14.321  1.00  0.00     0.019 C
HETATM   31  C14 UNL     1      27.563  15.101  15.775  1.00  0.00     0.019 C
ENDBRANCH  14  29
BRANCH   1  32
HETATM   32  C3  UNL     1      36.419   8.601  16.278  1.00  0.00     0.076 C
BRANCH  32  33
HETATM   33  C2  UNL     1      36.536   9.170  14.859  1.00  0.00     0.003 C
HETATM   34  C1  UNL     1      37.108   8.135  13.920  1.00  0.00     0.005 C
ENDBRANCH  32  33
ENDBRANCH   1  32
TORSDOF 5
ENDMDL