MODEL 4
REMARK VINA RESULT: -7.973696300      3.007      8.022
REMARK  4 active torsions:
REMARK  status: ('A' for Active; 'I' for Inactive)
REMARK    1  A    between atoms: C2_2  and  C3_3
REMARK    2  A    between atoms: C3_3  and  C5_5
REMARK       I    between atoms: C5_5  and  N1_7
REMARK    3  A    between atoms: N2_11  and  C9_12
REMARK    4  A    between atoms: C9_12  and  C10_13
REMARK       I    between atoms: C10_13  and  N3_15
ROOT
HETATM    1  C10 UNL     1      26.537   7.267  14.725  1.00  0.00     0.237 C
HETATM    2  O2  UNL     1      26.962   7.279  13.547  1.00  0.00    -0.272 OA
HETATM    3  N3  UNL     1      25.188   6.894  14.941  1.00  0.00    -0.341 N
HETATM    4  C11 UNL     1      24.718   6.883  16.311  1.00  0.00     0.137 C
HETATM    5  C12 UNL     1      23.293   7.400  16.295  1.00  0.00     0.057 C
HETATM    6  C13 UNL     1      22.731   7.429  17.654  1.00  0.00    -0.030 A
HETATM    7  C14 UNL     1      22.880   8.425  18.651  1.00  0.00     0.009 A
HETATM    8  C15 UNL     1      22.309   8.304  19.889  1.00  0.00     0.001 A
HETATM    9  C16 UNL     1      21.562   7.175  20.176  1.00  0.00     0.002 A
HETATM   10  C17 UNL     1      21.391   6.176  19.231  1.00  0.00     0.024 A
HETATM   11  C18 UNL     1      21.979   6.331  17.999  1.00  0.00     0.066 A
HETATM   12  S1  UNL     1      21.950   5.304  16.580  1.00  0.00     0.181 S
HETATM   13  O3  UNL     1      20.590   4.784  16.286  1.00  0.00    -0.222 OA
HETATM   14  O4  UNL     1      22.986   4.258  16.689  1.00  0.00    -0.222 OA
HETATM   15  C19 UNL     1      22.403   6.612  15.423  1.00  0.00     0.126 C
HETATM   16  C20 UNL     1      22.994   6.075  14.180  1.00  0.00     0.051 C
HETATM   17  C21 UNL     1      24.348   6.548  13.826  1.00  0.00     0.029 C
HETATM   18  C22 UNL     1      24.232   7.769  12.937  1.00  0.00     0.038 C
HETATM   19  C23 UNL     1      25.081   5.482  13.005  1.00  0.00     0.038 C
ENDROOT
BRANCH   1  20
HETATM   20  C9  UNL     1      27.446   7.635  15.815  1.00  0.00     0.220 C
BRANCH  20  21
HETATM   21  N2  UNL     1      27.865   8.988  15.849  1.00  0.00    -0.400 N
HETATM   22  C8  UNL     1      28.987   9.339  15.044  1.00  0.00     0.142 C
HETATM   23  C6  UNL     1      29.570  10.644  15.551  1.00  0.00     0.101 C
HETATM   24  N1  UNL     1      28.563  11.628  15.814  1.00  0.00    -0.340 N
HETATM   25  C7  UNL     1      30.449  10.378  16.752  1.00  0.00     0.034 C
HETATM   26  C5  UNL     1      28.753  12.982  15.430  1.00  0.00     0.224 C
HETATM   27  C25 UNL     1      27.340  11.243  16.463  1.00  0.00     0.101 C
HETATM   28  O1  UNL     1      29.836  13.264  14.840  1.00  0.00    -0.273 OA
HETATM   29  C24 UNL     1      26.841   9.974  15.752  1.00  0.00     0.142 C
HETATM   30  C26 UNL     1      27.477  11.006  17.942  1.00  0.00     0.034 C
BRANCH  26  31
HETATM   31  C3  UNL     1      27.792  14.075  15.669  1.00  0.00     0.074 C
HETATM   32  C4  UNL     1      28.024  14.740  17.017  1.00  0.00     0.020 C
BRANCH  31  33
HETATM   33  C2  UNL     1      27.950  15.116  14.572  1.00  0.00     0.009 C
HETATM   34  C1  UNL     1      26.856  16.152  14.627  1.00  0.00     0.006 C
ENDBRANCH  31  33
ENDBRANCH  26  31
ENDBRANCH  20  21
ENDBRANCH   1  20
TORSDOF 4
ENDMDL