MODEL 1
REMARK VINA RESULT: -8.649361773      0.000      0.000
REMARK  7 active torsions:
REMARK  status: ('A' for Active; 'I' for Inactive)
REMARK    1  A    between atoms: O1_2  and  C2_3
REMARK    2  A    between atoms: C2_3  and  O2_4
REMARK    3  A    between atoms: C2_3  and  C3_6
REMARK    4  A    between atoms: C3_6  and  C4_7
REMARK    5  A    between atoms: C4_7  and  C5_8
REMARK       I    between atoms: C5_8  and  N1_10
REMARK    6  A    between atoms: N1_10  and  C7_12
REMARK    7  A    between atoms: C8_13  and  C9_14
ROOT
HETATM    1  C7  UNL     1      26.946   9.749  16.492  1.00  0.00     0.011 C
HETATM    2  C8  UNL     1      25.533  10.069  16.968  1.00  0.00     0.094 C
HETATM    3  C10 UNL     1      24.620   8.892  16.783  1.00  0.00     0.027 C
HETATM    4  C11 UNL     1      24.889   8.259  15.405  1.00  0.00    -0.033 C
HETATM    5  C12 UNL     1      24.162   9.002  14.319  1.00  0.00     0.011 C
HETATM    6  C13 UNL     1      22.883   8.473  13.845  1.00  0.00     0.020 C
HETATM    7  C14 UNL     1      22.566   7.245  13.174  1.00  0.00     0.043 C
HETATM    8  C15 UNL     1      22.805   7.408  11.656  1.00  0.00     0.026 C
HETATM    9  C16 UNL     1      21.091   7.034  13.247  1.00  0.00     0.230 C
HETATM   10  O5  UNL     1      20.370   8.009  13.530  1.00  0.00    -0.272 OA
HETATM   11  N2  UNL     1      20.506   5.773  13.005  1.00  0.00    -0.340 N
ATOM     12  H2  UNL     1      19.702   5.668  12.387  1.00  0.00     0.167 HD
HETATM   13  C17 UNL     1      21.041   4.749  13.610  1.00  0.00     0.064 C
HETATM   14  C18 UNL     1      22.200   5.094  14.472  1.00  0.00     0.052 C
HETATM   15  C19 UNL     1      23.153   5.905  13.644  1.00  0.00     0.031 C
HETATM   16  C20 UNL     1      24.412   6.239  14.254  1.00  0.00     0.043 C
HETATM   17 CL1  UNL     1      25.220   6.980  12.854  1.00  0.00    -0.119 Cl
HETATM   18  C21 UNL     1      25.525   5.408  14.694  1.00  0.00     0.026 C
HETATM   19  C22 UNL     1      26.651   6.445  14.925  1.00  0.00     0.008 C
HETATM   20  C23 UNL     1      26.284   7.836  15.195  1.00  0.00     0.008 C
HETATM   21  C24 UNL     1      27.226   8.323  16.368  1.00  0.00    -0.004 C
HETATM   22  C25 UNL     1      27.146   7.396  17.496  1.00  0.00     0.021 C
HETATM   23  C26 UNL     1      28.629   8.152  15.759  1.00  0.00     0.021 C
HETATM   24  C27 UNL     1      24.084   6.985  15.477  1.00  0.00     0.036 C
ENDROOT
BRANCH   1  25
HETATM   25  N1  UNL     1      27.820  10.737  16.918  1.00  0.00    -0.325 N
HETATM   26  C5  UNL     1      28.458  11.868  16.434  1.00  0.00     0.247 C
HETATM   27  O3  UNL     1      29.273  12.459  17.231  1.00  0.00    -0.268 OA
HETATM   28  C6  UNL     1      28.255  10.520  18.369  1.00  0.00     0.159 C
BRANCH  26  29
HETATM   29  C4  UNL     1      28.334  12.479  15.156  1.00  0.00     0.079 C
BRANCH  29  30
HETATM   30  C3  UNL     1      28.836  13.563  14.648  1.00  0.00     0.069 C
BRANCH  30  31
HETATM   31  C2  UNL     1      28.308  14.852  14.330  1.00  0.00     0.177 C
BRANCH  31  32
HETATM   32  O1  UNL     1      27.303  15.562  14.947  1.00  0.00    -0.336 OA
HETATM   33  C1  UNL     1      26.556  16.588  14.370  1.00  0.00     0.212 C
ENDBRANCH  31  32
BRANCH  31  34
HETATM   34  O2  UNL     1      28.807  15.514  13.314  1.00  0.00    -0.341 OA
ATOM     35  H2  UNL     1      29.732  15.692  13.438  1.00  0.00     0.220 HD
ENDBRANCH  31  34
ENDBRANCH  30  31
ENDBRANCH  29  30
ENDBRANCH  26  29
ENDBRANCH   1  25
BRANCH   2  36
HETATM   36  C9  UNL     1      25.407  10.586  18.319  1.00  0.00     0.241 C
HETATM   37  O4  UNL     1      24.758   9.960  19.145  1.00  0.00    -0.306 OA
ENDBRANCH   2  36
TORSDOF 7
ENDMDL