MODEL 1
REMARK VINA RESULT: -6.550541139      0.000      0.000
REMARK  7 active torsions:
REMARK  status: ('A' for Active; 'I' for Inactive)
REMARK    1  A    between atoms: C2_2  and  O1_3
REMARK    2  A    between atoms: O1_3  and  C3_4
REMARK       I    between atoms: C3_4  and  N1_6
REMARK    3  A    between atoms: C7_10  and  C8_11
REMARK    4  A    between atoms: C8_11  and  O4_13
REMARK    5  A    between atoms: O4_13  and  C9_14
REMARK    6  A    between atoms: N2_16  and  S1_17
REMARK    7  A    between atoms: S1_17  and  C11_20
ROOT
HETATM    1  C3  UNL     1       8.480  48.127  57.341  1.00  0.00     0.363 C
HETATM    2  O2  UNL     1       8.581  49.352  57.628  1.00  0.00    -0.238 OA
HETATM    3  N1  UNL     1       9.299  47.201  58.071  1.00  0.00    -0.313 N
HETATM    4  C4  UNL     1       9.432  45.769  57.999  1.00  0.00     0.125 C
HETATM    5  C5  UNL     1      10.761  45.891  58.747  1.00  0.00     0.056 C
HETATM    6  C6  UNL     1      10.278  47.244  59.112  1.00  0.00     0.106 C
HETATM    7  C7  UNL     1       9.721  47.401  60.493  1.00  0.00     0.113 C
HETATM    8  C19 UNL     1       9.392  46.139  61.197  1.00  0.00     0.056 C
HETATM    9  C20 UNL     1       8.444  45.352  60.335  1.00  0.00    -0.049 A
HETATM   10  C21 UNL     1       7.455  44.736  61.063  1.00  0.00     0.007 A
HETATM   11  C22 UNL     1       6.507  43.978  60.423  1.00  0.00     0.001 A
HETATM   12  C23 UNL     1       6.493  43.799  59.055  1.00  0.00     0.001 A
HETATM   13  C24 UNL     1       7.497  44.428  58.342  1.00  0.00     0.010 A
HETATM   14  C25 UNL     1       8.455  45.189  58.964  1.00  0.00    -0.029 A
ENDROOT
BRANCH   7  15
HETATM   15  C8  UNL     1      10.596  48.280  61.306  1.00  0.00     0.265 C
HETATM   16  O3  UNL     1      11.617  48.863  60.860  1.00  0.00    -0.265 OA
BRANCH  15  17
HETATM   17  O4  UNL     1      10.277  48.474  62.631  1.00  0.00    -0.314 OA
BRANCH  17  18
HETATM   18  C9  UNL     1       9.740  49.622  63.179  1.00  0.00     0.155 C
HETATM   19  C10 UNL     1       8.829  50.405  62.250  1.00  0.00     0.140 C
HETATM   20  N2  UNL     1       7.577  49.755  62.483  1.00  0.00    -0.207 NA
HETATM   21  C15 UNL     1       7.439  49.841  63.906  1.00  0.00     0.118 C
HETATM   22  C16 UNL     1       8.815  49.265  64.318  1.00  0.00    -0.007 C
HETATM   23  C17 UNL     1       9.219  49.997  65.573  1.00  0.00     0.019 C
HETATM   24  C18 UNL     1       8.675  47.792  64.520  1.00  0.00     0.019 C
BRANCH  20  25
HETATM   25  S1  UNL     1       6.269  50.127  61.534  1.00  0.00     0.219 S
HETATM   26  O5  UNL     1       5.332  51.048  62.273  1.00  0.00    -0.210 OA
HETATM   27  O6  UNL     1       6.728  50.867  60.304  1.00  0.00    -0.210 OA
BRANCH  25  28
HETATM   28  C11 UNL     1       5.344  48.678  61.080  1.00  0.00     0.067 C
HETATM   29  C12 UNL     1       5.987  48.044  59.824  1.00  0.00     0.033 C
HETATM   30  C13 UNL     1       5.413  47.601  62.140  1.00  0.00     0.033 C
HETATM   31  C14 UNL     1       3.932  49.014  60.683  1.00  0.00     0.033 C
ENDBRANCH  25  28
ENDBRANCH  20  25
ENDBRANCH  17  18
ENDBRANCH  15  17
ENDBRANCH   7  15
BRANCH   1  32
HETATM   32  O1  UNL     1       7.610  47.735  56.363  1.00  0.00    -0.304 OA
BRANCH  32  33
HETATM   33  C2  UNL     1       8.000  47.872  55.004  1.00  0.00     0.176 C
HETATM   34  C1  UNL     1       7.648  49.222  54.454  1.00  0.00     0.034 C
ENDBRANCH  32  33
ENDBRANCH   1  32
TORSDOF 7
ENDMDL