MODEL 5
REMARK VINA RESULT: -6.655357912      3.474      8.051
REMARK  5 active torsions:
REMARK  status: ('A' for Active; 'I' for Inactive)
REMARK    1  A    between atoms: C4_5  and  C5_6
REMARK    2  A    between atoms: C5_6  and  S1_7
REMARK    3  A    between atoms: S1_7  and  C6_9
REMARK    4  A    between atoms: N1_18  and  S2_19
REMARK    5  A    between atoms: S2_19  and  C15_22
ROOT
HETATM    1  C6  UNL     1       9.969  45.940  60.083  1.00  0.00     0.032 A
HETATM    2  C7  UNL     1       9.808  45.844  61.467  1.00  0.00     0.023 A
HETATM    3  C8  UNL     1      10.527  46.682  62.294  1.00  0.00     0.032 A
HETATM    4  C9  UNL     1      11.397  47.607  61.774  1.00  0.00     0.051 A
HETATM    5  C10 UNL     1      11.572  47.717  60.403  1.00  0.00    -0.029 A
HETATM    6  C11 UNL     1      10.855  46.884  59.589  1.00  0.00     0.030 A
HETATM    7  C12 UNL     1      12.552  48.738  59.939  1.00  0.00     0.042 C
HETATM    8  C13 UNL     1      13.773  48.484  60.840  1.00  0.00     0.026 C
HETATM    9  C14 UNL     1      13.424  48.910  62.215  1.00  0.00     0.142 C
HETATM   10  N1  UNL     1      12.110  48.438  62.686  1.00  0.00    -0.275 N
ENDROOT
BRANCH   1  11
HETATM   11  S1  UNL     1       9.045  44.871  59.115  1.00  0.00     0.054 S
HETATM   12  O1  UNL     1       9.106  43.286  59.523  1.00  0.00    -0.252 OA
BRANCH  11  13
HETATM   13  C5  UNL     1       7.642  45.478  58.354  1.00  0.00     0.156 C
BRANCH  13  14
HETATM   14  C4  UNL     1       7.459  46.934  58.242  1.00  0.00    -0.005 A
HETATM   15  C3  UNL     1       6.931  47.722  59.295  1.00  0.00     0.042 A
HETATM   16  C2  UNL     1       6.912  49.034  58.909  1.00  0.00     0.025 A
HETATM   17 BR1  UNL     1       6.334  47.077  60.994  1.00  0.00    -0.048 Br
HETATM   18  C1  UNL     1       6.434  50.218  59.698  1.00  0.00     0.070 C
HETATM   19  N2  UNL     1       7.405  49.071  57.674  1.00  0.00    -0.357 N
HETATM   20  C19 UNL     1       7.746  47.809  57.245  1.00  0.00     0.016 A
HETATM   21  C21 UNL     1       7.565  50.295  56.886  1.00  0.00     0.156 C
HETATM   22  C20 UNL     1       8.346  47.597  55.879  1.00  0.00     0.069 C
ENDBRANCH  13  14
ENDBRANCH  11  13
ENDBRANCH   1  11
BRANCH  10  23
HETATM   23  S2  UNL     1      11.536  48.912  64.203  1.00  0.00     0.240 S
HETATM   24  O2  UNL     1      12.631  49.794  64.838  1.00  0.00    -0.205 OA
HETATM   25  O3  UNL     1      11.475  47.788  65.212  1.00  0.00    -0.205 OA
BRANCH  23  26
HETATM   26  C15 UNL     1      10.115  49.925  64.231  1.00  0.00     0.072 C
HETATM   27  C16 UNL     1      10.191  50.908  65.386  1.00  0.00     0.033 C
HETATM   28  C17 UNL     1       8.787  49.272  64.261  1.00  0.00     0.033 C
HETATM   29  C18 UNL     1      10.130  50.805  62.969  1.00  0.00     0.033 C
ENDBRANCH  23  26
ENDBRANCH  10  23
TORSDOF 5
ENDMDL