MODEL 1
REMARK VINA RESULT: -7.158636447      0.000      0.000
REMARK  10 active torsions:
REMARK  status: ('A' for Active; 'I' for Inactive)
REMARK    1  A    between atoms: C2_2  and  O1_5
REMARK    2  A    between atoms: O1_5  and  C5_6
REMARK       I    between atoms: C5_6  and  N1_8
REMARK    3  A    between atoms: C8_11  and  C9_12
REMARK    4  A    between atoms: C9_12  and  O3_13
REMARK    5  A    between atoms: C9_12  and  C16_22
REMARK    6  A    between atoms: O3_13  and  C10_14
REMARK    7  A    between atoms: C10_14  and  C11_16
REMARK    8  A    between atoms: C11_16  and  C12_18
REMARK    9  A    between atoms: C16_22  and  O5_23
REMARK   10  A    between atoms: C16_22  and  N2_25
ROOT
HETATM    1  C9  UNL     1       8.235  45.500  57.991  1.00  0.00     0.210 C
ENDROOT
BRANCH   1   2
HETATM    2  C8  UNL     1       9.529  45.526  58.667  1.00  0.00     0.026 C
HETATM    3  C7  UNL     1      10.212  46.900  58.482  1.00  0.00     0.027 C
HETATM    4  C6  UNL     1      11.438  47.017  59.401  1.00  0.00     0.128 C
HETATM    5  N1  UNL     1      10.895  47.121  60.759  1.00  0.00    -0.328 N
HETATM    6  C5  UNL     1      11.745  47.426  61.819  1.00  0.00     0.363 C
HETATM    7  C23 UNL     1       9.490  46.884  60.848  1.00  0.00     0.128 C
HETATM    8  O2  UNL     1      11.331  47.527  63.004  1.00  0.00    -0.238 OA
HETATM    9  C22 UNL     1       9.205  45.559  60.190  1.00  0.00     0.027 C
BRANCH   6  10
HETATM   10  O1  UNL     1      13.113  47.639  61.643  1.00  0.00    -0.294 OA
BRANCH  10  11
HETATM   11  C2  UNL     1      13.677  48.923  61.491  1.00  0.00     0.061 C
HETATM   12  C1  UNL     1      14.687  48.835  60.364  1.00  0.00     0.046 C
HETATM   13  C3  UNL     1      12.646  49.961  61.147  1.00  0.00     0.046 C
HETATM   14  C4  UNL     1      14.436  49.367  62.729  1.00  0.00     0.046 C
ENDBRANCH  10  11
ENDBRANCH   6  10
ENDBRANCH   1   2
BRANCH   1  15
HETATM   15  O3  UNL     1       7.199  44.821  58.759  1.00  0.00    -0.306 OA
BRANCH  15  16
HETATM   16  C10 UNL     1       6.671  43.609  58.409  1.00  0.00     0.275 C
HETATM   17  O4  UNL     1       6.478  43.455  57.174  1.00  0.00    -0.264 OA
BRANCH  16  18
HETATM   18  C11 UNL     1       6.358  42.577  59.415  1.00  0.00     0.164 C
HETATM   19 BR1  UNL     1       6.295  43.483  61.147  1.00  0.00    -0.080 Br
BRANCH  18  20
HETATM   20  C12 UNL     1       7.376  41.488  59.555  1.00  0.00    -0.029 C
HETATM   21  C13 UNL     1       8.685  41.989  60.123  1.00  0.00     0.016 C
HETATM   22  C14 UNL     1       7.670  40.771  58.280  1.00  0.00     0.016 C
HETATM   23  C15 UNL     1       6.823  40.495  60.555  1.00  0.00     0.016 C
ENDBRANCH  18  20
ENDBRANCH  16  18
ENDBRANCH  15  16
ENDBRANCH   1  15
BRANCH   1  24
HETATM   24  C16 UNL     1       7.654  46.800  57.611  1.00  0.00     0.144 C
BRANCH  24  25
HETATM   25  O5  UNL     1       6.714  47.207  58.518  1.00  0.00    -0.347 OA
ATOM     26  H5  UNL     1       6.310  48.025  58.251  1.00  0.00     0.219 HD
ENDBRANCH  24  25
BRANCH  24  27
HETATM   27  N2  UNL     1       7.770  47.738  56.622  1.00  0.00    -0.363 N
HETATM   28  C17 UNL     1       7.983  49.156  57.100  1.00  0.00     0.124 C
HETATM   29  C18 UNL     1       7.157  50.090  56.272  1.00  0.00     0.020 C
HETATM   30  C19 UNL     1       7.540  50.083  54.819  1.00  0.00     0.003 C
HETATM   31  C20 UNL     1       8.495  48.944  54.611  1.00  0.00     0.020 C
HETATM   32  C21 UNL     1       7.808  47.680  55.186  1.00  0.00     0.124 C
ENDBRANCH  24  27
ENDBRANCH   1  24
TORSDOF 10
ENDMDL