MODEL 1
REMARK VINA RESULT: -7.317639767      0.000      0.000
REMARK  5 active torsions:
REMARK  status: ('A' for Active; 'I' for Inactive)
REMARK    1  A    between atoms: C2_2  and  C3_3
REMARK    2  A    between atoms: C6_6  and  C7_7
REMARK    3  A    between atoms: C7_7  and  C8_8
REMARK       I    between atoms: C8_8  and  N1_10
REMARK    4  A    between atoms: N3_22  and  O2_23
REMARK    5  A    between atoms: C20_27  and  N4_28
ROOT
HETATM    1  C3  UNL     1      12.662  48.343  61.117  1.00  0.00    -0.031 A
HETATM    2  C4  UNL     1      11.717  47.880  60.192  1.00  0.00     0.023 A
HETATM    3  C5  UNL     1      10.930  46.823  60.507  1.00  0.00     0.001 A
HETATM    4  C6  UNL     1      10.005  46.395  59.557  1.00  0.00    -0.024 A
HETATM    5  C11 UNL     1       9.222  45.318  59.912  1.00  0.00     0.004 A
HETATM    6  C12 UNL     1       8.262  44.742  59.117  1.00  0.00     0.037 A
HETATM    7  C13 UNL     1       7.486  43.648  59.496  1.00  0.00     0.046 A
HETATM    8  C14 UNL     1       6.513  43.152  58.551  1.00  0.00     0.099 C
HETATM    9  N2  UNL     1       5.721  42.761  57.805  1.00  0.00    -0.191 NA
HETATM   10  C15 UNL     1       7.674  43.093  60.732  1.00  0.00     0.044 A
HETATM   11  C16 UNL     1       8.628  43.638  61.563  1.00  0.00     0.042 A
HETATM   12 BR1  UNL     1       8.865  42.845  63.274  1.00  0.00    -0.049 Br
HETATM   13  C17 UNL     1       9.399  44.734  61.174  1.00  0.00     0.091 A
HETATM   14  N3  UNL     1      10.301  45.180  62.054  1.00  0.00    -0.222 N
HETATM   15  C18 UNL     1      11.081  46.225  61.744  1.00  0.00     0.076 A
HETATM   16  C19 UNL     1      12.008  46.675  62.659  1.00  0.00     0.062 A
HETATM   17  C20 UNL     1      12.830  47.774  62.337  1.00  0.00     0.038 A
ENDROOT
BRANCH   4  18
HETATM   18  C7  UNL     1       9.844  47.005  58.257  1.00  0.00     0.143 C
BRANCH  18  19
HETATM   19  C8  UNL     1       8.808  48.076  58.223  1.00  0.00     0.223 C
HETATM   20  O1  UNL     1       8.434  48.718  59.224  1.00  0.00    -0.273 OA
HETATM   21  N1  UNL     1       8.217  48.375  56.965  1.00  0.00    -0.361 N
HETATM   22  C9  UNL     1       7.191  49.416  56.841  1.00  0.00     0.152 C
HETATM   23  C10 UNL     1       8.586  47.682  55.746  1.00  0.00     0.152 C
ENDBRANCH  18  19
ENDBRANCH   4  18
BRANCH  14  24
HETATM   24  O2  UNL     1      10.444  44.571  63.295  1.00  0.00    -0.282 OA
ATOM     25  H2  UNL     1      11.305  44.428  63.669  1.00  0.00     0.245 HD
ENDBRANCH  14  24
BRANCH   1  26
HETATM   26  C2  UNL     1      13.482  49.497  60.677  1.00  0.00     0.036 C
HETATM   27  C1  UNL     1      14.827  49.011  60.245  1.00  0.00     0.010 C
ENDBRANCH   1  26
BRANCH  17  28
HETATM   28  N4  UNL     1      13.756  48.184  63.327  1.00  0.00    -0.376 N
HETATM   29  C21 UNL     1      15.059  47.676  63.584  1.00  0.00     0.149 C
HETATM   30  C22 UNL     1      16.013  48.853  63.833  1.00  0.00     0.187 C
HETATM   31  O3  UNL     1      15.570  49.536  64.965  1.00  0.00    -0.388 OA
HETATM   32  C23 UNL     1      14.386  50.162  64.674  1.00  0.00     0.187 C
HETATM   33  C24 UNL     1      13.289  49.276  64.196  1.00  0.00     0.149 C
ENDBRANCH  17  28
TORSDOF 5
ENDMDL