MODEL 4
REMARK VINA RESULT: -8.811752988      1.868      2.402
REMARK  4 active torsions:
REMARK  status: ('A' for Active; 'I' for Inactive)
REMARK    1  A    between atoms: N1_11  and  C8_12
REMARK    2  A    between atoms: C8_12  and  C9_13
REMARK    3  A    between atoms: C9_13  and  C10_14
REMARK    4  A    between atoms: N2_24  and  C18_25
ROOT
HETATM    1  C1  UNL     1      12.109  45.644  64.217  1.00  0.00     0.048 C
HETATM    2  C2  UNL     1      11.709  46.159  63.072  1.00  0.00     0.084 A
HETATM    3  C3  UNL     1      10.690  45.592  62.150  1.00  0.00     0.215 A
HETATM    4  O1  UNL     1      10.110  44.520  62.422  1.00  0.00    -0.285 OA
HETATM    5  C4  UNL     1      10.524  46.451  60.987  1.00  0.00     0.105 A
HETATM    6  C5  UNL     1       9.702  46.278  59.923  1.00  0.00     0.108 A
HETATM    7  C6  UNL     1       8.787  45.168  59.711  1.00  0.00     0.256 A
HETATM    8  O2  UNL     1       8.556  44.179  60.432  1.00  0.00    -0.281 OA
HETATM    9  C7  UNL     1       8.096  45.373  58.417  1.00  0.00     0.301 A
HETATM   10  O3  UNL     1       7.223  44.563  57.940  1.00  0.00    -0.263 OA
HETATM   11  N1  UNL     1       8.572  46.566  57.858  1.00  0.00    -0.277 N
HETATM   12  C16 UNL     1       9.555  47.136  58.763  1.00  0.00     0.266 A
HETATM   13  O4  UNL     1      10.141  48.205  58.510  1.00  0.00    -0.267 OA
HETATM   14  C17 UNL     1      11.455  47.547  61.215  1.00  0.00     0.268 A
HETATM   15  O5  UNL     1      11.686  48.554  60.490  1.00  0.00    -0.267 OA
HETATM   16  N2  UNL     1      12.147  47.342  62.470  1.00  0.00    -0.274 N
ENDROOT
BRANCH  16  17
HETATM   17  C18 UNL     1      13.131  48.263  62.955  1.00  0.00     0.060 A
HETATM   18  C19 UNL     1      14.457  48.100  62.613  1.00  0.00     0.032 A
HETATM   19  C20 UNL     1      15.419  48.987  63.082  1.00  0.00     0.009 A
HETATM   20  C21 UNL     1      15.097  50.052  63.896  1.00  0.00    -0.061 A
HETATM   21  C22 UNL     1      16.129  51.008  64.405  1.00  0.00     0.048 C
HETATM   22  C23 UNL     1      13.757  50.196  64.228  1.00  0.00     0.028 A
HETATM   23  C24 UNL     1      12.791  49.321  63.768  1.00  0.00     0.038 A
HETATM   24 BR1  UNL     1      10.979  49.581  64.262  1.00  0.00    -0.049 Br
ENDBRANCH  16  17
BRANCH  11  25
HETATM   25  C8  UNL     1       8.167  47.143  56.593  1.00  0.00     0.140 C
BRANCH  25  26
HETATM   26  C9  UNL     1       7.379  48.391  56.668  1.00  0.00     0.059 C
BRANCH  26  27
HETATM   27  C10 UNL     1       7.701  49.408  55.638  1.00  0.00    -0.057 A
HETATM   28  C11 UNL     1       7.386  50.738  55.813  1.00  0.00     0.007 A
HETATM   29  C12 UNL     1       7.700  51.659  54.841  1.00  0.00     0.001 A
HETATM   30  C13 UNL     1       8.336  51.317  53.657  1.00  0.00     0.000 A
HETATM   31  C14 UNL     1       8.643  49.984  53.497  1.00  0.00     0.001 A
HETATM   32  C15 UNL     1       8.338  49.052  54.455  1.00  0.00     0.007 A
ENDBRANCH  26  27
ENDBRANCH  25  26
ENDBRANCH  11  25
TORSDOF 4
ENDMDL