MODEL 4
REMARK VINA RESULT: -8.668358653      3.324      9.215
REMARK  7 active torsions:
REMARK  status: ('A' for Active; 'I' for Inactive)
REMARK    1  A    between atoms: C7_7  and  C8_8
REMARK    2  A    between atoms: C8_8  and  O2_10
REMARK    3  A    between atoms: O2_10  and  C9_11
REMARK    4  A    between atoms: C9_11  and  C10_12
REMARK       I    between atoms: C10_12  and  N1_14
REMARK    5  A    between atoms: N1_14  and  C12_16
REMARK    6  A    between atoms: C14_18  and  C15_19
REMARK    7  A    between atoms: C16_20  and  C17_21
ROOT
HETATM    1  C10 UNL     1      10.411  45.418  59.575  1.00  0.00     0.244 C
HETATM    2  O3  UNL     1      10.552  44.382  60.269  1.00  0.00    -0.271 OA
HETATM    3  N1  UNL     1      10.609  46.662  60.186  1.00  0.00    -0.346 N
HETATM    4  C11 UNL     1      10.461  47.894  59.438  1.00  0.00     0.153 C
ENDROOT
BRANCH   3   5
HETATM    5  C12 UNL     1      10.977  46.802  61.605  1.00  0.00     0.112 C
HETATM    6  C13 UNL     1      12.265  47.473  61.642  1.00  0.00     0.031 C
HETATM    7  C14 UNL     1      12.617  48.540  62.315  1.00  0.00     0.111 C
HETATM    8  S1  UNL     1      11.403  49.295  63.313  1.00  0.00     0.183 S
HETATM    9  O4  UNL     1      11.443  48.848  64.725  1.00  0.00    -0.222 OA
HETATM   10  O5  UNL     1      11.497  50.809  63.218  1.00  0.00    -0.222 OA
HETATM   11  C23 UNL     1       9.838  48.870  62.537  1.00  0.00     0.148 C
HETATM   12  C24 UNL     1       9.839  47.407  62.311  1.00  0.00     0.045 C
BRANCH   7  13
HETATM   13  C15 UNL     1      13.936  49.073  62.237  1.00  0.00    -0.050 C
HETATM   14  C16 UNL     1      15.061  49.508  62.162  1.00  0.00    -0.061 C
BRANCH  14  15
HETATM   15  C17 UNL     1      16.391  50.035  62.050  1.00  0.00     0.018 A
HETATM   16  C18 UNL     1      16.988  50.148  60.816  1.00  0.00     0.024 A
HETATM   17  C19 UNL     1      18.262  50.645  60.641  1.00  0.00     0.044 A
HETATM   18  C20 UNL     1      18.977  51.050  61.755  1.00  0.00     0.116 A
HETATM   19  F1  UNL     1      20.236  51.541  61.581  1.00  0.00    -0.206 F
HETATM   20  C21 UNL     1      18.416  50.953  62.999  1.00  0.00     0.044 A
HETATM   21  C22 UNL     1      17.149  50.453  63.128  1.00  0.00     0.024 A
ENDBRANCH  14  15
ENDBRANCH   7  13
ENDBRANCH   3   5
BRANCH   1  22
HETATM   22  C9  UNL     1      10.051  45.315  58.167  1.00  0.00     0.281 C
BRANCH  22  23
HETATM   23  O2  UNL     1       8.850  44.686  57.873  1.00  0.00    -0.308 OA
BRANCH  23  24
HETATM   24  C8  UNL     1       7.578  45.214  57.960  1.00  0.00     0.294 C
HETATM   25  O1  UNL     1       6.668  44.450  57.491  1.00  0.00    -0.259 OA
BRANCH  24  26
HETATM   26  C7  UNL     1       7.233  46.512  58.521  1.00  0.00     0.052 A
HETATM   27  C5  UNL     1       6.856  46.692  59.856  1.00  0.00    -0.039 A
HETATM   28  C3  UNL     1       6.544  47.919  60.385  1.00  0.00    -0.049 A
HETATM   29  C6  UNL     1       6.784  45.489  60.717  1.00  0.00     0.050 C
HETATM   30  C2  UNL     1       6.607  49.026  59.551  1.00  0.00    -0.049 A
HETATM   31  C4  UNL     1       6.155  48.164  61.770  1.00  0.00     0.049 C
HETATM   32  C1  UNL     1       6.271  50.369  60.089  1.00  0.00     0.049 C
HETATM   33  C27 UNL     1       6.972  48.900  58.233  1.00  0.00    -0.049 A
HETATM   34  C25 UNL     1       7.281  47.645  57.736  1.00  0.00    -0.039 A
HETATM   35  C28 UNL     1       7.027  50.102  57.387  1.00  0.00     0.049 C
HETATM   36  C26 UNL     1       7.664  47.611  56.305  1.00  0.00     0.050 C
ENDBRANCH  24  26
ENDBRANCH  23  24
ENDBRANCH  22  23
ENDBRANCH   1  22
TORSDOF 7
ENDMDL