MODEL 5
REMARK VINA RESULT: -6.807692314      9.360     13.149
REMARK  4 active torsions:
REMARK  status: ('A' for Active; 'I' for Inactive)
REMARK    1  A    between atoms: S1_3  and  N1_6
REMARK    2  A    between atoms: N2_17  and  C11_18
REMARK    3  A    between atoms: C11_18  and  C12_19
REMARK    4  A    between atoms: C16_23  and  N3_24
ROOT
HETATM    1  C1  UNL     1      10.262  48.097  59.343  1.00  0.00     0.031 C
HETATM    2  C2  UNL     1       9.303  47.485  58.928  1.00  0.00     0.038 C
HETATM    3  S1  UNL     1       7.920  46.635  58.368  1.00  0.00     0.311 S
HETATM    4  O1  UNL     1       6.871  47.491  57.722  1.00  0.00    -0.191 OA
HETATM    5  O2  UNL     1       8.492  46.019  57.054  1.00  0.00    -0.191 OA
ENDROOT
BRANCH   3   6
HETATM    6  N1  UNL     1       7.430  45.299  59.248  1.00  0.00    -0.192 N
HETATM    7  C3  UNL     1       7.629  43.931  58.787  1.00  0.00     0.247 C
HETATM    8  O3  UNL     1       7.661  43.772  57.549  1.00  0.00    -0.271 OA
HETATM    9  C4  UNL     1       7.767  42.892  59.812  1.00  0.00     0.039 C
HETATM   10  C5  UNL     1       9.039  43.062  60.645  1.00  0.00     0.025 C
HETATM   11  C6  UNL     1       7.753  41.507  59.182  1.00  0.00     0.025 C
HETATM   12  C7  UNL     1       6.612  42.923  60.806  1.00  0.00     0.060 C
HETATM   13  C8  UNL     1       6.357  44.306  61.228  1.00  0.00    -0.011 A
HETATM   14  C9  UNL     1       6.770  45.412  60.510  1.00  0.00     0.130 A
HETATM   15  C26 UNL     1       5.701  44.502  62.420  1.00  0.00     0.003 A
HETATM   16  C10 UNL     1       6.505  46.627  61.027  1.00  0.00     0.281 A
HETATM   17  O4  UNL     1       6.854  47.672  60.426  1.00  0.00    -0.265 OA
HETATM   18  N2  UNL     1       5.851  46.877  62.223  1.00  0.00    -0.283 N
HETATM   19  C21 UNL     1       5.451  45.799  62.912  1.00  0.00     0.091 A
HETATM   20  C22 UNL     1       4.789  45.923  64.103  1.00  0.00     0.144 A
HETATM   21  F1  UNL     1       4.544  47.155  64.595  1.00  0.00    -0.204 F
HETATM   22  C23 UNL     1       4.346  44.826  64.858  1.00  0.00     0.045 A
HETATM   23  C24 UNL     1       4.596  43.581  64.365  1.00  0.00     0.004 A
HETATM   24  C25 UNL     1       5.267  43.418  63.155  1.00  0.00     0.014 A
BRANCH  18  25
HETATM   25  C11 UNL     1       5.676  48.170  62.627  1.00  0.00     0.113 C
BRANCH  25  26
HETATM   26  C12 UNL     1       4.380  48.714  62.094  1.00  0.00    -0.012 A
HETATM   27  C13 UNL     1       3.515  47.931  61.364  1.00  0.00     0.013 A
HETATM   28  C14 UNL     1       2.329  48.463  60.878  1.00  0.00     0.003 A
HETATM   29  C15 UNL     1       1.975  49.770  61.102  1.00  0.00     0.030 A
HETATM   30  C16 UNL     1       2.830  50.566  61.832  1.00  0.00     0.036 A
HETATM   31  C19 UNL     1       3.994  50.027  62.303  1.00  0.00    -0.024 A
HETATM   32  C20 UNL     1       4.919  50.891  63.072  1.00  0.00     0.051 C
BRANCH  30  33
HETATM   33  N3  UNL     1       2.444  51.912  62.084  1.00  0.00    -0.389 N
HETATM   34  C17 UNL     1       2.774  52.942  61.128  1.00  0.00     0.149 C
HETATM   35  C18 UNL     1       1.714  52.296  63.292  1.00  0.00     0.149 C
ENDBRANCH  30  33
ENDBRANCH  25  26
ENDBRANCH  18  25
ENDBRANCH   3   6
TORSDOF 4
ENDMDL