MODEL 4
REMARK VINA RESULT: -7.154196378      0.987      1.056
REMARK  3 active torsions:
REMARK  status: ('A' for Active; 'I' for Inactive)
REMARK    1  A    between atoms: C15_20  and  C16_21
REMARK    2  A    between atoms: C20_26  and  O4_27
REMARK    3  A    between atoms: C22_29  and  O5_30
ROOT
HETATM    1  C16 UNL     1       6.630  48.750  59.052  1.00  0.00    -0.001 A
HETATM    2  C17 UNL     1       6.846  49.702  58.101  1.00  0.00     0.053 A
HETATM    3  C18 UNL     1       7.625  49.504  56.952  1.00  0.00     0.105 A
HETATM    4  O3  UNL     1       7.782  50.453  56.094  1.00  0.00    -0.353 OA
HETATM    5  C19 UNL     1       7.917  51.426  55.256  1.00  0.00     0.210 C
HETATM    6  C20 UNL     1       8.220  48.230  56.784  1.00  0.00     0.135 A
HETATM    7  C22 UNL     1       8.010  47.267  57.734  1.00  0.00     0.105 A
HETATM    8  C24 UNL     1       7.231  47.526  58.841  1.00  0.00     0.053 A
ENDROOT
BRANCH   6   9
HETATM    9  O4  UNL     1       8.995  48.012  55.654  1.00  0.00    -0.351 OA
HETATM   10  C21 UNL     1       8.486  47.665  54.396  1.00  0.00     0.210 C
ENDBRANCH   6   9
BRANCH   1  11
HETATM   11  C15 UNL     1       5.807  49.042  60.234  1.00  0.00     0.073 A
HETATM   12  N2  UNL     1       5.634  49.275  61.603  1.00  0.00    -0.340 N
HETATM   13  C13 UNL     1       5.794  49.479  63.029  1.00  0.00     0.149 C
HETATM   14  C14 UNL     1       4.568  49.258  60.800  1.00  0.00     0.076 A
HETATM   15  C12 UNL     1       4.540  49.177  63.749  1.00  0.00     0.146 C
HETATM   16  N1  UNL     1       3.572  50.223  63.855  1.00  0.00    -0.344 N
HETATM   17  C5  UNL     1       3.752  51.591  63.494  1.00  0.00     0.109 C
HETATM   18  C11 UNL     1       2.297  49.827  64.385  1.00  0.00     0.221 C
HETATM   19  C4  UNL     1       3.507  51.774  62.032  1.00  0.00     0.155 C
HETATM   20  C6  UNL     1       3.088  52.587  64.397  1.00  0.00     0.037 C
HETATM   21  C3  UNL     1       2.614  50.740  61.454  1.00  0.00     0.177 C
HETATM   22 BR1  UNL     1       2.768  53.506  61.598  1.00  0.00    -0.081 Br
HETATM   23  C2  UNL     1       3.144  49.433  60.981  1.00  0.00     0.031 C
HETATM   24  O1  UNL     1       1.377  50.973  61.360  1.00  0.00    -0.291 OA
HETATM   25  C1  UNL     1       2.257  48.488  60.733  1.00  0.00     0.030 C
HETATM   26  C7  UNL     1       2.289  51.934  65.508  1.00  0.00    -0.030 A
HETATM   27  C8  UNL     1       2.845  51.827  66.887  1.00  0.00     0.011 A
HETATM   28  C9  UNL     1       1.708  52.815  66.544  1.00  0.00     0.011 A
HETATM   29  C10 UNL     1       1.377  50.856  64.976  1.00  0.00     0.112 C
HETATM   30  O2  UNL     1       1.931  48.619  64.365  1.00  0.00    -0.273 OA
ENDBRANCH   1  11
BRANCH   7  31
HETATM   31  O5  UNL     1       8.620  46.036  57.516  1.00  0.00    -0.353 OA
HETATM   32  C23 UNL     1       8.177  44.950  58.327  1.00  0.00     0.210 C
ENDBRANCH   7  31
TORSDOF 3
ENDMDL