MODEL 3
REMARK VINA RESULT: -7.776012589      3.625      6.641
REMARK  6 active torsions:
REMARK  status: ('A' for Active; 'I' for Inactive)
REMARK    1  A    between atoms: N1_8  and  O1_9
REMARK    2  A    between atoms: C8_11  and  C9_12
REMARK    3  A    between atoms: C9_12  and  C10_13
REMARK    4  A    between atoms: C13_16  and  N2_17
REMARK    5  A    between atoms: C16_22  and  C17_23
REMARK    6  A    between atoms: N3_30  and  O4_31
ROOT
HETATM    1  C1  UNL     1       8.328  51.006  52.625  1.00  0.00     0.036 C
HETATM    2  C2  UNL     1       8.629  49.770  53.393  1.00  0.00    -0.020 C
HETATM    3  C3  UNL     1       8.291  49.623  54.661  1.00  0.00    -0.009 C
HETATM    4  C4  UNL     1       7.588  50.753  55.307  1.00  0.00     0.048 C
HETATM    5  C5  UNL     1       7.457  50.694  56.766  1.00  0.00     0.067 C
HETATM    6  C6  UNL     1       7.809  49.413  57.400  1.00  0.00     0.074 A
HETATM    7  C7  UNL     1       8.342  48.325  56.794  1.00  0.00     0.138 A
HETATM    8  N1  UNL     1       8.622  47.208  57.478  1.00  0.00    -0.220 N
HETATM    9  C8  UNL     1       8.384  47.104  58.823  1.00  0.00     0.075 A
HETATM   10  C16 UNL     1       7.846  48.195  59.451  1.00  0.00     0.098 A
HETATM   11  N3  UNL     1       7.572  49.324  58.719  1.00  0.00    -0.224 N
HETATM   12  C23 UNL     1       8.610  48.402  55.347  1.00  0.00     0.209 C
HETATM   13  O5  UNL     1       9.106  47.393  54.777  1.00  0.00    -0.285 OA
ENDROOT
BRANCH   9  14
HETATM   14  C9  UNL     1       8.703  45.829  59.447  1.00  0.00     0.100 C
BRANCH  14  15
HETATM   15  C10 UNL     1       7.691  44.761  59.378  1.00  0.00    -0.052 A
HETATM   16  C11 UNL     1       7.006  44.312  60.485  1.00  0.00     0.010 A
HETATM   17  C12 UNL     1       6.089  43.259  60.394  1.00  0.00     0.036 A
HETATM   18  C13 UNL     1       5.822  42.620  59.204  1.00  0.00     0.102 A
HETATM   19  C14 UNL     1       6.513  43.076  58.101  1.00  0.00     0.036 A
HETATM   20  C15 UNL     1       7.417  44.108  58.172  1.00  0.00     0.010 A
BRANCH  18  21
HETATM   21  N2  UNL     1       4.900  41.555  59.093  1.00  0.00    -0.116 N
HETATM   22  O2  UNL     1       4.993  40.569  59.834  1.00  0.00    -0.532 OA
HETATM   23  O3  UNL     1       3.906  41.621  58.163  1.00  0.00    -0.532 OA
ENDBRANCH  18  21
ENDBRANCH  14  15
ENDBRANCH   9  14
BRANCH   8  24
HETATM   24  O1  UNL     1       9.159  46.139  56.760  1.00  0.00    -0.282 OA
ATOM     25  H1  UNL     1       8.866  46.029  55.864  1.00  0.00     0.245 HD
ENDBRANCH   8  24
BRANCH  10  26
HETATM   26  C17 UNL     1       7.569  48.222  60.875  1.00  0.00    -0.005 A
HETATM   27  C18 UNL     1       6.327  47.869  61.332  1.00  0.00     0.015 A
HETATM   28  C19 UNL     1       6.080  47.903  62.706  1.00  0.00     0.020 A
HETATM   29  C20 UNL     1       7.063  48.281  63.583  1.00  0.00     0.011 A
HETATM   30 BR1  UNL     1       6.654  48.304  65.465  1.00  0.00    -0.051 Br
HETATM   31  C21 UNL     1       8.315  48.637  63.131  1.00  0.00     0.020 A
HETATM   32  C22 UNL     1       8.546  48.599  61.756  1.00  0.00     0.015 A
ENDBRANCH  10  26
BRANCH  11  33
HETATM   33  O4  UNL     1       7.030  50.378  59.429  1.00  0.00    -0.282 OA
ATOM     34  H4  UNL     1       7.325  51.271  59.299  1.00  0.00     0.245 HD
ENDBRANCH  11  33
TORSDOF 6
ENDMDL