MODEL 1
REMARK VINA RESULT: -3.718221564      0.000      0.000
REMARK  2 active torsions:
REMARK  status: ('A' for Active; 'I' for Inactive)
REMARK    1  A    between atoms: N2_4  and  N3_6
REMARK    2  A    between atoms: N3_6  and  C1_8
ROOT
HETATM    1  N3  UNL     1      96.686  60.800 -10.963  1.00  0.00    -0.270 N
ATOM      2  H3  UNL     1      96.818  60.546 -11.941  1.00  0.00     0.190 HD
ENDROOT
BRANCH   1   3
HETATM    3  N2  UNL     1      97.339  60.074  -9.971  1.00  0.00    -0.248 N
HETATM    4  N1  UNL     1      96.880  60.010  -8.798  1.00  0.00    -0.331 N
ATOM      5  H12 UNL     1      96.013  60.505  -8.589  1.00  0.00     0.178 HD
ATOM      6  H11 UNL     1      97.359  59.477  -8.071  1.00  0.00     0.178 HD
ATOM      7  H2  UNL     1      98.205  59.585 -10.197  1.00  0.00     0.207 HD
ENDBRANCH   1   3
BRANCH   1   8
HETATM    8  C1  UNL     1      95.841  61.885 -10.631  1.00  0.00     0.136 A
HETATM    9  N4  UNL     1      95.751  63.200 -10.615  1.00  0.00    -0.346 N
HETATM   10  C2  UNL     1      94.629  62.523 -10.140  1.00  0.00     0.139 A
ATOM     11  H4  UNL     1      96.195  64.096 -10.814  1.00  0.00     0.167 HD
ENDBRANCH   1   8
TORSDOF 2
ENDMDL