MODEL 3
REMARK VINA RESULT: -2.335459078      4.208      4.328
REMARK  0 active torsions:
REMARK  status: ('A' for Active; 'I' for Inactive)
ROOT
HETATM    1  O1  UNL     1      93.920  62.495 -10.847  1.00  0.00    -0.258 OA
HETATM    2  S1  UNL     1      95.091  62.102  -9.927  1.00  0.00     0.016 S
HETATM    3  C1  UNL     1      96.326  61.427  -9.282  1.00  0.00     0.121 A
HETATM    4  C2  UNL     1      96.689  61.820 -10.715  1.00  0.00     0.121 A
ENDROOT
TORSDOF 0
ENDMDL