MODEL 3
REMARK VINA RESULT: -3.459776746      3.197      3.970
REMARK  2 active torsions:
REMARK  status: ('A' for Active; 'I' for Inactive)
REMARK    1  A    between atoms: N2_4  and  C1_6
REMARK    2  A    between atoms: C1_6  and  C2_7
ROOT
HETATM    1  N1  UNL     1      96.743  60.092  -8.919  1.00  0.00    -0.349 N
ATOM      2  H11 UNL     1      97.011  59.293  -8.344  1.00  0.00     0.176 HD
ATOM      3  H12 UNL     1      96.104  60.816  -8.592  1.00  0.00     0.176 HD
HETATM    4  N2  UNL     1      97.239  60.147 -10.061  1.00  0.00    -0.341 N
ATOM      5  H2  UNL     1      97.879  59.430 -10.403  1.00  0.00     0.179 HD
ENDROOT
BRANCH   4   6
HETATM    6  C1  UNL     1      96.862  61.270 -10.870  1.00  0.00     0.164 C
BRANCH   6   7
HETATM    7  C2  UNL     1      95.792  62.080 -10.201  1.00  0.00     0.151 C
HETATM    8  C3  UNL     1      95.385  63.347 -10.880  1.00  0.00     0.221 C
HETATM    9  O1  UNL     1      94.137  63.070 -10.274  1.00  0.00    -0.284 OA
HETATM   10  N3  UNL     1      94.436  61.749 -10.505  1.00  0.00    -0.092 NA
ENDBRANCH   6   7
ENDBRANCH   4   6
TORSDOF 2
ENDMDL