MODEL 1
REMARK VINA RESULT: -3.414294183      0.000      0.000
REMARK  2 active torsions:
REMARK  status: ('A' for Active; 'I' for Inactive)
REMARK    1  A    between atoms: O1_1  and  N1_3
REMARK    2  A    between atoms: C1_5  and  N2_6
ROOT
HETATM    1  N1  UNL     1      97.078  60.158  -9.023  1.00  0.00    -0.265 N
ATOM      2  H1  UNL     1      97.572  59.647  -8.290  1.00  0.00     0.194 HD
HETATM    3  C1  UNL     1      96.193  61.002  -8.691  1.00  0.00     0.202 C
ENDROOT
BRANCH   1   4
HETATM    4  O1  UNL     1      97.398  59.906 -10.340  1.00  0.00    -0.289 OA
ATOM      5  H1  UNL     1      97.826  60.550 -10.892  1.00  0.00     0.244 HD
ENDBRANCH   1   4
BRANCH   3   6
HETATM    6  N2  UNL     1      95.466  61.750  -9.656  1.00  0.00    -0.373 N
HETATM    7  C2  UNL     1      94.310  61.803 -10.533  1.00  0.00     0.143 A
HETATM    8  C3  UNL     1      95.225  62.913 -10.506  1.00  0.00     0.143 A
ENDBRANCH   3   6
TORSDOF 2
ENDMDL