MODEL 2
REMARK VINA RESULT: -3.517253649      4.374      4.881
REMARK  1 active torsions:
REMARK  status: ('A' for Active; 'I' for Inactive)
REMARK    1  A    between atoms: O1_1  and  N1_3
ROOT
HETATM    1  N1  UNL     1      97.406  60.506 -10.627  1.00  0.00    -0.158 N
HETATM    2  C1  UNL     1      96.832  61.706 -10.812  1.00  0.00     0.235 A
HETATM    3  N2  UNL     1      96.186  62.047  -9.664  1.00  0.00    -0.344 N
ATOM      4  H2  UNL     1      95.658  62.905  -9.505  1.00  0.00     0.167 HD
HETATM    5  C2  UNL     1      96.365  61.059  -8.784  1.00  0.00     0.200 A
HETATM    6  N3  UNL     1      97.110  60.129  -9.382  1.00  0.00    -0.269 N
ATOM      7  H3  UNL     1      97.410  59.256  -8.950  1.00  0.00     0.190 HD
ENDROOT
BRANCH   1   8
HETATM    8  O1  UNL     1      98.148  59.829 -11.562  1.00  0.00    -0.267 OA
ATOM      9  H1  UNL     1      98.254  58.886 -11.601  1.00  0.00     0.247 HD
ENDBRANCH   1   8
TORSDOF 1
ENDMDL