MODEL 1
REMARK VINA RESULT: -4.003531860      0.000      0.000
REMARK  1 active torsions:
REMARK  status: ('A' for Active; 'I' for Inactive)
REMARK    1  A    between atoms: N2_4  and  C1_6
ROOT
HETATM    1  C1  UNL     1      97.324  60.938 -10.989  1.00  0.00     0.263 C
HETATM    2  C2  UNL     1      96.301  62.019 -10.718  1.00  0.00     0.289 C
HETATM    3  N3  UNL     1      96.931  63.250 -11.210  1.00  0.00    -0.050 N
ATOM      4  H31 UNL     1      97.194  63.928 -10.494  1.00  0.00     0.279 HD
ATOM      5  H32 UNL     1      96.315  63.891 -11.710  1.00  0.00     0.279 HD
HETATM    6  C3  UNL     1      98.037  62.691 -11.992  1.00  0.00     0.402 C
HETATM    7  O1  UNL     1      98.501  61.712 -11.082  1.00  0.00    -0.337 OA
ENDROOT
BRANCH   1   8
HETATM    8  N2  UNL     1      97.434  59.978  -9.973  1.00  0.00    -0.312 N
HETATM    9  N1  UNL     1      96.738  60.141  -8.932  1.00  0.00    -0.347 N
ATOM     10  H12 UNL     1      96.122  60.949  -8.849  1.00  0.00     0.176 HD
ATOM     11  H11 UNL     1      96.817  59.442  -8.194  1.00  0.00     0.176 HD
ATOM     12  H2  UNL     1      98.055  59.175 -10.072  1.00  0.00     0.182 HD
ENDBRANCH   1   8
TORSDOF 1
ENDMDL