MODEL 3
REMARK VINA RESULT: -3.722950000      7.831      8.401
REMARK  3 active torsions:
REMARK  status: ('A' for Active; 'I' for Inactive)
REMARK    1  A    between atoms: N1_1  and  N2_4
REMARK    2  A    between atoms: N3_6  and  C1_8
REMARK    3  A    between atoms: C1_8  and  C2_9
ROOT
HETATM    1  N2  UNL     1      93.739  61.316 -11.168  1.00  0.00    -0.254 N
ATOM      2  H2  UNL     1      94.134  61.967 -11.846  1.00  0.00     0.207 HD
HETATM    3  N3  UNL     1      94.254  61.227 -10.011  1.00  0.00    -0.320 N
ATOM      4  H3  UNL     1      93.862  60.578  -9.329  1.00  0.00     0.181 HD
ENDROOT
BRANCH   3   5
HETATM    5  C1  UNL     1      95.385  62.038  -9.663  1.00  0.00     0.174 C
BRANCH   5   6
HETATM    6  C2  UNL     1      96.697  61.466 -10.062  1.00  0.00     0.164 A
HETATM    7  C3  UNL     1      97.453  62.221 -11.138  1.00  0.00     0.201 A
HETATM    8  O1  UNL     1      96.928  60.940 -11.304  1.00  0.00    -0.379 OA
ENDBRANCH   5   6
ENDBRANCH   3   5
BRANCH   1   9
HETATM    9  N1  UNL     1      92.635  60.534 -11.526  1.00  0.00    -0.331 N
ATOM     10  H12 UNL     1      91.703  60.938 -11.442  1.00  0.00     0.178 HD
ATOM     11  H11 UNL     1      92.758  59.579 -11.864  1.00  0.00     0.178 HD
ENDBRANCH   1   9
TORSDOF 3
ENDMDL