MODEL 1
REMARK VINA RESULT: -3.452111159      0.000      0.000
REMARK  2 active torsions:
REMARK  status: ('A' for Active; 'I' for Inactive)
REMARK    1  A    between atoms: O1_1  and  C1_3
REMARK    2  A    between atoms: C1_3  and  N1_4
ROOT
HETATM    1  N1  UNL     1      93.971  63.792 -10.368  1.00  0.00    -0.352 N
ATOM      2  H1  UNL     1      93.166  63.776  -9.743  1.00  0.00     0.163 HD
HETATM    3  C2  UNL     1      94.814  62.845 -10.345  1.00  0.00     0.140 A
HETATM    4  C3  UNL     1      95.957  61.943 -10.582  1.00  0.00     0.260 A
HETATM    5  O2  UNL     1      94.960  61.591  -9.575  1.00  0.00    -0.330 OA
ENDROOT
BRANCH   1   6
HETATM    6  C1  UNL     1      94.158  64.897 -11.287  1.00  0.00     0.288 C
BRANCH   6   7
HETATM    7  O1  UNL     1      92.969  65.039 -11.998  1.00  0.00    -0.382 OA
ATOM      8  H1  UNL     1      92.601  65.882 -11.758  1.00  0.00     0.211 HD
ENDBRANCH   6   7
ENDBRANCH   1   6
TORSDOF 2
ENDMDL