MODEL 5
REMARK VINA RESULT: -3.482473824      3.094      3.709
REMARK  2 active torsions:
REMARK  status: ('A' for Active; 'I' for Inactive)
REMARK    1  A    between atoms: O1_1  and  C1_3
REMARK    2  A    between atoms: C1_3  and  C2_4
ROOT
HETATM    1  C2  UNL     1      96.145  61.802 -10.561  1.00  0.00     0.206 A
HETATM    2  N1  UNL     1      95.623  63.089 -10.410  1.00  0.00    -0.363 N
ATOM      3  H1  UNL     1      96.058  64.008 -10.326  1.00  0.00     0.162 HD
HETATM    4  C3  UNL     1      94.429  62.711 -10.414  1.00  0.00     0.174 A
HETATM    5  N2  UNL     1      94.815  61.378 -10.564  1.00  0.00    -0.363 N
ATOM      6  H2  UNL     1      94.334  60.483 -10.643  1.00  0.00     0.162 HD
ENDROOT
BRANCH   1   7
HETATM    7  C1  UNL     1      97.057  61.288  -9.469  1.00  0.00     0.210 C
BRANCH   7   8
HETATM    8  O1  UNL     1      96.568  60.086  -8.979  1.00  0.00    -0.397 OA
ATOM      9  H1  UNL     1      96.453  60.147  -8.038  1.00  0.00     0.209 HD
ENDBRANCH   7   8
ENDBRANCH   1   7
TORSDOF 2
ENDMDL