MODEL 2
REMARK VINA RESULT: -7.323998947      1.379      1.744
REMARK  21 active torsions:
REMARK  status: ('A' for Active; 'I' for Inactive)
REMARK    1  A    between atoms: C2_2  and  C3_3
REMARK    2  A    between atoms: C3_3  and  C4_4
REMARK    3  A    between atoms: C4_4  and  C5_5
REMARK    4  A    between atoms: C5_5  and  C6_6
REMARK    5  A    between atoms: C6_6  and  C7_8
REMARK    6  A    between atoms: C7_8  and  C8_9
REMARK    7  A    between atoms: C8_9  and  C9_10
REMARK    8  A    between atoms: C10_11  and  C11_12
REMARK    9  A    between atoms: C12_13  and  C13_14
REMARK   10  A    between atoms: C13_14  and  C14_15
REMARK   11  A    between atoms: C14_15  and  C15_16
REMARK   12  A    between atoms: C16_17  and  C17_18
REMARK   13  A    between atoms: C16_17  and  O3_27
REMARK   14  A    between atoms: C17_18  and  C18_19
REMARK   15  A    between atoms: C22_24  and  O2_25
REMARK   16  A    between atoms: O3_27  and  C23_28
REMARK   17  A    between atoms: C24_30  and  C25_31
REMARK   18  A    between atoms: C25_31  and  O5_32
REMARK   19  A    between atoms: C26_34  and  O6_35
REMARK   20  A    between atoms: C27_37  and  O7_38
REMARK   21  A    between atoms: C28_40  and  O8_41
ROOT
HETATM    1  C15 UNL     1      25.030  30.853  22.026  1.00  0.00     0.040 C
HETATM    2  C16 UNL     1      23.886  31.222  21.564  1.00  0.00     0.051 C
ENDROOT
BRANCH   2   3
HETATM    3  C17 UNL     1      23.676  32.205  20.505  1.00  0.00     0.073 C
BRANCH   3   4
HETATM    4  C18 UNL     1      22.210  32.606  20.567  1.00  0.00     0.050 C
HETATM    5  C19 UNL     1      21.971  33.980  21.041  1.00  0.00     0.279 C
HETATM    6  N1  UNL     1      20.993  34.599  20.188  1.00  0.00     0.087 N
HETATM    7  C20 UNL     1      21.589  35.638  19.354  1.00  0.00     0.310 C
HETATM    8  C21 UNL     1      20.441  33.542  19.359  1.00  0.00     0.303 C
HETATM    9  C22 UNL     1      21.555  32.532  19.214  1.00  0.00     0.152 C
BRANCH   9  10
HETATM   10  O2  UNL     1      22.402  32.964  18.193  1.00  0.00    -0.393 OA
ATOM     11  H2  UNL     1      23.287  33.120  18.500  1.00  0.00     0.210 HD
ENDBRANCH   9  10
ENDBRANCH   3   4
ENDBRANCH   2   3
BRANCH   2  12
HETATM   12  O3  UNL     1      22.745  30.643  22.108  1.00  0.00    -0.322 OA
BRANCH  12  13
HETATM   13  C23 UNL     1      22.747  29.462  22.870  1.00  0.00     0.297 C
HETATM   14  O4  UNL     1      22.582  29.783  24.220  1.00  0.00    -0.348 OA
HETATM   15  C24 UNL     1      21.389  30.479  24.429  1.00  0.00     0.179 C
HETATM   16  C26 UNL     1      20.229  29.884  23.719  1.00  0.00     0.180 C
HETATM   17  C27 UNL     1      20.466  28.491  23.171  1.00  0.00     0.183 C
HETATM   18  C28 UNL     1      21.740  28.431  22.399  1.00  0.00     0.205 C
BRANCH  15  19
HETATM   19  C25 UNL     1      21.212  30.582  25.938  1.00  0.00     0.198 C
BRANCH  19  20
HETATM   20  O5  UNL     1      21.303  29.361  26.560  1.00  0.00    -0.398 OA
ATOM     21  H5  UNL     1      21.934  28.788  26.142  1.00  0.00     0.209 HD
ENDBRANCH  19  20
ENDBRANCH  15  19
BRANCH  16  22
HETATM   22  O6  UNL     1      19.062  29.829  24.477  1.00  0.00    -0.390 OA
ATOM     23  H6  UNL     1      18.966  29.033  24.987  1.00  0.00     0.210 HD
ENDBRANCH  16  22
BRANCH  17  24
HETATM   24  O7  UNL     1      20.374  27.564  24.208  1.00  0.00    -0.390 OA
ATOM     25  H7  UNL     1      20.927  26.816  24.012  1.00  0.00     0.210 HD
ENDBRANCH  17  24
BRANCH  18  26
HETATM   26  O8  UNL     1      22.232  27.136  22.492  1.00  0.00    -0.388 OA
ATOM     27  H8  UNL     1      22.019  26.729  23.324  1.00  0.00     0.210 HD
ENDBRANCH  18  26
ENDBRANCH  12  13
ENDBRANCH   2  12
BRANCH   1  28
HETATM   28  C14 UNL     1      26.366  31.376  21.543  1.00  0.00     0.058 C
BRANCH  28  29
HETATM   29  C13 UNL     1      26.979  30.794  20.638  1.00  0.00    -0.128 C
BRANCH  29  30
HETATM   30  C12 UNL     1      27.672  30.141  19.610  1.00  0.00     0.055 C
HETATM   31  C11 UNL     1      29.004  30.394  19.435  1.00  0.00     0.008 C
BRANCH  31  32
HETATM   32  C10 UNL     1      29.706  29.720  18.377  1.00  0.00    -0.003 C
HETATM   33  C9  UNL     1      30.733  30.219  17.762  1.00  0.00    -0.026 C
BRANCH  33  34
HETATM   34  C8  UNL     1      31.337  31.517  18.034  1.00  0.00     0.034 C
BRANCH  34  35
HETATM   35  C7  UNL     1      32.274  31.503  19.190  1.00  0.00     0.082 C
BRANCH  35  36
HETATM   36  C6  UNL     1      33.555  30.848  18.860  1.00  0.00     0.127 C
HETATM   37  O1  UNL     1      34.160  31.125  17.865  1.00  0.00    -0.298 OA
BRANCH  36  38
HETATM   38  C5  UNL     1      34.044  29.833  19.828  1.00  0.00     0.078 C
BRANCH  38  39
HETATM   39  C4  UNL     1      32.989  29.214  20.690  1.00  0.00     0.007 C
BRANCH  39  40
HETATM   40  C3  UNL     1      33.576  28.350  21.757  1.00  0.00     0.000 C
BRANCH  40  41
HETATM   41  C2  UNL     1      33.906  26.960  21.316  1.00  0.00    -0.005 C
HETATM   42  C1  UNL     1      35.237  26.450  21.751  1.00  0.00     0.005 C
ENDBRANCH  40  41
ENDBRANCH  39  40
ENDBRANCH  38  39
ENDBRANCH  36  38
ENDBRANCH  35  36
ENDBRANCH  34  35
ENDBRANCH  33  34
ENDBRANCH  31  32
ENDBRANCH  29  30
ENDBRANCH  28  29
ENDBRANCH   1  28
TORSDOF 21
ENDMDL