MODEL 1
REMARK VINA RESULT: -7.061369160      0.000      0.000
REMARK  25 active torsions:
REMARK  status: ('A' for Active; 'I' for Inactive)
REMARK    1  A    between atoms: C2_2  and  C3_3
REMARK    2  A    between atoms: C2_2  and  C11_16
REMARK    3  A    between atoms: C3_3  and  C4_4
REMARK    4  A    between atoms: C3_3  and  O2_7
REMARK    5  A    between atoms: C4_4  and  O1_5
REMARK    6  A    between atoms: O2_7  and  C5_8
REMARK    7  A    between atoms: C5_8  and  C6_9
REMARK    8  A    between atoms: C6_9  and  O4_11
REMARK    9  A    between atoms: O4_11  and  C7_12
REMARK   10  A    between atoms: C11_16  and  O5_17
REMARK   11  A    between atoms: C11_16  and  C12_19
REMARK   12  A    between atoms: C12_19  and  O6_20
REMARK   13  A    between atoms: C12_19  and  C13_22
REMARK   14  A    between atoms: C13_22  and  O7_23
REMARK   15  A    between atoms: C13_22  and  C14_25
REMARK   16  A    between atoms: C14_25  and  O8_26
REMARK   17  A    between atoms: C15_28  and  C16_29
REMARK   18  A    between atoms: C16_29  and  C17_30
REMARK   19  A    between atoms: C17_30  and  C18_31
REMARK   20  A    between atoms: C18_31  and  C19_32
REMARK   21  A    between atoms: C19_32  and  C20_33
REMARK   22  A    between atoms: C21_34  and  C22_35
REMARK   23  A    between atoms: C22_35  and  C23_36
REMARK   24  A    between atoms: C24_37  and  C25_38
REMARK   25  A    between atoms: C28_41  and  O9_42
ROOT
HETATM    1  C13 UNL     1      28.636  29.865  16.301  1.00  0.00     0.205 C
ENDROOT
BRANCH   1   2
HETATM    2  C12 UNL     1      28.444  28.997  17.523  1.00  0.00     0.182 C
BRANCH   2   3
HETATM    3  C11 UNL     1      27.192  29.244  18.282  1.00  0.00     0.156 C
BRANCH   3   4
HETATM    4  C2  UNL     1      26.124  28.211  18.296  1.00  0.00     0.044 C
HETATM    5  C1  UNL     1      24.858  28.459  17.537  1.00  0.00     0.015 C
BRANCH   4   6
HETATM    6  C3  UNL     1      25.743  27.758  19.684  1.00  0.00     0.151 C
BRANCH   6   7
HETATM    7  C4  UNL     1      25.635  26.199  19.745  1.00  0.00     0.196 C
BRANCH   7   8
HETATM    8  O1  UNL     1      26.141  25.680  20.906  1.00  0.00    -0.398 OA
ATOM      9  H1  UNL     1      26.578  24.847  20.775  1.00  0.00     0.209 HD
ENDBRANCH   7   8
ENDBRANCH   6   7
BRANCH   6  10
HETATM   10  O2  UNL     1      24.383  28.070  20.020  1.00  0.00    -0.374 OA
BRANCH  10  11
HETATM   11  C5  UNL     1      24.403  28.882  21.162  1.00  0.00     0.279 C
BRANCH  11  12
HETATM   12  C6  UNL     1      23.699  28.215  22.300  1.00  0.00     0.283 C
HETATM   13  O3  UNL     1      23.592  26.992  22.427  1.00  0.00    -0.263 OA
BRANCH  12  14
HETATM   14  O4  UNL     1      23.114  29.016  23.260  1.00  0.00    -0.310 OA
BRANCH  14  15
HETATM   15  C7  UNL     1      21.921  29.743  23.093  1.00  0.00     0.060 C
HETATM   16  C8  UNL     1      22.377  31.148  22.732  1.00  0.00     0.045 C
HETATM   17  C9  UNL     1      21.283  29.776  24.488  1.00  0.00     0.045 C
HETATM   18  C10 UNL     1      20.943  29.157  22.153  1.00  0.00     0.045 C
ENDBRANCH  14  15
ENDBRANCH  12  14
ENDBRANCH  11  12
ENDBRANCH  10  11
ENDBRANCH   6  10
ENDBRANCH   4   6
ENDBRANCH   3   4
BRANCH   3  19
HETATM   19  O5  UNL     1      27.421  29.618  19.586  1.00  0.00    -0.392 OA
ATOM     20  H5  UNL     1      27.580  28.826  20.086  1.00  0.00     0.210 HD
ENDBRANCH   3  19
ENDBRANCH   2   3
BRANCH   2  21
HETATM   21  O6  UNL     1      29.548  29.170  18.434  1.00  0.00    -0.390 OA
ATOM     22  H6  UNL     1      30.260  28.620  18.130  1.00  0.00     0.210 HD
ENDBRANCH   2  21
ENDBRANCH   1   2
BRANCH   1  23
HETATM   23  O7  UNL     1      27.398  30.277  15.883  1.00  0.00    -0.386 OA
ATOM     24  H7  UNL     1      26.960  29.528  15.495  1.00  0.00     0.210 HD
ENDBRANCH   1  23
BRANCH   1  25
HETATM   25  C14 UNL     1      29.553  29.269  15.364  1.00  0.00     0.074 C
HETATM   26  C15 UNL     1      30.304  29.649  14.228  1.00  0.00     0.035 C
BRANCH  25  27
HETATM   27  O8  UNL     1      29.807  27.963  15.619  1.00  0.00    -0.362 OA
ATOM     28  H8  UNL     1      29.456  27.376  14.959  1.00  0.00     0.217 HD
ENDBRANCH  25  27
BRANCH  26  29
HETATM   29  C16 UNL     1      30.329  30.793  13.592  1.00  0.00     0.003 C
BRANCH  29  30
HETATM   30  C17 UNL     1      30.238  32.076  14.148  1.00  0.00     0.008 C
BRANCH  30  31
HETATM   31  C18 UNL     1      31.034  32.779  15.008  1.00  0.00     0.055 C
BRANCH  31  32
HETATM   32  C19 UNL     1      31.191  32.571  16.318  1.00  0.00    -0.128 C
BRANCH  32  33
HETATM   33  C20 UNL     1      31.356  32.359  17.623  1.00  0.00     0.064 C
HETATM   34  C21 UNL     1      32.424  31.422  17.894  1.00  0.00     0.064 C
BRANCH  34  35
HETATM   35  C22 UNL     1      32.965  30.714  18.791  1.00  0.00    -0.128 C
BRANCH  35  36
HETATM   36  C23 UNL     1      33.408  29.913  19.742  1.00  0.00     0.052 C
HETATM   37  C24 UNL     1      33.297  29.127  20.747  1.00  0.00    -0.011 C
BRANCH  37  38
HETATM   38  C25 UNL     1      34.556  28.517  21.316  1.00  0.00     0.044 A
HETATM   39  C26 UNL     1      34.120  27.289  22.160  1.00  0.00     0.021 A
HETATM   40  C27 UNL     1      34.380  25.959  21.605  1.00  0.00     0.013 C
HETATM   41  C28 UNL     1      35.021  28.318  22.649  1.00  0.00     0.130 A
BRANCH  41  42
HETATM   42  O9  UNL     1      36.371  27.884  22.805  1.00  0.00    -0.394 OA
ATOM     43  H9  UNL     1      36.526  27.170  23.412  1.00  0.00     0.210 HD
ENDBRANCH  41  42
ENDBRANCH  37  38
ENDBRANCH  35  36
ENDBRANCH  34  35
ENDBRANCH  32  33
ENDBRANCH  31  32
ENDBRANCH  30  31
ENDBRANCH  29  30
ENDBRANCH  26  29
ENDBRANCH   1  25
TORSDOF 25
ENDMDL