MODEL 1
REMARK VINA RESULT: -6.231988310      0.000      0.000
REMARK  18 active torsions:
REMARK  status: ('A' for Active; 'I' for Inactive)
REMARK    1  A    between atoms: C2_2  and  C3_3
REMARK    2  A    between atoms: C3_3  and  C4_4
REMARK    3  A    between atoms: C4_4  and  C5_5
REMARK    4  A    between atoms: C5_5  and  C6_6
REMARK    5  A    between atoms: C6_6  and  N1_7
REMARK    6  A    between atoms: N1_7  and  C7_8
REMARK    7  A    between atoms: N1_7  and  C24_36
REMARK    8  A    between atoms: C7_8  and  C8_9
REMARK    9  A    between atoms: C10_11  and  O1_12
REMARK   10  A    between atoms: O1_12  and  C11_13
REMARK   11  A    between atoms: C14_17  and  O3_18
REMARK   12  A    between atoms: C15_20  and  O4_21
REMARK   13  A    between atoms: C16_23  and  O5_24
REMARK   14  A    between atoms: C17_26  and  O6_27
REMARK   15  A    between atoms: O6_27  and  C18_28
REMARK   16  A    between atoms: C18_28  and  C19_29
REMARK   17  A    between atoms: C22_32  and  C23_33
REMARK   18  A    between atoms: C23_33  and  O7_34
ROOT
HETATM    1  C8  UNL     1      31.708  30.178  18.862  1.00  0.00     0.022 C
HETATM    2  C9  UNL     1      30.510  31.133  19.117  1.00  0.00     0.041 C
HETATM    3  C10 UNL     1      29.270  30.531  18.455  1.00  0.00     0.154 C
HETATM    4  C17 UNL     1      29.678  29.811  17.186  1.00  0.00     0.151 C
HETATM    5  C21 UNL     1      30.828  30.557  16.559  1.00  0.00     0.041 C
HETATM    6  C22 UNL     1      32.067  30.363  17.447  1.00  0.00     0.017 C
ENDROOT
BRANCH   1   7
HETATM    7  C7  UNL     1      32.687  30.451  19.911  1.00  0.00     0.280 C
BRANCH   7   8
HETATM    8  N1  UNL     1      33.783  29.471  20.069  1.00  0.00     0.112 N
BRANCH   8   9
HETATM    9  C6  UNL     1      34.991  30.221  19.880  1.00  0.00     0.275 C
BRANCH   9  10
HETATM   10  C5  UNL     1      36.099  29.659  19.101  1.00  0.00     0.030 C
BRANCH  10  11
HETATM   11  C4  UNL     1      36.343  30.363  17.779  1.00  0.00     0.002 C
BRANCH  11  12
HETATM   12  C3  UNL     1      36.172  29.396  16.645  1.00  0.00    -0.000 C
BRANCH  12  13
HETATM   13  C2  UNL     1      35.701  30.052  15.381  1.00  0.00    -0.005 C
HETATM   14  C1  UNL     1      34.650  29.195  14.683  1.00  0.00     0.005 C
ENDBRANCH  12  13
ENDBRANCH  11  12
ENDBRANCH  10  11
ENDBRANCH   9  10
ENDBRANCH   8   9
BRANCH   8  15
HETATM   15  C24 UNL     1      33.661  28.769  21.281  1.00  0.00     0.333 C
HETATM   16  C25 UNL     1      34.130  27.369  21.466  1.00  0.00     0.160 C
HETATM   17  C26 UNL     1      35.010  27.777  22.603  1.00  0.00     0.223 C
HETATM   18  O8  UNL     1      35.620  27.126  23.463  1.00  0.00    -0.273 OA
HETATM   19  N2  UNL     1      34.777  29.119  22.189  1.00  0.00    -0.331 N
ATOM     20  H2  UNL     1      35.220  30.005  22.431  1.00  0.00     0.164 HD
ENDBRANCH   8  15
ENDBRANCH   7   8
ENDBRANCH   1   7
BRANCH   6  21
HETATM   21  C23 UNL     1      32.960  31.520  17.105  1.00  0.00     0.169 C
BRANCH  21  22
HETATM   22  O7  UNL     1      32.794  32.094  15.884  1.00  0.00    -0.400 OA
ATOM     23  H7  UNL     1      32.095  32.732  15.795  1.00  0.00     0.209 HD
ENDBRANCH  21  22
ENDBRANCH   6  21
BRANCH   3  24
HETATM   24  O1  UNL     1      28.583  29.761  19.353  1.00  0.00    -0.351 OA
BRANCH  24  25
HETATM   25  C11 UNL     1      27.309  30.211  19.683  1.00  0.00     0.292 C
HETATM   26  O2  UNL     1      26.922  29.813  20.949  1.00  0.00    -0.351 OA
HETATM   27  C12 UNL     1      25.646  30.047  21.323  1.00  0.00     0.152 C
HETATM   28  C13 UNL     1      25.643  31.378  22.102  1.00  0.00     0.042 C
HETATM   29  C14 UNL     1      24.598  30.162  20.287  1.00  0.00     0.178 C
HETATM   30  C15 UNL     1      25.035  30.564  18.930  1.00  0.00     0.183 C
HETATM   31  C16 UNL     1      26.328  29.833  18.616  1.00  0.00     0.204 C
BRANCH  29  32
HETATM   32  O3  UNL     1      23.992  28.888  20.160  1.00  0.00    -0.390 OA
ATOM     33  H3  UNL     1      23.860  28.730  19.232  1.00  0.00     0.210 HD
ENDBRANCH  29  32
BRANCH  30  34
HETATM   34  O4  UNL     1      25.291  31.928  18.912  1.00  0.00    -0.390 OA
ATOM     35  H4  UNL     1      25.563  32.188  18.040  1.00  0.00     0.210 HD
ENDBRANCH  30  34
BRANCH  31  36
HETATM   36  O5  UNL     1      26.037  28.475  18.602  1.00  0.00    -0.388 OA
ATOM     37  H5  UNL     1      25.110  28.295  18.510  1.00  0.00     0.210 HD
ENDBRANCH  31  36
ENDBRANCH  24  25
ENDBRANCH   3  24
BRANCH   4  38
HETATM   38  O6  UNL     1      28.619  29.766  16.261  1.00  0.00    -0.383 OA
BRANCH  38  39
HETATM   39  C18 UNL     1      28.709  28.558  15.593  1.00  0.00     0.168 C
BRANCH  39  40
HETATM   40  C19 UNL     1      28.887  27.412  16.573  1.00  0.00     0.022 C
HETATM   41  C20 UNL     1      29.498  26.240  15.847  1.00  0.00     0.007 C
ENDBRANCH  39  40
ENDBRANCH  38  39
ENDBRANCH   4  38
TORSDOF 18
ENDMDL