MODEL 4
REMARK VINA RESULT: -6.227539450      1.738      2.891
REMARK  19 active torsions:
REMARK  status: ('A' for Active; 'I' for Inactive)
REMARK    1  A    between atoms: C2_2  and  C3_3
REMARK    2  A    between atoms: C3_3  and  C4_4
REMARK    3  A    between atoms: C4_4  and  C5_5
REMARK    4  A    between atoms: C5_5  and  C6_6
REMARK    5  A    between atoms: C6_6  and  C7_7
REMARK    6  A    between atoms: C7_7  and  C8_8
REMARK    7  A    between atoms: C8_8  and  C9_9
REMARK    8  A    between atoms: C9_9  and  C10_10
REMARK    9  A    between atoms: C10_10  and  N1_11
REMARK   10  A    between atoms: N1_11  and  C11_12
REMARK   11  A    between atoms: N1_11  and  C12_14
REMARK   12  A    between atoms: C13_15  and  O2_16
REMARK   13  A    between atoms: C15_19  and  C16_20
REMARK   14  A    between atoms: C16_20  and  O3_21
REMARK   15  A    between atoms: C17_24  and  O5_25
REMARK   16  A    between atoms: O5_25  and  C18_26
REMARK   17  A    between atoms: C21_30  and  O7_31
REMARK   18  A    between atoms: C22_33  and  O8_34
REMARK   19  A    between atoms: C26_39  and  O9_40
ROOT
HETATM    1  C12 UNL     1      25.609  29.994  19.530  1.00  0.00     0.149 C
HETATM    2  C13 UNL     1      25.989  30.868  20.693  1.00  0.00     0.146 C
HETATM    3  C14 UNL     1      24.807  31.749  21.067  1.00  0.00     0.068 C
HETATM    4  C15 UNL     1      23.869  32.029  19.962  1.00  0.00     0.150 C
HETATM    5  O4  UNL     1      23.201  31.025  19.403  1.00  0.00    -0.351 OA
HETATM    6  C17 UNL     1      23.167  29.776  19.901  1.00  0.00     0.294 C
HETATM    7  C26 UNL     1      24.518  29.064  19.991  1.00  0.00     0.198 C
ENDROOT
BRANCH   6   8
HETATM    8  O5  UNL     1      22.429  29.588  21.067  1.00  0.00    -0.328 OA
BRANCH   8   9
HETATM    9  C18 UNL     1      21.067  29.845  20.929  1.00  0.00     0.270 C
HETATM   10  O6  UNL     1      20.317  28.687  20.832  1.00  0.00    -0.353 OA
HETATM   11  C19 UNL     1      19.916  28.105  21.989  1.00  0.00     0.152 C
HETATM   12  C20 UNL     1      21.028  27.381  22.739  1.00  0.00     0.042 C
HETATM   13  C21 UNL     1      19.140  29.015  22.877  1.00  0.00     0.181 C
HETATM   14  C22 UNL     1      19.384  30.452  22.713  1.00  0.00     0.094 C
HETATM   15  C23 UNL     1      20.055  31.093  23.935  1.00  0.00     0.042 C
HETATM   16  C25 UNL     1      20.518  30.866  21.850  1.00  0.00     0.078 C
HETATM   17  C24 UNL     1      21.311  31.150  23.105  1.00  0.00     0.015 C
BRANCH  13  18
HETATM   18  O7  UNL     1      17.755  28.726  22.796  1.00  0.00    -0.390 OA
ATOM     19  H7  UNL     1      17.617  27.862  22.425  1.00  0.00     0.210 HD
ENDBRANCH  13  18
BRANCH  14  20
HETATM   20  O8  UNL     1      18.193  31.157  22.474  1.00  0.00    -0.387 OA
ATOM     21  H8  UNL     1      18.290  32.083  22.660  1.00  0.00     0.210 HD
ENDBRANCH  14  20
ENDBRANCH   8   9
ENDBRANCH   6   8
BRANCH   7  22
HETATM   22  O9  UNL     1      24.737  28.585  21.280  1.00  0.00    -0.388 OA
ATOM     23  H9  UNL     1      24.452  27.685  21.386  1.00  0.00     0.210 HD
ENDBRANCH   7  22
BRANCH   4  24
HETATM   24  C16 UNL     1      22.940  33.156  20.445  1.00  0.00     0.196 C
BRANCH  24  25
HETATM   25  O3  UNL     1      23.446  34.367  19.939  1.00  0.00    -0.398 OA
ATOM     26  H3  UNL     1      22.789  35.036  20.090  1.00  0.00     0.209 HD
ENDBRANCH  24  25
ENDBRANCH   4  24
BRANCH   1  27
HETATM   27  N1  UNL     1      26.724  29.396  18.879  1.00  0.00    -0.349 N
BRANCH  27  28
HETATM   28  C10 UNL     1      28.091  29.819  18.967  1.00  0.00     0.126 C
BRANCH  28  29
HETATM   29  C9  UNL     1      28.857  29.454  17.748  1.00  0.00     0.020 C
BRANCH  29  30
HETATM   30  C8  UNL     1      30.329  29.832  17.847  1.00  0.00     0.002 C
BRANCH  30  31
HETATM   31  C7  UNL     1      30.744  30.179  19.240  1.00  0.00     0.000 C
BRANCH  31  32
HETATM   32  C6  UNL     1      32.068  30.904  19.290  1.00  0.00     0.000 C
BRANCH  32  33
HETATM   33  C5  UNL     1      33.180  30.062  19.845  1.00  0.00     0.000 C
BRANCH  33  34
HETATM   34  C4  UNL     1      32.533  29.001  20.727  1.00  0.00     0.000 C
BRANCH  34  35
HETATM   35  C3  UNL     1      33.612  28.460  21.640  1.00  0.00    -0.000 C
BRANCH  35  36
HETATM   36  C2  UNL     1      33.877  26.995  21.383  1.00  0.00    -0.005 C
HETATM   37  C1  UNL     1      35.371  26.713  21.362  1.00  0.00     0.005 C
ENDBRANCH  35  36
ENDBRANCH  34  35
ENDBRANCH  33  34
ENDBRANCH  32  33
ENDBRANCH  31  32
ENDBRANCH  30  31
ENDBRANCH  29  30
ENDBRANCH  28  29
ENDBRANCH  27  28
BRANCH  27  38
HETATM   38  C11 UNL     1      26.478  28.275  17.996  1.00  0.00     0.351 C
HETATM   39  O1  UNL     1      25.760  28.431  16.984  1.00  0.00    -0.284 OA
ENDBRANCH  27  38
ENDBRANCH   1  27
BRANCH   2  40
HETATM   40  O2  UNL     1      26.413  30.166  21.810  1.00  0.00    -0.393 OA
ATOM     41  H2  UNL     1      27.344  29.979  21.819  1.00  0.00     0.210 HD
ENDBRANCH   2  40
TORSDOF 19
ENDMDL