MODEL 4
REMARK VINA RESULT: -6.314317548      1.524      1.976
REMARK  20 active torsions:
REMARK  status: ('A' for Active; 'I' for Inactive)
REMARK    1  A    between atoms: C2_2  and  C3_3
REMARK    2  A    between atoms: C3_3  and  C4_4
REMARK    3  A    between atoms: C4_4  and  C5_5
REMARK    4  A    between atoms: C5_5  and  C7_7
REMARK    5  A    between atoms: C7_7  and  C8_8
REMARK    6  A    between atoms: C8_8  and  O1_9
REMARK    7  A    between atoms: C8_8  and  C9_11
REMARK    8  A    between atoms: C9_11  and  C11_13
REMARK    9  A    between atoms: C11_13  and  O2_14
REMARK   10  A    between atoms: C11_13  and  C12_16
REMARK   11  A    between atoms: C12_16  and  O3_17
REMARK   12  A    between atoms: C12_16  and  C13_19
REMARK   13  A    between atoms: C15_23  and  C16_24
REMARK   14  A    between atoms: C16_24  and  C17_25
REMARK   15  A    between atoms: C17_25  and  O7_27
REMARK   16  A    between atoms: O7_27  and  C18_28
REMARK   17  A    between atoms: C18_28  and  C20_30
REMARK   18  A    between atoms: C21_31  and  O8_32
REMARK   19  A    between atoms: C24_36  and  C26_38
REMARK   20  A    between atoms: C26_38  and  O9_40
ROOT
HETATM    1  C13 UNL     1      26.478  27.761  16.955  1.00  0.00     0.177 C
HETATM    2  O4  UNL     1      25.859  26.524  16.828  1.00  0.00    -0.312 OA
HETATM    3  C14 UNL     1      25.355  26.710  18.105  1.00  0.00     0.266 C
HETATM    4  O5  UNL     1      25.040  25.930  19.028  1.00  0.00    -0.265 OA
HETATM    5  C15 UNL     1      25.376  28.174  17.850  1.00  0.00     0.127 C
ENDROOT
BRANCH   1   6
HETATM    6  C12 UNL     1      27.894  27.823  17.437  1.00  0.00     0.177 C
BRANCH   6   7
HETATM    7  C11 UNL     1      28.708  28.887  16.795  1.00  0.00     0.155 C
BRANCH   7   8
HETATM    8  C9  UNL     1      30.060  29.203  17.298  1.00  0.00     0.042 C
HETATM    9  C10 UNL     1      30.784  29.892  16.108  1.00  0.00     0.015 C
BRANCH   8  10
HETATM   10  C8  UNL     1      30.168  30.147  18.459  1.00  0.00     0.124 C
BRANCH  10  11
HETATM   11  C7  UNL     1      31.139  29.469  19.443  1.00  0.00     0.036 C
BRANCH  11  12
HETATM   12  C5  UNL     1      32.313  30.307  19.738  1.00  0.00    -0.016 C
HETATM   13  C6  UNL     1      32.627  31.407  18.766  1.00  0.00     0.010 C
BRANCH  12  14
HETATM   14  C4  UNL     1      33.495  29.550  20.224  1.00  0.00     0.008 C
BRANCH  14  15
HETATM   15  C3  UNL     1      33.338  28.674  21.403  1.00  0.00     0.027 C
BRANCH  15  16
HETATM   16  C2  UNL     1      33.761  27.273  21.271  1.00  0.00    -0.037 C
HETATM   17  C1  UNL     1      35.061  26.911  21.253  1.00  0.00     0.007 C
ENDBRANCH  15  16
ENDBRANCH  14  15
ENDBRANCH  12  14
ENDBRANCH  11  12
ENDBRANCH  10  11
BRANCH  10  18
HETATM   18  O1  UNL     1      28.938  30.228  19.101  1.00  0.00    -0.395 OA
ATOM     19  H1  UNL     1      29.100  30.617  19.953  1.00  0.00     0.210 HD
ENDBRANCH  10  18
ENDBRANCH   8  10
ENDBRANCH   7   8
BRANCH   7  20
HETATM   20  O2  UNL     1      27.940  30.036  16.600  1.00  0.00    -0.392 OA
ATOM     21  H2  UNL     1      27.916  30.585  17.374  1.00  0.00     0.210 HD
ENDBRANCH   7  20
ENDBRANCH   6   7
BRANCH   6  22
HETATM   22  O3  UNL     1      28.572  26.647  17.516  1.00  0.00    -0.390 OA
ATOM     23  H3  UNL     1      28.275  26.118  18.247  1.00  0.00     0.210 HD
ENDBRANCH   6  22
ENDBRANCH   1   6
BRANCH   5  24
HETATM   24  C16 UNL     1      25.682  28.929  19.099  1.00  0.00     0.128 C
BRANCH  24  25
HETATM   25  C17 UNL     1      25.401  30.389  18.956  1.00  0.00     0.260 C
HETATM   26  O6  UNL     1      25.218  30.851  17.800  1.00  0.00    -0.265 OA
BRANCH  25  27
HETATM   27  O7  UNL     1      25.326  31.256  20.004  1.00  0.00    -0.316 OA
BRANCH  27  28
HETATM   28  C18 UNL     1      24.886  30.943  21.280  1.00  0.00     0.135 C
HETATM   29  C19 UNL     1      25.914  31.406  22.340  1.00  0.00     0.040 C
BRANCH  28  30
HETATM   30  C20 UNL     1      23.569  31.446  21.707  1.00  0.00     0.054 C
HETATM   31  C21 UNL     1      22.954  32.387  20.673  1.00  0.00     0.125 C
HETATM   32  C22 UNL     1      21.984  31.501  19.925  1.00  0.00     0.033 C
HETATM   33  C23 UNL     1      21.929  30.173  20.651  1.00  0.00     0.014 C
HETATM   34  C24 UNL     1      22.459  30.557  22.016  1.00  0.00    -0.010 C
HETATM   35  C25 UNL     1      21.330  31.430  22.622  1.00  0.00     0.018 C
BRANCH  31  36
HETATM   36  O8  UNL     1      22.278  33.453  21.242  1.00  0.00    -0.395 OA
ATOM     37  H8  UNL     1      21.913  34.050  20.599  1.00  0.00     0.210 HD
ENDBRANCH  31  36
BRANCH  34  38
HETATM   38  C26 UNL     1      22.622  29.443  22.968  1.00  0.00     0.122 C
HETATM   39  C27 UNL     1      21.931  28.216  22.414  1.00  0.00     0.040 C
BRANCH  38  40
HETATM   40  O9  UNL     1      22.439  29.674  24.293  1.00  0.00    -0.395 OA
ATOM     41  H9  UNL     1      22.002  29.016  24.821  1.00  0.00     0.210 HD
ENDBRANCH  38  40
ENDBRANCH  34  38
ENDBRANCH  28  30
ENDBRANCH  27  28
ENDBRANCH  25  27
ENDBRANCH  24  25
ENDBRANCH   5  24
TORSDOF 20
ENDMDL