MODEL 4
REMARK VINA RESULT: -6.438244133      2.690      4.001
REMARK  19 active torsions:
REMARK  status: ('A' for Active; 'I' for Inactive)
REMARK    1  A    between atoms: C2_2  and  C3_3
REMARK    2  A    between atoms: C3_3  and  C4_4
REMARK    3  A    between atoms: C4_4  and  C5_5
REMARK    4  A    between atoms: C5_5  and  C6_6
REMARK    5  A    between atoms: C6_6  and  C7_7
REMARK    6  A    between atoms: C7_7  and  C8_8
REMARK    7  A    between atoms: C8_8  and  C9_9
REMARK    8  A    between atoms: C9_9  and  C10_10
REMARK    9  A    between atoms: C10_10  and  C11_11
REMARK   10  A    between atoms: C12_12  and  C13_13
REMARK   11  A    between atoms: C17_18  and  C18_19
REMARK   12  A    between atoms: C18_19  and  O2_20
REMARK   13  A    between atoms: C18_19  and  C19_22
REMARK   14  A    between atoms: C19_22  and  O3_23
REMARK   15  A    between atoms: C24_31  and  O6_33
REMARK   16  A    between atoms: C26_36  and  C27_37
REMARK   17  A    between atoms: C27_37  and  O8_38
REMARK   18  A    between atoms: C27_37  and  C28_40
REMARK   19  A    between atoms: C28_40  and  O9_41
ROOT
HETATM    1  C13 UNL     1      28.199  29.501  17.101  1.00  0.00     0.080 C
HETATM    2  C14 UNL     1      27.431  28.406  17.677  1.00  0.00    -0.037 C
HETATM    3  C15 UNL     1      26.342  28.593  18.387  1.00  0.00     0.059 C
HETATM    4  C16 UNL     1      25.683  27.399  18.894  1.00  0.00     0.181 C
HETATM    5  O1  UNL     1      25.058  27.378  19.978  1.00  0.00    -0.290 OA
HETATM    6  C17 UNL     1      25.827  26.216  17.995  1.00  0.00     0.226 C
HETATM    7  O4  UNL     1      27.102  26.006  17.623  1.00  0.00    -0.366 OA
HETATM    8  C20 UNL     1      27.959  27.057  17.446  1.00  0.00     0.155 C
HETATM    9  C21 UNL     1      28.761  26.963  16.166  1.00  0.00     0.080 C
HETATM   10  C22 UNL     1      28.325  27.951  15.128  1.00  0.00     0.130 A
HETATM   11  O5  UNL     1      28.227  27.315  13.994  1.00  0.00    -0.360 OA
HETATM   12  C23 UNL     1      29.192  28.189  13.892  1.00  0.00     0.222 A
HETATM   13  C24 UNL     1      30.193  29.000  14.503  1.00  0.00     0.188 C
HETATM   14  C25 UNL     1      30.906  29.928  13.469  1.00  0.00     0.082 C
HETATM   15  O7  UNL     1      29.471  29.909  15.254  1.00  0.00    -0.335 OA
HETATM   16  C26 UNL     1      28.208  29.345  15.567  1.00  0.00     0.137 C
ENDROOT
BRANCH   1  17
HETATM   17  C12 UNL     1      29.525  29.687  17.706  1.00  0.00    -0.019 C
HETATM   18  C11 UNL     1      29.679  30.173  18.960  1.00  0.00    -0.030 C
BRANCH  18  19
HETATM   19  C10 UNL     1      30.997  30.365  19.577  1.00  0.00     0.027 C
BRANCH  19  20
HETATM   20  C9  UNL     1      31.843  31.379  18.874  1.00  0.00     0.004 C
BRANCH  20  21
HETATM   21  C8  UNL     1      33.258  30.925  18.628  1.00  0.00     0.000 C
BRANCH  21  22
HETATM   22  C7  UNL     1      33.722  29.974  19.685  1.00  0.00     0.000 C
BRANCH  22  23
HETATM   23  C6  UNL     1      35.227  30.204  19.839  1.00  0.00     0.000 C
BRANCH  23  24
HETATM   24  C5  UNL     1      35.901  29.047  20.517  1.00  0.00     0.000 C
BRANCH  24  25
HETATM   25  C4  UNL     1      35.886  29.185  22.022  1.00  0.00     0.000 C
BRANCH  25  26
HETATM   26  C3  UNL     1      35.366  27.884  22.583  1.00  0.00    -0.000 C
BRANCH  26  27
HETATM   27  C2  UNL     1      35.352  26.796  21.523  1.00  0.00    -0.005 C
HETATM   28  C1  UNL     1      34.054  26.049  21.504  1.00  0.00     0.005 C
ENDBRANCH  26  27
ENDBRANCH  25  26
ENDBRANCH  24  25
ENDBRANCH  23  24
ENDBRANCH  22  23
ENDBRANCH  21  22
ENDBRANCH  20  21
ENDBRANCH  19  20
ENDBRANCH  18  19
ENDBRANCH   1  17
BRANCH  16  29
HETATM   29  C27 UNL     1      27.073  30.159  15.139  1.00  0.00     0.180 C
BRANCH  29  30
HETATM   30  O8  UNL     1      26.081  29.310  14.579  1.00  0.00    -0.390 OA
ATOM     31  H8  UNL     1      26.344  29.066  13.699  1.00  0.00     0.210 HD
ENDBRANCH  29  30
BRANCH  29  32
HETATM   32  C28 UNL     1      27.087  31.360  14.337  1.00  0.00     0.199 C
BRANCH  32  33
HETATM   33  O9  UNL     1      28.074  32.309  14.579  1.00  0.00    -0.398 OA
ATOM     34  H9  UNL     1      27.880  33.024  15.174  1.00  0.00     0.209 HD
ENDBRANCH  32  33
ENDBRANCH  29  32
ENDBRANCH  16  29
BRANCH  13  35
HETATM   35  O6  UNL     1      31.284  28.418  15.087  1.00  0.00    -0.363 OA
ATOM     36  H6  UNL     1      31.374  27.472  15.094  1.00  0.00     0.213 HD
ENDBRANCH  13  35
BRANCH   6  37
HETATM   37  C18 UNL     1      25.362  25.011  18.822  1.00  0.00     0.178 C
BRANCH  37  38
HETATM   38  O2  UNL     1      26.156  24.914  19.966  1.00  0.00    -0.390 OA
ATOM     39  H2  UNL     1      26.736  24.166  19.876  1.00  0.00     0.210 HD
ENDBRANCH  37  38
BRANCH  37  40
HETATM   40  C19 UNL     1      25.527  23.736  18.030  1.00  0.00     0.198 C
BRANCH  40  41
HETATM   41  O3  UNL     1      26.697  23.075  18.347  1.00  0.00    -0.398 OA
ATOM     42  H3  UNL     1      26.876  22.359  17.749  1.00  0.00     0.209 HD
ENDBRANCH  40  41
ENDBRANCH  37  40
ENDBRANCH   6  37
TORSDOF 19
ENDMDL