MODEL 4
REMARK VINA RESULT: -7.574799999      1.591      2.838
REMARK  19 active torsions:
REMARK  status: ('A' for Active; 'I' for Inactive)
REMARK    1  A    between atoms: C2_2  and  C3_3
REMARK    2  A    between atoms: C3_3  and  C5_5
REMARK    3  A    between atoms: C5_5  and  O1_6
REMARK    4  A    between atoms: C5_5  and  C6_8
REMARK    5  A    between atoms: C6_8  and  O2_9
REMARK    6  A    between atoms: C6_8  and  C7_11
REMARK    7  A    between atoms: C7_11  and  O3_12
REMARK    8  A    between atoms: C7_11  and  C8_14
REMARK    9  A    between atoms: C11_17  and  C12_18
REMARK   10  A    between atoms: C12_18  and  C13_19
REMARK   11  A    between atoms: C13_19  and  O4_20
REMARK   12  A    between atoms: C13_19  and  C14_22
REMARK   13  A    between atoms: C15_23  and  C17_25
REMARK   14  A    between atoms: C17_25  and  C18_27
REMARK   15  A    between atoms: C18_27  and  C19_28
REMARK   16  A    between atoms: C19_28  and  C20_29
REMARK   17  A    between atoms: C20_29  and  O7_31
REMARK   18  A    between atoms: O7_31  and  C21_32
REMARK   19  A    between atoms: C26_37  and  O8_38
ROOT
HETATM    1  C13 UNL     1      26.303  30.545  19.965  1.00  0.00     0.144 C
ENDROOT
BRANCH   1   2
HETATM    2  C12 UNL     1      25.912  30.299  21.383  1.00  0.00     0.067 C
BRANCH   2   3
HETATM    3  C11 UNL     1      24.568  29.710  21.602  1.00  0.00     0.124 C
HETATM    4  C10 UNL     1      24.555  28.219  21.650  1.00  0.00     0.032 C
HETATM    5  C9  UNL     1      23.252  27.782  22.258  1.00  0.00     0.012 C
HETATM    6  C8  UNL     1      22.263  28.925  22.245  1.00  0.00     0.041 C
HETATM    7  C27 UNL     1      22.354  29.775  21.030  1.00  0.00     0.175 C
HETATM    8  O9  UNL     1      23.652  30.101  20.638  1.00  0.00    -0.385 OA
BRANCH   6   9
HETATM    9  C7  UNL     1      20.873  28.273  22.264  1.00  0.00     0.155 C
BRANCH   9  10
HETATM   10  C6  UNL     1      19.779  29.218  22.632  1.00  0.00     0.176 C
BRANCH  10  11
HETATM   11  C5  UNL     1      19.564  29.096  24.136  1.00  0.00     0.153 C
BRANCH  11  12
HETATM   12  C3  UNL     1      20.006  30.319  24.879  1.00  0.00     0.012 C
HETATM   13  C4  UNL     1      21.333  30.098  25.523  1.00  0.00     0.012 C
BRANCH  12  14
HETATM   14  C2  UNL     1      20.147  31.505  23.932  1.00  0.00     0.002 C
HETATM   15  C1  UNL     1      20.350  32.806  24.650  1.00  0.00     0.005 C
ENDBRANCH  12  14
ENDBRANCH  11  12
BRANCH  11  16
HETATM   16  O1  UNL     1      18.281  28.774  24.491  1.00  0.00    -0.393 OA
ATOM     17  H1  UNL     1      18.281  27.984  25.018  1.00  0.00     0.210 HD
ENDBRANCH  11  16
ENDBRANCH  10  11
BRANCH  10  18
HETATM   18  O2  UNL     1      18.579  29.041  22.004  1.00  0.00    -0.390 OA
ATOM     19  H2  UNL     1      18.501  29.686  21.310  1.00  0.00     0.210 HD
ENDBRANCH  10  18
ENDBRANCH   9  10
BRANCH   9  20
HETATM   20  O3  UNL     1      20.961  27.342  23.334  1.00  0.00    -0.392 OA
ATOM     21  H3  UNL     1      21.642  26.727  23.089  1.00  0.00     0.210 HD
ENDBRANCH   9  20
ENDBRANCH   6   9
ENDBRANCH   2   3
ENDBRANCH   1   2
BRANCH   1  22
HETATM   22  O4  UNL     1      25.804  31.785  19.497  1.00  0.00    -0.392 OA
ATOM     23  H4  UNL     1      25.793  32.439  20.186  1.00  0.00     0.210 HD
ENDBRANCH   1  22
BRANCH   1  24
HETATM   24  C14 UNL     1      27.735  30.482  19.692  1.00  0.00     0.015 C
HETATM   25  C15 UNL     1      28.258  29.875  18.627  1.00  0.00    -0.018 C
HETATM   26  C16 UNL     1      27.368  29.222  17.657  1.00  0.00     0.052 C
BRANCH  25  27
HETATM   27  C17 UNL     1      29.700  29.865  18.408  1.00  0.00     0.155 C
HETATM   28  O5  UNL     1      30.199  29.145  17.471  1.00  0.00    -0.293 OA
BRANCH  27  29
HETATM   29  C18 UNL     1      30.604  30.654  19.229  1.00  0.00     0.093 C
BRANCH  29  30
HETATM   30  C19 UNL     1      31.681  29.895  19.929  1.00  0.00     0.118 C
BRANCH  30  31
HETATM   31  C20 UNL     1      33.049  30.192  19.527  1.00  0.00     0.259 C
HETATM   32  O6  UNL     1      33.252  30.635  18.342  1.00  0.00    -0.265 OA
BRANCH  31  33
HETATM   33  O7  UNL     1      34.201  30.054  20.283  1.00  0.00    -0.313 OA
BRANCH  33  34
HETATM   34  C21 UNL     1      34.634  28.767  20.745  1.00  0.00     0.161 C
HETATM   35  C22 UNL     1      33.671  28.337  21.828  1.00  0.00     0.039 C
HETATM   36  C23 UNL     1      34.432  27.143  22.421  1.00  0.00    -0.014 C
HETATM   37  C24 UNL     1      34.062  25.922  21.571  1.00  0.00     0.010 C
HETATM   38  C25 UNL     1      35.886  27.476  22.249  1.00  0.00     0.038 C
HETATM   39  C26 UNL     1      35.931  28.812  21.490  1.00  0.00     0.148 C
BRANCH  39  40
HETATM   40  O8  UNL     1      35.958  29.858  22.392  1.00  0.00    -0.393 OA
ATOM     41  H8  UNL     1      35.761  29.562  23.273  1.00  0.00     0.210 HD
ENDBRANCH  39  40
ENDBRANCH  33  34
ENDBRANCH  31  33
ENDBRANCH  30  31
ENDBRANCH  29  30
ENDBRANCH  27  29
ENDBRANCH  25  27
ENDBRANCH   1  24
TORSDOF 19
ENDMDL