MODEL 4
REMARK VINA RESULT: -7.341883737      3.207      5.989
REMARK  19 active torsions:
REMARK  status: ('A' for Active; 'I' for Inactive)
REMARK    1  A    between atoms: C2_2  and  C3_3
REMARK    2  A    between atoms: C2_2  and  C25_37
REMARK    3  A    between atoms: C3_3  and  C4_4
REMARK    4  A    between atoms: C4_4  and  O1_5
REMARK    5  A    between atoms: C4_4  and  O2_7
REMARK    6  A    between atoms: O2_7  and  C5_8
REMARK    7  A    between atoms: C5_8  and  C6_9
REMARK    8  A    between atoms: C5_8  and  C13_18
REMARK    9  A    between atoms: C7_10  and  C8_11
REMARK   10  A    between atoms: C8_11  and  C9_12
REMARK   11  A    between atoms: C9_12  and  O3_13
REMARK   12  A    between atoms: C9_12  and  C10_15
REMARK   13  A    between atoms: C13_18  and  C14_19
REMARK   14  A    between atoms: C14_19  and  C16_21
REMARK   15  A    between atoms: C17_23  and  C18_24
REMARK   16  A    between atoms: C18_24  and  C19_25
REMARK   17  A    between atoms: C23_30  and  O6_31
REMARK   18  A    between atoms: C24_34  and  O8_35
REMARK   19  A    between atoms: C25_37  and  C27_39
ROOT
HETATM    1  C5  UNL     1      32.149  31.086  18.063  1.00  0.00     0.151 C
ENDROOT
BRANCH   1   2
HETATM    2  O2  UNL     1      33.275  31.391  18.764  1.00  0.00    -0.349 OA
BRANCH   2   3
HETATM    3  C4  UNL     1      34.298  30.428  18.743  1.00  0.00     0.282 C
BRANCH   3   4
HETATM    4  C3  UNL     1      34.697  30.036  20.106  1.00  0.00     0.040 C
BRANCH   4   5
HETATM    5  C2  UNL     1      34.246  28.818  20.757  1.00  0.00    -0.053 C
HETATM    6  C1  UNL     1      32.958  28.775  21.197  1.00  0.00     0.019 C
BRANCH   5   7
HETATM    7  C25 UNL     1      35.103  27.678  21.101  1.00  0.00     0.115 C
HETATM    8  C26 UNL     1      34.303  26.400  21.408  1.00  0.00     0.026 C
BRANCH   7   9
HETATM    9  C27 UNL     1      35.874  27.993  22.368  1.00  0.00     0.181 C
HETATM   10  O9  UNL     1      35.721  27.269  23.377  1.00  0.00    -0.647 OA
HETATM   11  O10 UNL     1      36.742  29.060  22.430  1.00  0.00    -0.647 OA
ENDBRANCH   7   9
ENDBRANCH   5   7
ENDBRANCH   4   5
ENDBRANCH   3   4
BRANCH   3  12
HETATM   12  O1  UNL     1      35.323  30.738  17.930  1.00  0.00    -0.368 OA
ATOM     13  H1  UNL     1      35.231  31.569  17.480  1.00  0.00     0.213 HD
ENDBRANCH   3  12
ENDBRANCH   2   3
ENDBRANCH   1   2
BRANCH   1  14
HETATM   14  C6  UNL     1      31.027  31.039  19.123  1.00  0.00     0.001 C
HETATM   15  C7  UNL     1      29.916  30.449  18.755  1.00  0.00    -0.026 C
BRANCH  15  16
HETATM   16  C8  UNL     1      28.780  30.353  19.703  1.00  0.00     0.059 C
BRANCH  16  17
HETATM   17  C9  UNL     1      27.613  29.688  18.986  1.00  0.00     0.124 C
BRANCH  17  18
HETATM   18  O3  UNL     1      27.672  29.942  17.627  1.00  0.00    -0.395 OA
ATOM     19  H3  UNL     1      26.952  30.502  17.363  1.00  0.00     0.210 HD
ENDBRANCH  17  18
BRANCH  17  20
HETATM   20  C10 UNL     1      26.360  30.246  19.621  1.00  0.00     0.006 C
HETATM   21  C11 UNL     1      26.618  31.026  20.875  1.00  0.00     0.012 C
HETATM   22  C12 UNL     1      25.321  29.175  19.824  1.00  0.00     0.012 C
ENDBRANCH  17  20
ENDBRANCH  16  17
ENDBRANCH  15  16
ENDBRANCH   1  14
BRANCH   1  23
HETATM   23  C13 UNL     1      31.710  32.092  17.091  1.00  0.00     0.072 C
BRANCH  23  24
HETATM   24  C14 UNL     1      32.068  31.969  15.673  1.00  0.00    -0.053 C
HETATM   25  C15 UNL     1      33.339  32.014  15.311  1.00  0.00     0.017 C
BRANCH  24  26
HETATM   26  C16 UNL     1      31.079  31.811  14.586  1.00  0.00     0.205 C
HETATM   27  O4  UNL     1      30.025  32.743  14.762  1.00  0.00    -0.366 OA
HETATM   28  C17 UNL     1      29.048  32.362  13.785  1.00  0.00     0.180 C
HETATM   29  C23 UNL     1      28.339  31.134  14.277  1.00  0.00     0.289 C
HETATM   30  O7  UNL     1      29.299  30.347  14.957  1.00  0.00    -0.326 OA
HETATM   31  C24 UNL     1      30.506  30.495  14.327  1.00  0.00     0.293 C
BRANCH  28  32
HETATM   32  C18 UNL     1      28.101  33.481  13.555  1.00  0.00     0.072 C
BRANCH  32  33
HETATM   33  C19 UNL     1      28.584  34.462  12.539  1.00  0.00     0.159 A
HETATM   34  O5  UNL     1      27.811  35.670  12.481  1.00  0.00    -0.370 OA
HETATM   35  C20 UNL     1      29.139  35.777  12.913  1.00  0.00     0.080 A
HETATM   36  C21 UNL     1      29.434  36.156  14.333  1.00  0.00     0.048 C
HETATM   37  C22 UNL     1      30.006  36.492  11.895  1.00  0.00     0.048 C
ENDBRANCH  32  33
ENDBRANCH  28  32
BRANCH  29  38
HETATM   38  O6  UNL     1      27.399  31.436  15.270  1.00  0.00    -0.369 OA
ATOM     39  H6  UNL     1      26.934  32.243  15.084  1.00  0.00     0.212 HD
ENDBRANCH  29  38
BRANCH  31  40
HETATM   40  O8  UNL     1      31.266  29.377  14.638  1.00  0.00    -0.368 OA
ATOM     41  H8  UNL     1      31.643  28.878  13.923  1.00  0.00     0.212 HD
ENDBRANCH  31  40
ENDBRANCH  24  26
ENDBRANCH  23  24
ENDBRANCH   1  23
TORSDOF 19
ENDMDL