MODEL 1
REMARK VINA RESULT: -6.577769229      0.000      0.000
REMARK  19 active torsions:
REMARK  status: ('A' for Active; 'I' for Inactive)
REMARK    1  A    between atoms: C4_5  and  C5_6
REMARK    2  A    between atoms: C5_6  and  C6_7
REMARK    3  A    between atoms: C6_7  and  C7_8
REMARK    4  A    between atoms: C7_8  and  C8_9
REMARK    5  A    between atoms: C8_9  and  O2_10
REMARK    6  A    between atoms: O2_10  and  C9_11
REMARK    7  A    between atoms: C10_13  and  S1_14
REMARK    8  A    between atoms: S1_14  and  C11_15
REMARK    9  A    between atoms: C15_19  and  O4_20
REMARK   10  A    between atoms: C16_22  and  O5_23
REMARK   11  A    between atoms: C17_25  and  O6_26
REMARK   12  A    between atoms: C18_28  and  O7_29
REMARK   13  A    between atoms: N1_31  and  C19_32
REMARK   14  A    between atoms: C19_32  and  C20_33
REMARK   15  A    between atoms: C20_33  and  S2_34
REMARK   16  A    between atoms: S2_34  and  C21_35
REMARK   17  A    between atoms: C21_35  and  C22_36
REMARK   18  A    between atoms: C22_36  and  C23_37
REMARK   19  A    between atoms: C23_37  and  O8_38
ROOT
HETATM    1  C9  UNL     1      35.785  28.932  20.760  1.00  0.00     0.292 C
HETATM    2  O3  UNL     1      34.572  29.328  20.187  1.00  0.00    -0.340 OA
HETATM    3  C10 UNL     1      33.561  29.429  21.118  1.00  0.00     0.217 C
HETATM    4  C16 UNL     1      33.685  28.514  22.289  1.00  0.00     0.188 C
HETATM    5  C17 UNL     1      34.597  27.361  22.148  1.00  0.00     0.183 C
HETATM    6  C18 UNL     1      35.535  27.409  20.964  1.00  0.00     0.204 C
ENDROOT
BRANCH   1   7
HETATM    7  O2  UNL     1      36.823  29.156  19.948  1.00  0.00    -0.358 OA
BRANCH   7   8
HETATM    8  C8  UNL     1      36.790  30.061  18.970  1.00  0.00     0.171 C
BRANCH   8   9
HETATM    9  C7  UNL     1      36.588  29.677  17.548  1.00  0.00     0.026 C
BRANCH   9  10
HETATM   10  C6  UNL     1      35.557  30.366  16.754  1.00  0.00     0.004 C
BRANCH  10  11
HETATM   11  C5  UNL     1      35.794  30.248  15.246  1.00  0.00     0.025 C
BRANCH  11  12
HETATM   12  C4  UNL     1      34.577  30.504  14.444  1.00  0.00     0.087 C
HETATM   13  C3  UNL     1      33.425  29.741  15.086  1.00  0.00     0.034 C
HETATM   14  C2  UNL     1      32.220  30.607  14.917  1.00  0.00     0.105 C
HETATM   15  C1  UNL     1      32.792  31.955  14.768  1.00  0.00     0.220 C
HETATM   16  O1  UNL     1      32.127  33.007  14.869  1.00  0.00    -0.273 OA
HETATM   17  N1  UNL     1      34.190  31.884  14.497  1.00  0.00    -0.347 N
BRANCH  17  18
HETATM   18  C19 UNL     1      35.019  33.063  14.271  1.00  0.00     0.136 C
BRANCH  18  19
HETATM   19  C20 UNL     1      35.766  32.986  13.000  1.00  0.00     0.093 C
BRANCH  19  20
HETATM   20  S2  UNL     1      37.452  33.295  12.922  1.00  0.00    -0.167 SA
BRANCH  20  21
HETATM   21  C21 UNL     1      38.291  34.403  13.951  1.00  0.00     0.076 C
BRANCH  21  22
HETATM   22  C22 UNL     1      38.220  34.389  15.420  1.00  0.00     0.036 C
BRANCH  22  23
HETATM   23  C23 UNL     1      38.251  35.635  16.206  1.00  0.00     0.165 C
BRANCH  23  24
HETATM   24  O8  UNL     1      38.771  35.471  17.491  1.00  0.00    -0.401 OA
ATOM     25  H8  UNL     1      39.190  36.251  17.833  1.00  0.00     0.209 HD
ENDBRANCH  23  24
ENDBRANCH  22  23
ENDBRANCH  21  22
ENDBRANCH  20  21
ENDBRANCH  19  20
ENDBRANCH  18  19
ENDBRANCH  17  18
ENDBRANCH  11  12
ENDBRANCH  10  11
ENDBRANCH   9  10
ENDBRANCH   8   9
ENDBRANCH   7   8
ENDBRANCH   1   7
BRANCH   6  26
HETATM   26  O7  UNL     1      36.724  26.761  21.223  1.00  0.00    -0.388 OA
ATOM     27  H7  UNL     1      36.606  26.122  21.917  1.00  0.00     0.210 HD
ENDBRANCH   6  26
BRANCH   3  28
HETATM   28  S1  UNL     1      31.931  29.381  20.335  1.00  0.00    -0.127 SA
BRANCH  28  29
HETATM   29  C11 UNL     1      31.941  29.916  18.631  1.00  0.00     0.078 C
HETATM   30  C12 UNL     1      32.457  31.332  18.547  1.00  0.00     0.018 C
HETATM   31  C13 UNL     1      31.237  32.237  18.359  1.00  0.00     0.004 C
HETATM   32  C14 UNL     1      30.046  31.313  18.654  1.00  0.00     0.033 C
HETATM   33  C15 UNL     1      30.557  30.034  18.041  1.00  0.00     0.132 C
BRANCH  33  34
HETATM   34  O4  UNL     1      29.756  28.945  18.350  1.00  0.00    -0.394 OA
ATOM     35  H4  UNL     1      28.856  29.195  18.519  1.00  0.00     0.210 HD
ENDBRANCH  33  34
ENDBRANCH  28  29
ENDBRANCH   3  28
BRANCH   5  36
HETATM   36  O6  UNL     1      33.910  26.122  22.179  1.00  0.00    -0.390 OA
ATOM     37  H6  UNL     1      34.412  25.440  22.610  1.00  0.00     0.210 HD
ENDBRANCH   5  36
BRANCH   4  38
HETATM   38  O5  UNL     1      33.984  29.212  23.472  1.00  0.00    -0.389 OA
ATOM     39  H5  UNL     1      34.178  28.624  24.192  1.00  0.00     0.210 HD
ENDBRANCH   4  38
TORSDOF 19
ENDMDL