MODEL 4
REMARK VINA RESULT: -6.353900299      3.160      3.864
REMARK  20 active torsions:
REMARK  status: ('A' for Active; 'I' for Inactive)
REMARK    1  A    between atoms: C2_2  and  C3_3
REMARK    2  A    between atoms: C3_3  and  C4_4
REMARK    3  A    between atoms: C4_4  and  C5_5
REMARK    4  A    between atoms: C5_5  and  C6_6
REMARK    5  A    between atoms: C6_6  and  C7_7
REMARK    6  A    between atoms: C7_7  and  C8_8
REMARK    7  A    between atoms: C8_8  and  C9_9
REMARK    8  A    between atoms: C9_9  and  C10_10
REMARK    9  A    between atoms: C10_10  and  C11_11
REMARK   10  A    between atoms: C10_10  and  C12_14
REMARK   11  A    between atoms: C16_18  and  O3_19
REMARK   12  A    between atoms: O3_19  and  C17_20
REMARK   13  A    between atoms: C18_22  and  C19_23
REMARK   14  A    between atoms: C19_23  and  O5_24
REMARK   15  A    between atoms: C20_26  and  O6_27
REMARK   16  A    between atoms: C21_29  and  N1_30
REMARK   17  A    between atoms: N1_30  and  N2_32
REMARK   18  A    between atoms: N2_32  and  N3_33
REMARK   19  A    between atoms: C22_36  and  O7_37
REMARK   20  A    between atoms: C23_39  and  O8_40
ROOT
HETATM    1  C12 UNL     1      30.562  30.763  16.472  1.00  0.00     0.136 C
HETATM    2  C13 UNL     1      30.602  29.594  17.386  1.00  0.00     0.040 C
HETATM    3  C14 UNL     1      29.740  28.578  16.671  1.00  0.00     0.022 C
HETATM    4  C15 UNL     1      28.708  27.928  17.518  1.00  0.00     0.042 C
HETATM    5  C16 UNL     1      27.335  27.861  16.909  1.00  0.00     0.156 C
HETATM    6  C22 UNL     1      26.883  29.192  16.354  1.00  0.00     0.178 C
HETATM    7  C23 UNL     1      27.883  29.821  15.464  1.00  0.00     0.178 C
HETATM    8  C24 UNL     1      29.255  29.272  15.455  1.00  0.00     0.157 C
HETATM    9  O9  UNL     1      30.130  30.351  15.222  1.00  0.00    -0.377 OA
ENDROOT
BRANCH   5  10
HETATM   10  O3  UNL     1      26.458  27.376  17.856  1.00  0.00    -0.351 OA
BRANCH  10  11
HETATM   11  C17 UNL     1      26.037  26.093  17.666  1.00  0.00     0.288 C
HETATM   12  O4  UNL     1      26.982  25.234  17.120  1.00  0.00    -0.349 OA
HETATM   13  C18 UNL     1      26.603  23.955  17.402  1.00  0.00     0.179 C
HETATM   14  C20 UNL     1      25.577  23.947  18.500  1.00  0.00     0.179 C
HETATM   15  C21 UNL     1      25.455  25.406  18.850  1.00  0.00     0.200 C
BRANCH  13  16
HETATM   16  C19 UNL     1      26.091  23.201  16.191  1.00  0.00     0.198 C
BRANCH  16  17
HETATM   17  O5  UNL     1      26.205  21.837  16.488  1.00  0.00    -0.398 OA
ATOM     18  H5  UNL     1      26.311  21.385  15.658  1.00  0.00     0.209 HD
ENDBRANCH  16  17
ENDBRANCH  13  16
BRANCH  14  19
HETATM   19  O6  UNL     1      24.362  23.508  17.974  1.00  0.00    -0.391 OA
ATOM     20  H6  UNL     1      23.728  23.449  18.678  1.00  0.00     0.210 HD
ENDBRANCH  14  19
BRANCH  15  21
HETATM   21  N1  UNL     1      26.183  25.623  20.077  1.00  0.00    -0.240 N
ATOM     22  H1  UNL     1      27.200  25.544  20.096  1.00  0.00     0.197 HD
BRANCH  21  23
HETATM   23  N2  UNL     1      25.569  25.899  21.081  1.00  0.00    -0.248 NA
BRANCH  23  24
HETATM   24  N3  UNL     1      25.127  26.253  22.184  1.00  0.00    -0.261 N
ATOM     25  H32 UNL     1      25.999  26.758  22.339  1.00  0.00     0.193 HD
ATOM     26  H31 UNL     1      24.621  26.451  23.047  1.00  0.00     0.193 HD
ENDBRANCH  23  24
ENDBRANCH  21  23
ENDBRANCH  15  21
ENDBRANCH  10  11
ENDBRANCH   5  10
BRANCH   6  27
HETATM   27  O7  UNL     1      26.442  30.048  17.377  1.00  0.00    -0.390 OA
ATOM     28  H7  UNL     1      25.530  30.287  17.258  1.00  0.00     0.210 HD
ENDBRANCH   6  27
BRANCH   7  29
HETATM   29  O8  UNL     1      27.356  29.850  14.149  1.00  0.00    -0.390 OA
ATOM     30  H8  UNL     1      27.761  30.568  13.678  1.00  0.00     0.210 HD
ENDBRANCH   7  29
BRANCH   1  31
HETATM   31  C10 UNL     1      31.986  31.354  16.255  1.00  0.00     0.116 C
BRANCH  31  32
HETATM   32  C9  UNL     1      32.634  31.581  17.551  1.00  0.00     0.018 C
BRANCH  32  33
HETATM   33  C8  UNL     1      33.895  30.885  17.823  1.00  0.00     0.001 C
BRANCH  33  34
HETATM   34  C7  UNL     1      34.135  30.283  19.163  1.00  0.00     0.000 C
BRANCH  34  35
HETATM   35  C6  UNL     1      32.871  30.371  20.010  1.00  0.00     0.000 C
BRANCH  35  36
HETATM   36  C5  UNL     1      32.506  29.039  20.589  1.00  0.00     0.000 C
BRANCH  36  37
HETATM   37  C4  UNL     1      33.548  28.480  21.513  1.00  0.00     0.000 C
BRANCH  37  38
HETATM   38  C3  UNL     1      33.740  26.986  21.351  1.00  0.00    -0.000 C
BRANCH  38  39
HETATM   39  C2  UNL     1      35.232  26.737  21.332  1.00  0.00    -0.005 C
HETATM   40  C1  UNL     1      36.042  27.996  21.315  1.00  0.00     0.005 C
ENDBRANCH  38  39
ENDBRANCH  37  38
ENDBRANCH  36  37
ENDBRANCH  35  36
ENDBRANCH  34  35
ENDBRANCH  33  34
ENDBRANCH  32  33
ENDBRANCH  31  32
BRANCH  31  41
HETATM   41  C11 UNL     1      31.931  32.444  15.298  1.00  0.00     0.179 C
HETATM   42  O1  UNL     1      32.713  32.528  14.286  1.00  0.00    -0.648 OA
HETATM   43  O2  UNL     1      31.019  33.501  15.383  1.00  0.00    -0.648 OA
ENDBRANCH  31  41
ENDBRANCH   1  31
TORSDOF 20
ENDMDL