MODEL 1
REMARK VINA RESULT: -6.233684731      0.000      0.000
REMARK  6 active torsions:
REMARK  status: ('A' for Active; 'I' for Inactive)
REMARK    1  A    between atoms: C2_2  and  C3_3
REMARK    2  A    between atoms: C3_3  and  O1_4
REMARK    3  A    between atoms: O1_4  and  N1_5
REMARK    4  A    between atoms: N1_5  and  C4_6
REMARK    5  A    between atoms: C4_6  and  C5_7
REMARK    6  A    between atoms: C5_7  and  C6_8
ROOT
HETATM    1  C6  UNL     1       4.221   3.647  -2.596  1.00  0.00     0.056 A
HETATM    2  N2  UNL     1       4.481   2.576  -3.364  1.00  0.00    -0.309 N
ATOM      3  H2  UNL     1       3.993   1.682  -3.324  1.00  0.00     0.170 HD
HETATM    4  C7  UNL     1       5.506   2.885  -4.202  1.00  0.00     0.326 A
HETATM    5  O2  UNL     1       6.024   2.136  -5.062  1.00  0.00    -0.247 OA
HETATM    6  N3  UNL     1       5.908   4.150  -3.981  1.00  0.00    -0.295 N
ATOM      7  H3  UNL     1       6.655   4.652  -4.460  1.00  0.00     0.172 HD
HETATM    8  C8  UNL     1       5.115   4.617  -2.991  1.00  0.00     0.143 A
HETATM    9  N4  UNL     1       5.178   5.925  -2.421  1.00  0.00    -0.080 NA
ENDROOT
BRANCH   1  10
HETATM   10  C5  UNL     1       3.192   3.790  -1.535  1.00  0.00     0.079 C
BRANCH  10  11
HETATM   11  C4  UNL     1       2.199   2.687  -1.738  1.00  0.00     0.149 C
BRANCH  11  12
HETATM   12  N1  UNL     1       0.852   3.148  -1.944  1.00  0.00    -0.101 NA
BRANCH  12  13
HETATM   13  O1  UNL     1       0.787   3.793  -3.133  1.00  0.00    -0.283 OA
BRANCH  13  14
HETATM   14  C3  UNL     1      -0.521   4.292  -3.229  1.00  0.00     0.222 C
BRANCH  14  15
HETATM   15  C2  UNL     1      -1.190   3.846  -4.466  1.00  0.00    -0.009 C
HETATM   16  C1  UNL     1      -0.541   3.590  -5.590  1.00  0.00     0.009 C
ENDBRANCH  14  15
ENDBRANCH  13  14
ENDBRANCH  12  13
ENDBRANCH  11  12
ENDBRANCH  10  11
ENDBRANCH   1  10
TORSDOF 6
ENDMDL