MODEL 5
REMARK VINA RESULT: -5.813482823      2.198      5.794
REMARK  7 active torsions:
REMARK  status: ('A' for Active; 'I' for Inactive)
REMARK    1  A    between atoms: C2_2  and  C3_3
REMARK    2  A    between atoms: C3_3  and  N1_4
REMARK    3  A    between atoms: N1_4  and  C4_6
REMARK    4  A    between atoms: C4_6  and  C5_7
REMARK    5  A    between atoms: C5_7  and  N2_8
REMARK    6  A    between atoms: N2_8  and  C6_10
REMARK    7  A    between atoms: C9_15  and  N4_16
ROOT
HETATM    1  C6  UNL     1       3.980   4.772  -1.956  1.00  0.00     0.118 A
HETATM    2  C7  UNL     1       4.936   4.344  -2.864  1.00  0.00     0.066 A
HETATM    3  C8  UNL     1       5.597   5.327  -3.566  1.00  0.00     0.110 A
HETATM    4  N3  UNL     1       5.302   6.627  -3.353  1.00  0.00    -0.202 N
ATOM      5  H3  UNL     1       5.804   7.338  -3.884  1.00  0.00     0.183 HD
HETATM    6  C9  UNL     1       4.367   7.018  -2.464  1.00  0.00     0.677 A
HETATM    7  N5  UNL     1       3.708   6.076  -1.768  1.00  0.00    -0.177 N
ATOM      8  H5  UNL     1       2.996   6.351  -1.091  1.00  0.00     0.185 HD
ENDROOT
BRANCH   1   9
HETATM    9  N2  UNL     1       3.276   3.815  -1.199  1.00  0.00    -0.374 N
ATOM     10  H2  UNL     1       3.272   3.867  -0.180  1.00  0.00     0.161 HD
BRANCH   9  11
HETATM   11  C5  UNL     1       2.551   2.750  -1.884  1.00  0.00     0.140 C
BRANCH  11  12
HETATM   12  C4  UNL     1       1.064   3.124  -1.940  1.00  0.00     0.133 C
BRANCH  12  13
HETATM   13  N1  UNL     1       0.813   3.820  -3.141  1.00  0.00    -0.417 N
ATOM     14  H1  UNL     1       1.542   3.953  -3.841  1.00  0.00     0.153 HD
BRANCH  13  15
HETATM   15  C3  UNL     1      -0.498   4.329  -3.334  1.00  0.00     0.140 C
BRANCH  15  16
HETATM   16  C2  UNL     1      -1.194   3.838  -4.535  1.00  0.00    -0.018 C
HETATM   17  C1  UNL     1      -0.566   3.557  -5.645  1.00  0.00     0.008 C
ENDBRANCH  15  16
ENDBRANCH  13  15
ENDBRANCH  12  13
ENDBRANCH  11  12
ENDBRANCH   9  11
ENDBRANCH   1   9
BRANCH   6  18
HETATM   18  N4  UNL     1       4.107   8.276  -2.283  1.00  0.00    -0.234 N
ATOM     19  H42 UNL     1       3.256   8.691  -2.663  1.00  0.00     0.174 HD
ATOM     20  H41 UNL     1       4.748   8.871  -1.759  1.00  0.00     0.174 HD
ENDBRANCH   6  18
TORSDOF 7
ENDMDL