MODEL 3
REMARK VINA RESULT: -5.968776105      1.901      5.145
REMARK  7 active torsions:
REMARK  status: ('A' for Active; 'I' for Inactive)
REMARK    1  A    between atoms: N1_2  and  C2_4
REMARK    2  A    between atoms: C2_4  and  C3_5
REMARK    3  A    between atoms: C3_5  and  O1_6
REMARK    4  A    between atoms: O1_6  and  C4_7
REMARK    5  A    between atoms: C5_12  and  N4_13
REMARK    6  A    between atoms: N4_13  and  C6_15
REMARK    7  A    between atoms: C6_15  and  C7_16
ROOT
HETATM    1  C4  UNL     1       1.605   3.071  -2.122  1.00  0.00     0.203 A
HETATM    2  N2  UNL     1       1.740   2.003  -1.311  1.00  0.00    -0.275 N
ATOM      3  H2  UNL     1       1.295   1.090  -1.221  1.00  0.00     0.189 HD
HETATM    4  N3  UNL     1       2.699   2.654  -0.685  1.00  0.00    -0.280 N
ATOM      5  H3  UNL     1       3.297   2.415   0.107  1.00  0.00     0.188 HD
HETATM    6  C5  UNL     1       2.606   3.758  -1.474  1.00  0.00     0.169 A
ENDROOT
BRANCH   1   7
HETATM    7  O1  UNL     1       0.782   3.342  -3.175  1.00  0.00    -0.330 OA
BRANCH   7   8
HETATM    8  C3  UNL     1      -0.375   4.143  -3.141  1.00  0.00     0.196 C
BRANCH   8   9
HETATM    9  C2  UNL     1      -1.199   3.985  -4.410  1.00  0.00     0.140 C
BRANCH   9  10
HETATM   10  N1  UNL     1      -0.334   4.159  -5.527  1.00  0.00    -0.423 N
HETATM   11  C1  UNL     1       0.044   5.487  -5.839  1.00  0.00     0.139 C
ATOM     12  H1  UNL     1      -0.003   3.365  -6.076  1.00  0.00     0.152 HD
ENDBRANCH   9  10
ENDBRANCH   8   9
ENDBRANCH   7   8
ENDBRANCH   1   7
BRANCH   6  13
HETATM   13  N4  UNL     1       3.277   4.995  -1.514  1.00  0.00    -0.365 N
ATOM     14  H4  UNL     1       3.217   5.615  -0.706  1.00  0.00     0.161 HD
BRANCH  13  15
HETATM   15  C6  UNL     1       4.043   5.411  -2.653  1.00  0.00     0.199 C
BRANCH  15  16
HETATM   16  C7  UNL     1       5.175   4.489  -2.909  1.00  0.00     0.140 C
HETATM   17  C8  UNL     1       5.900   4.485  -4.219  1.00  0.00     0.092 C
HETATM   18  O2  UNL     1       5.526   3.718  -2.042  1.00  0.00    -0.297 OA
ENDBRANCH  15  16
ENDBRANCH  13  15
ENDBRANCH   6  13
TORSDOF 7
ENDMDL