MODEL 2
REMARK VINA RESULT: -5.901434801      0.074      1.941
REMARK  9 active torsions:
REMARK  status: ('A' for Active; 'I' for Inactive)
REMARK    1  A    between atoms: C2_2  and  C3_3
REMARK    2  A    between atoms: C3_3  and  C4_4
REMARK    3  A    between atoms: C4_4  and  O1_5
REMARK    4  A    between atoms: O1_5  and  C5_6
REMARK    5  A    between atoms: C5_6  and  C6_7
REMARK    6  A    between atoms: C6_7  and  C7_8
REMARK    7  A    between atoms: C7_8  and  N1_9
REMARK    8  A    between atoms: C8_10  and  N2_11
REMARK    9  A    between atoms: C9_18  and  N5_19
ROOT
HETATM    1  N1  UNL     1       4.638   5.327  -2.564  1.00  0.00    -0.012 N
HETATM    2  C8  UNL     1       5.576   5.608  -3.460  1.00  0.00     0.707 A
HETATM    3  N3  UNL     1       6.207   4.464  -3.766  1.00  0.00    -0.117 N
ATOM      4  H3  UNL     1       6.977   4.365  -4.428  1.00  0.00     0.206 HD
HETATM    5  N4  UNL     1       5.669   3.504  -3.074  1.00  0.00    -0.117 N
ATOM      6  H4  UNL     1       5.946   2.523  -3.104  1.00  0.00     0.206 HD
HETATM    7  C9  UNL     1       4.690   4.016  -2.316  1.00  0.00     0.707 A
ENDROOT
BRANCH   1   8
HETATM    8  C7  UNL     1       3.741   6.314  -1.988  1.00  0.00     0.169 C
BRANCH   8   9
HETATM    9  C6  UNL     1       2.636   6.687  -2.884  1.00  0.00     0.048 C
BRANCH   9  10
HETATM   10  C5  UNL     1       1.763   5.603  -3.414  1.00  0.00     0.169 C
BRANCH  10  11
HETATM   11  O1  UNL     1       1.446   4.533  -2.698  1.00  0.00    -0.391 OA
BRANCH  11  12
HETATM   12  C4  UNL     1       0.332   3.815  -2.819  1.00  0.00     0.171 C
BRANCH  12  13
HETATM   13  C3  UNL     1      -0.848   4.528  -3.486  1.00  0.00     0.052 C
BRANCH  13  14
HETATM   14  C2  UNL     1      -1.313   3.700  -4.633  1.00  0.00    -0.035 C
HETATM   15  C1  UNL     1      -0.517   3.559  -5.674  1.00  0.00     0.007 C
ENDBRANCH  13  14
ENDBRANCH  12  13
ENDBRANCH  11  12
ENDBRANCH  10  11
ENDBRANCH   9  10
ENDBRANCH   8   9
ENDBRANCH   1   8
BRANCH   2  16
HETATM   16  N2  UNL     1       5.906   6.750  -4.004  1.00  0.00    -0.233 N
ATOM     17  H22 UNL     1       5.444   7.624  -3.751  1.00  0.00     0.174 HD
ATOM     18  H21 UNL     1       6.610   6.962  -4.710  1.00  0.00     0.174 HD
ENDBRANCH   2  16
BRANCH   7  19
HETATM   19  N5  UNL     1       3.928   3.335  -1.487  1.00  0.00    -0.233 N
ATOM     20  H52 UNL     1       2.924   3.463  -1.362  1.00  0.00     0.174 HD
ATOM     21  H51 UNL     1       4.220   2.590  -0.855  1.00  0.00     0.174 HD
ENDBRANCH   7  19
TORSDOF 9
ENDMDL