MODEL 4
REMARK VINA RESULT: -5.806406138      3.484      5.735
REMARK  6 active torsions:
REMARK  status: ('A' for Active; 'I' for Inactive)
REMARK    1  A    between atoms: N1_2  and  C2_4
REMARK    2  A    between atoms: C2_4  and  C3_5
REMARK    3  A    between atoms: C3_5  and  N2_6
REMARK    4  A    between atoms: N2_6  and  C4_8
REMARK    5  A    between atoms: C9_13  and  N3_14
REMARK    6  A    between atoms: N3_14  and  C10_16
ROOT
HETATM    1  C4  UNL     1       1.272   5.074  -3.592  1.00  0.00     0.055 A
HETATM    2  C5  UNL     1       0.880   5.626  -4.816  1.00  0.00     0.031 A
HETATM    3  C6  UNL     1      -0.149   5.149  -5.547  1.00  0.00     0.002 A
HETATM    4  C7  UNL     1      -0.866   4.070  -5.095  1.00  0.00     0.002 A
HETATM    5  C8  UNL     1      -0.517   3.481  -3.879  1.00  0.00     0.032 A
HETATM    6  C9  UNL     1       0.526   3.972  -3.147  1.00  0.00     0.060 A
ENDROOT
BRANCH   1   7
HETATM    7  N2  UNL     1       2.366   5.644  -2.902  1.00  0.00    -0.387 N
ATOM      8  H2  UNL     1       2.227   6.144  -2.024  1.00  0.00     0.159 HD
BRANCH   7   9
HETATM    9  C3  UNL     1       3.696   5.498  -3.476  1.00  0.00     0.139 C
BRANCH   9  10
HETATM   10  C2  UNL     1       4.523   4.550  -2.637  1.00  0.00     0.133 C
BRANCH  10  11
HETATM   11  N1  UNL     1       5.856   4.449  -3.125  1.00  0.00    -0.424 N
HETATM   12  C1  UNL     1       6.176   5.298  -4.225  1.00  0.00     0.139 C
ATOM     13  H1  UNL     1       6.538   3.811  -2.715  1.00  0.00     0.152 HD
ENDBRANCH  10  11
ENDBRANCH   9  10
ENDBRANCH   7   9
ENDBRANCH   1   7
BRANCH   6  14
HETATM   14  N3  UNL     1       0.899   3.398  -1.917  1.00  0.00    -0.332 N
ATOM     15  H3  UNL     1       0.588   3.895  -1.081  1.00  0.00     0.168 HD
BRANCH  14  16
HETATM   16  C10 UNL     1       1.635   2.240  -1.693  1.00  0.00     0.353 C
HETATM   17  O1  UNL     1       1.249   1.241  -1.084  1.00  0.00    -0.283 OA
ENDBRANCH  14  16
ENDBRANCH   6  14
TORSDOF 6
ENDMDL