MODEL 4
REMARK VINA RESULT: -5.593419192      2.637      5.196
REMARK  8 active torsions:
REMARK  status: ('A' for Active; 'I' for Inactive)
REMARK    1  A    between atoms: C2_2  and  C3_3
REMARK    2  A    between atoms: C3_3  and  N1_4
REMARK    3  A    between atoms: N1_4  and  C4_7
REMARK    4  A    between atoms: C4_7  and  C5_8
REMARK    5  A    between atoms: C5_8  and  N2_9
REMARK    6  A    between atoms: N2_9  and  C6_12
REMARK    7  A    between atoms: C6_12  and  C7_13
REMARK    8  A    between atoms: C9_18  and  N4_19
ROOT
HETATM    1  N2  UNL     1       1.723   3.479  -1.741  1.00  0.00    -0.070 N
ATOM      2  H21 UNL     1       1.554   3.157  -0.788  1.00  0.00     0.277 HD
ATOM      3  H22 UNL     1       1.922   4.462  -1.561  1.00  0.00     0.277 HD
ENDROOT
BRANCH   1   4
HETATM    4  C5  UNL     1       0.536   3.346  -2.531  1.00  0.00     0.260 C
BRANCH   4   5
HETATM    5  C4  UNL     1       0.158   4.690  -3.182  1.00  0.00     0.260 C
BRANCH   5   6
HETATM    6  N1  UNL     1       0.878   4.911  -4.391  1.00  0.00    -0.070 N
ATOM      7  H12 UNL     1       0.271   4.774  -5.199  1.00  0.00     0.277 HD
ATOM      8  H11 UNL     1       1.550   4.161  -4.550  1.00  0.00     0.277 HD
BRANCH   6   9
HETATM    9  C3  UNL     1       1.521   6.180  -4.460  1.00  0.00     0.259 C
BRANCH   9  10
HETATM   10  C2  UNL     1       1.163   7.098  -3.378  1.00  0.00    -0.010 C
HETATM   11  C1  UNL     1       1.917   8.079  -2.946  1.00  0.00     0.008 C
ENDBRANCH   9  10
ENDBRANCH   6   9
ENDBRANCH   5   6
ENDBRANCH   4   5
ENDBRANCH   1   4
BRANCH   1  12
HETATM   12  C6  UNL     1       2.885   2.823  -2.295  1.00  0.00     0.276 C
BRANCH  12  13
HETATM   13  C7  UNL     1       3.997   3.821  -2.478  1.00  0.00     0.037 A
HETATM   14  C8  UNL     1       4.036   5.115  -1.978  1.00  0.00     0.180 A
HETATM   15  O1  UNL     1       5.165   5.647  -2.351  1.00  0.00    -0.248 OA
HETATM   16  N3  UNL     1       5.874   4.844  -3.045  1.00  0.00    -0.245 N
HETATM   17  C9  UNL     1       5.186   3.676  -3.157  1.00  0.00     0.129 A
ATOM     18  H3  UNL     1       6.792   5.042  -3.444  1.00  0.00     0.196 HD
BRANCH  17  19
HETATM   19  N4  UNL     1       5.561   2.610  -3.780  1.00  0.00    -0.384 N
ATOM     20  H42 UNL     1       5.898   2.545  -4.741  1.00  0.00     0.157 HD
ATOM     21  H41 UNL     1       5.570   1.671  -3.382  1.00  0.00     0.157 HD
ENDBRANCH  17  19
ENDBRANCH  12  13
ENDBRANCH   1  12
TORSDOF 8
ENDMDL