MODEL 4
REMARK VINA RESULT: -5.859332736      2.179      2.573
REMARK  8 active torsions:
REMARK  status: ('A' for Active; 'I' for Inactive)
REMARK    1  A    between atoms: C2_2  and  C3_3
REMARK    2  A    between atoms: C3_3  and  C4_4
REMARK    3  A    between atoms: C4_4  and  N1_5
REMARK    4  A    between atoms: N1_5  and  C5_8
REMARK    5  A    between atoms: C5_8  and  C6_9
REMARK    6  A    between atoms: C6_9  and  O1_10
REMARK    7  A    between atoms: O1_10  and  C7_11
REMARK    8  A    between atoms: C8_17  and  N5_18
ROOT
HETATM    1  C7  UNL     1       4.455   5.466  -2.265  1.00  0.00     0.201 A
HETATM    2  N2  UNL     1       3.742   4.507  -1.656  1.00  0.00    -0.261 N
ATOM      3  H2  UNL     1       2.935   4.657  -1.049  1.00  0.00     0.186 HD
HETATM    4  N3  UNL     1       4.267   3.321  -1.977  1.00  0.00    -0.019 NA
HETATM    5  N4  UNL     1       5.307   3.492  -2.785  1.00  0.00    -0.266 N
ATOM      6  H4  UNL     1       5.892   2.757  -3.182  1.00  0.00     0.186 HD
HETATM    7  C8  UNL     1       5.446   4.812  -2.980  1.00  0.00     0.165 A
ENDROOT
BRANCH   1   8
HETATM    8  O1  UNL     1       4.324   6.837  -2.256  1.00  0.00    -0.331 OA
BRANCH   8   9
HETATM    9  C6  UNL     1       3.090   7.509  -2.358  1.00  0.00     0.205 C
BRANCH   9  10
HETATM   10  C5  UNL     1       2.442   7.066  -3.651  1.00  0.00     0.259 C
BRANCH  10  11
HETATM   11  N1  UNL     1       1.102   6.563  -3.407  1.00  0.00    -0.073 N
ATOM     12  H12 UNL     1       0.397   7.108  -3.903  1.00  0.00     0.277 HD
ATOM     13  H11 UNL     1       0.796   6.750  -2.452  1.00  0.00     0.277 HD
BRANCH  11  14
HETATM   14  C4  UNL     1       1.018   5.161  -3.731  1.00  0.00     0.236 C
BRANCH  14  15
HETATM   15  C3  UNL     1      -0.314   4.627  -3.277  1.00  0.00     0.054 C
BRANCH  15  16
HETATM   16  C2  UNL     1      -1.004   3.859  -4.314  1.00  0.00    -0.035 C
HETATM   17  C1  UNL     1      -0.598   3.625  -5.536  1.00  0.00     0.007 C
ENDBRANCH  15  16
ENDBRANCH  14  15
ENDBRANCH  11  14
ENDBRANCH  10  11
ENDBRANCH   9  10
ENDBRANCH   8   9
ENDBRANCH   1   8
BRANCH   7  18
HETATM   18  N5  UNL     1       6.355   5.351  -3.710  1.00  0.00    -0.381 N
ATOM     19  H52 UNL     1       7.215   4.886  -4.002  1.00  0.00     0.157 HD
ATOM     20  H51 UNL     1       6.353   6.295  -4.094  1.00  0.00     0.157 HD
ENDBRANCH   7  18
TORSDOF 8
ENDMDL