MODEL 5
REMARK VINA RESULT: -6.761934786      2.281      5.620
REMARK  8 active torsions:
REMARK  status: ('A' for Active; 'I' for Inactive)
REMARK    1  A    between atoms: C1_2  and  N1_3
REMARK    2  A    between atoms: N1_3  and  C2_5
REMARK    3  A    between atoms: C2_5  and  O2_6
REMARK    4  A    between atoms: C2_5  and  C3_8
REMARK    5  A    between atoms: C3_8  and  O3_9
REMARK    6  A    between atoms: C3_8  and  C4_11
REMARK    7  A    between atoms: C4_11  and  N2_12
REMARK    8  A    between atoms: N2_12  and  C5_14
ROOT
HETATM    1  C3  UNL     1       4.823   3.980  -2.565  1.00  0.00     0.184 C
ENDROOT
BRANCH   1   2
HETATM    2  C2  UNL     1       3.445   3.930  -1.940  1.00  0.00     0.250 C
BRANCH   2   3
HETATM    3  N1  UNL     1       2.520   3.444  -2.945  1.00  0.00    -0.340 N
ATOM      4  H1  UNL     1       2.895   3.140  -3.843  1.00  0.00     0.164 HD
BRANCH   3   5
HETATM    5  C1  UNL     1       1.124   3.374  -2.741  1.00  0.00     0.350 C
HETATM    6  O1  UNL     1       0.611   3.262  -1.588  1.00  0.00    -0.284 OA
ENDBRANCH   3   5
ENDBRANCH   2   3
BRANCH   2   7
HETATM    7  O2  UNL     1       3.401   3.025  -0.874  1.00  0.00    -0.374 OA
ATOM      8  H2  UNL     1       2.659   3.270  -0.333  1.00  0.00     0.212 HD
ENDBRANCH   2   7
ENDBRANCH   1   2
BRANCH   1   9
HETATM    9  O3  UNL     1       5.705   3.418  -1.656  1.00  0.00    -0.390 OA
ATOM     10  H3  UNL     1       5.293   2.634  -1.315  1.00  0.00     0.210 HD
ENDBRANCH   1   9
BRANCH   1  11
HETATM   11  C4  UNL     1       5.239   5.366  -2.935  1.00  0.00     0.156 C
BRANCH  11  12
HETATM   12  N2  UNL     1       6.467   5.350  -3.698  1.00  0.00    -0.387 N
ATOM     13  H2  UNL     1       7.332   5.617  -3.228  1.00  0.00     0.159 HD
BRANCH  12  14
HETATM   14  C5  UNL     1       6.531   4.983  -5.058  1.00  0.00     0.028 A
HETATM   15  C6  UNL     1       6.231   5.865  -6.086  1.00  0.00     0.029 A
HETATM   16  C7  UNL     1       6.293   5.512  -7.412  1.00  0.00     0.002 A
HETATM   17  C8  UNL     1       6.669   4.221  -7.757  1.00  0.00     0.000 A
HETATM   18  C9  UNL     1       6.973   3.319  -6.759  1.00  0.00     0.002 A
HETATM   19  C10 UNL     1       6.900   3.711  -5.436  1.00  0.00     0.029 A
ENDBRANCH  12  14
ENDBRANCH  11  12
ENDBRANCH   1  11
TORSDOF 8
ENDMDL