MODEL 4
REMARK VINA RESULT: -5.938814524      2.585      4.064
REMARK  7 active torsions:
REMARK  status: ('A' for Active; 'I' for Inactive)
REMARK    1  A    between atoms: C2_2  and  C3_3
REMARK    2  A    between atoms: C3_3  and  N1_4
REMARK    3  A    between atoms: N1_4  and  C4_6
REMARK    4  A    between atoms: C4_6  and  C5_7
REMARK    5  A    between atoms: C5_7  and  C6_8
REMARK    6  A    between atoms: C7_11  and  N3_12
REMARK    7  A    between atoms: C8_17  and  N5_18
ROOT
HETATM    1  C6  UNL     1       4.827   6.501  -3.410  1.00  0.00     0.082 A
HETATM    2  N2  UNL     1       5.443   7.584  -3.895  1.00  0.00    -0.192 N
ATOM      3  H2  UNL     1       5.077   8.535  -3.935  1.00  0.00     0.184 HD
HETATM    4  C7  UNL     1       6.641   7.159  -4.319  1.00  0.00     0.678 A
HETATM    5  N4  UNL     1       6.778   5.853  -4.107  1.00  0.00    -0.169 N
ATOM      6  H4  UNL     1       7.594   5.286  -4.338  1.00  0.00     0.186 HD
HETATM    7  C8  UNL     1       5.619   5.410  -3.521  1.00  0.00     0.211 A
ENDROOT
BRANCH   1   8
HETATM    8  C5  UNL     1       3.451   6.506  -2.804  1.00  0.00     0.106 C
BRANCH   8   9
HETATM    9  C4  UNL     1       2.485   5.814  -3.752  1.00  0.00     0.062 C
BRANCH   9  10
HETATM   10  N1  UNL     1       1.713   4.886  -3.048  1.00  0.00    -0.398 N
ATOM     11  H1  UNL     1       1.700   4.909  -2.028  1.00  0.00     0.158 HD
BRANCH  10  12
HETATM   12  C3  UNL     1       0.952   3.918  -3.737  1.00  0.00     0.145 C
BRANCH  12  13
HETATM   13  C2  UNL     1      -0.529   4.176  -3.558  1.00  0.00    -0.018 C
HETATM   14  C1  UNL     1      -1.360   3.877  -4.542  1.00  0.00     0.008 C
ENDBRANCH  12  13
ENDBRANCH  10  12
ENDBRANCH   9  10
ENDBRANCH   8   9
ENDBRANCH   1   8
BRANCH   7  15
HETATM   15  N5  UNL     1       5.426   4.035  -3.175  1.00  0.00    -0.095 N
HETATM   16  O1  UNL     1       5.410   3.688  -1.968  1.00  0.00    -0.530 OA
HETATM   17  O2  UNL     1       5.250   3.071  -4.099  1.00  0.00    -0.530 OA
ENDBRANCH   7  15
BRANCH   4  18
HETATM   18  N3  UNL     1       7.517   7.947  -4.840  1.00  0.00    -0.234 N
ATOM     19  H32 UNL     1       7.328   8.778  -5.402  1.00  0.00     0.174 HD
ATOM     20  H31 UNL     1       8.522   7.798  -4.744  1.00  0.00     0.174 HD
ENDBRANCH   4  18
TORSDOF 7
ENDMDL