MODEL 4
REMARK VINA RESULT: -5.529310092      2.907      5.095
REMARK  8 active torsions:
REMARK  status: ('A' for Active; 'I' for Inactive)
REMARK    1  A    between atoms: O1_2  and  C2_3
REMARK    2  A    between atoms: C2_3  and  C3_4
REMARK    3  A    between atoms: C3_4  and  O2_5
REMARK    4  A    between atoms: O2_5  and  C4_6
REMARK    5  A    between atoms: C4_6  and  O3_7
REMARK    6  A    between atoms: O3_7  and  C5_8
REMARK    7  A    between atoms: C7_10  and  N1_11
REMARK    8  A    between atoms: C8_16  and  N3_17
ROOT
HETATM    1  C5  UNL     1       2.916   3.314  -2.918  1.00  0.00     0.163 A
HETATM    2  C6  UNL     1       1.870   4.138  -3.248  1.00  0.00     0.105 A
HETATM    3  C7  UNL     1       0.624   3.856  -2.706  1.00  0.00     0.118 A
HETATM    4  N2  UNL     1       0.494   2.802  -1.893  1.00  0.00    -0.177 N
ATOM      5  H2  UNL     1      -0.424   2.598  -1.498  1.00  0.00     0.185 HD
HETATM    6  C8  UNL     1       1.525   2.002  -1.575  1.00  0.00     0.679 A
HETATM    7  N4  UNL     1       2.726   2.258  -2.087  1.00  0.00    -0.171 N
ATOM      8  H4  UNL     1       3.514   1.654  -1.851  1.00  0.00     0.186 HD
ENDROOT
BRANCH   1   9
HETATM    9  O3  UNL     1       4.173   3.527  -3.415  1.00  0.00    -0.309 OA
BRANCH   9  10
HETATM   10  C4  UNL     1       5.268   3.839  -2.576  1.00  0.00     0.346 C
BRANCH  10  11
HETATM   11  O2  UNL     1       5.534   5.148  -2.665  1.00  0.00    -0.364 OA
BRANCH  11  12
HETATM   12  C3  UNL     1       5.651   5.814  -3.821  1.00  0.00     0.196 C
BRANCH  12  13
HETATM   13  C2  UNL     1       6.749   5.343  -4.719  1.00  0.00     0.193 C
BRANCH  13  14
HETATM   14  O1  UNL     1       6.232   4.673  -5.782  1.00  0.00    -0.394 OA
HETATM   15  C1  UNL     1       6.831   3.447  -6.031  1.00  0.00     0.201 C
ENDBRANCH  13  14
ENDBRANCH  12  13
ENDBRANCH  11  12
ENDBRANCH  10  11
ENDBRANCH   9  10
ENDBRANCH   1   9
BRANCH   3  16
HETATM   16  N1  UNL     1      -0.351   4.643  -3.028  1.00  0.00    -0.385 N
ATOM     17  H12 UNL     1      -0.385   5.180  -3.894  1.00  0.00     0.157 HD
ATOM     18  H11 UNL     1      -1.123   4.721  -2.367  1.00  0.00     0.157 HD
ENDBRANCH   3  16
BRANCH   6  19
HETATM   19  N3  UNL     1       1.384   0.990  -0.789  1.00  0.00    -0.234 N
ATOM     20  H32 UNL     1       0.548   0.411  -0.873  1.00  0.00     0.174 HD
ATOM     21  H31 UNL     1       2.083   0.753  -0.085  1.00  0.00     0.174 HD
ENDBRANCH   6  19
TORSDOF 8
ENDMDL