MODEL 3
REMARK VINA RESULT: -5.494013357      1.033      1.364
REMARK  3 active torsions:
REMARK  status: ('A' for Active; 'I' for Inactive)
REMARK    1  A    between atoms: S1_3  and  C2_4
REMARK    2  A    between atoms: C2_4  and  C3_5
REMARK    3  A    between atoms: C3_5  and  C4_6
ROOT
HETATM    1  N1  UNL     1      46.650  20.993  40.643  1.00  0.00    -0.184 NA
HETATM    2  C1  UNL     1      47.399  21.870  40.573  1.00  0.00     0.133 C
HETATM    3  S1  UNL     1      48.547  23.232  40.474  1.00  0.00    -0.051 SA
ENDROOT
BRANCH   3   4
HETATM    4  C2  UNL     1      47.710  24.538  39.537  1.00  0.00     0.090 C
BRANCH   4   5
HETATM    5  C3  UNL     1      48.084  25.897  40.085  1.00  0.00     0.016 C
BRANCH   5   6
HETATM    6  C4  UNL     1      46.998  26.513  40.902  1.00  0.00    -0.010 C
HETATM    7  C5  UNL     1      46.963  28.004  40.596  1.00  0.00     0.031 C
HETATM    8  C6  UNL     1      45.776  28.564  41.350  1.00  0.00     0.168 C
HETATM    9  O1  UNL     1      45.201  27.670  42.210  1.00  0.00    -0.391 OA
HETATM   10  C7  UNL     1      46.051  27.040  43.079  1.00  0.00     0.168 C
HETATM   11  C8  UNL     1      47.251  26.402  42.391  1.00  0.00     0.031 C
ENDBRANCH   5   6
ENDBRANCH   4   5
ENDBRANCH   3   4
TORSDOF 3
ENDMDL