MODEL 2
REMARK VINA RESULT: -6.470480918      1.269      4.921
REMARK  3 active torsions:
REMARK  status: ('A' for Active; 'I' for Inactive)
REMARK    1  A    between atoms: C2_2  and  C3_3
REMARK    2  A    between atoms: C3_3  and  C4_4
REMARK    3  A    between atoms: C4_4  and  C5_5
ROOT
HETATM    1  C5  UNL     1      49.009  25.498  40.753  1.00  0.00     0.297 C
HETATM    2  O1  UNL     1      48.769  24.673  41.827  1.00  0.00    -0.208 OA
HETATM    3  O2  UNL     1      49.909  24.121  42.214  1.00  0.00    -0.230 OA
HETATM    4  C6  UNL     1      50.209  23.150  41.256  1.00  0.00     0.189 C
HETATM    5  C7  UNL     1      51.692  22.783  41.202  1.00  0.00     0.040 C
HETATM    6  C8  UNL     1      51.868  24.058  40.375  1.00  0.00     0.037 C
HETATM    7  C9  UNL     1      50.414  23.836  39.948  1.00  0.00     0.157 C
HETATM    8  O3  UNL     1      49.684  24.940  39.716  1.00  0.00    -0.350 OA
ENDROOT
BRANCH   1   9
HETATM    9  C4  UNL     1      47.690  26.044  40.229  1.00  0.00     0.067 C
BRANCH   9  10
HETATM   10  C3  UNL     1      47.309  27.337  40.903  1.00  0.00     0.031 C
BRANCH  10  11
HETATM   11  C2  UNL     1      46.101  27.072  41.725  1.00  0.00    -0.037 C
HETATM   12  C1  UNL     1      46.106  27.061  43.043  1.00  0.00     0.007 C
ENDBRANCH  10  11
ENDBRANCH   9  10
ENDBRANCH   1   9
TORSDOF 3
ENDMDL