MODEL 4
REMARK VINA RESULT: -6.079816893      2.759      3.521
REMARK  3 active torsions:
REMARK  status: ('A' for Active; 'I' for Inactive)
REMARK    1  A    between atoms: C2_2  and  C3_3
REMARK    2  A    between atoms: C3_3  and  C4_4
REMARK    3  A    between atoms: C8_8  and  N1_9
ROOT
HETATM    1  C4  UNL     1      50.433  24.313  40.950  1.00  0.00     0.128 C
HETATM    2  C5  UNL     1      50.167  24.265  39.466  1.00  0.00     0.032 C
HETATM    3  C6  UNL     1      49.488  25.612  39.174  1.00  0.00     0.007 C
HETATM    4  C7  UNL     1      48.171  25.539  39.906  1.00  0.00     0.060 C
HETATM    5  C8  UNL     1      48.252  25.051  41.289  1.00  0.00     0.291 C
HETATM    6  O3  UNL     1      49.258  24.245  41.649  1.00  0.00    -0.355 OA
ENDROOT
BRANCH   1   7
HETATM    7  C3  UNL     1      51.410  23.267  41.395  1.00  0.00     0.058 C
BRANCH   7   8
HETATM    8  C2  UNL     1      51.254  22.886  42.807  1.00  0.00    -0.034 C
HETATM    9  C1  UNL     1      51.337  21.633  43.166  1.00  0.00     0.007 C
ENDBRANCH   7   8
ENDBRANCH   1   7
BRANCH   5  10
HETATM   10  N1  UNL     1      48.288  26.232  42.171  1.00  0.00    -0.124 N
HETATM   11  O1  UNL     1      48.761  26.197  43.306  1.00  0.00    -0.534 OA
HETATM   12  O2  UNL     1      47.771  27.435  41.714  1.00  0.00    -0.534 OA
ENDBRANCH   5  10
TORSDOF 3
ENDMDL