MODEL 3
REMARK VINA RESULT: -6.275038348      1.422      4.427
REMARK  3 active torsions:
REMARK  status: ('A' for Active; 'I' for Inactive)
REMARK    1  A    between atoms: C1_2  and  C2_4
REMARK    2  A    between atoms: C2_4  and  C3_5
REMARK    3  A    between atoms: C3_5  and  C4_6
ROOT
HETATM    1  C4  UNL     1      48.527  25.274  41.422  1.00  0.00     0.062 C
HETATM    2  C5  UNL     1      49.796  24.483  41.447  1.00  0.00     0.040 C
HETATM    3  C6  UNL     1      49.400  23.199  40.702  1.00  0.00     0.035 C
HETATM    4  C7  UNL     1      47.988  23.567  40.272  1.00  0.00     0.122 C
HETATM    5  C8  UNL     1      48.118  24.628  39.208  1.00  0.00     0.035 C
HETATM    6  C9  UNL     1      48.256  25.885  40.082  1.00  0.00     0.040 C
HETATM    7  O3  UNL     1      47.558  24.244  41.440  1.00  0.00    -0.375 OA
ENDROOT
BRANCH   1   8
HETATM    8  C3  UNL     1      48.407  26.195  42.577  1.00  0.00     0.048 C
BRANCH   8   9
HETATM    9  C2  UNL     1      47.669  27.451  42.281  1.00  0.00     0.116 C
BRANCH   9  10
HETATM   10  C1  UNL     1      46.210  27.234  42.592  1.00  0.00     0.172 C
HETATM   11  O1  UNL     1      45.803  27.223  43.778  1.00  0.00    -0.648 OA
HETATM   12  O2  UNL     1      45.273  27.040  41.588  1.00  0.00    -0.648 OA
ENDBRANCH   9  10
ENDBRANCH   8   9
ENDBRANCH   1   8
TORSDOF 3
ENDMDL