MODEL 4
REMARK VINA RESULT: -5.343689950      2.474      3.088
REMARK  3 active torsions:
REMARK  status: ('A' for Active; 'I' for Inactive)
REMARK    1  A    between atoms: S1_3  and  C2_4
REMARK    2  A    between atoms: C2_4  and  C3_5
REMARK    3  A    between atoms: C3_5  and  N2_6
ROOT
HETATM    1  N1  UNL     1      53.203  23.986  37.075  1.00  0.00    -0.184 NA
HETATM    2  C1  UNL     1      52.529  24.205  37.983  1.00  0.00     0.133 C
HETATM    3  S1  UNL     1      51.506  24.577  39.412  1.00  0.00    -0.049 SA
ENDROOT
BRANCH   3   4
HETATM    4  C2  UNL     1      50.117  25.602  38.814  1.00  0.00     0.120 C
BRANCH   4   5
HETATM    5  C3  UNL     1      48.820  25.150  39.483  1.00  0.00     0.283 C
BRANCH   5   6
HETATM    6  N2  UNL     1      48.219  26.171  40.285  1.00  0.00     0.089 N
HETATM    7  C4  UNL     1      48.923  26.193  41.564  1.00  0.00     0.272 C
HETATM    8  C5  UNL     1      47.994  26.526  42.706  1.00  0.00     0.030 C
HETATM    9  C6  UNL     1      47.114  27.674  42.230  1.00  0.00     0.003 C
HETATM   10  C7  UNL     1      46.158  27.077  41.201  1.00  0.00     0.030 C
HETATM   11  C8  UNL     1      46.812  25.902  40.494  1.00  0.00     0.272 C
ENDBRANCH   5   6
ENDBRANCH   4   5
ENDBRANCH   3   4
TORSDOF 3
ENDMDL