MODEL 1
REMARK VINA RESULT: -5.438648724      0.000      0.000
REMARK  3 active torsions:
REMARK  status: ('A' for Active; 'I' for Inactive)
REMARK    1  A    between atoms: C1_2  and  C2_4
REMARK    2  A    between atoms: C2_4  and  S1_5
REMARK    3  A    between atoms: S1_5  and  C3_6
ROOT
HETATM    1  C3  UNL     1      47.171  26.737  41.064  1.00  0.00     0.048 C
HETATM    2  C4  UNL     1      45.691  26.730  40.896  1.00  0.00     0.015 C
HETATM    3  C5  UNL     1      45.316  27.704  42.017  1.00  0.00     0.001 C
HETATM    4  C6  UNL     1      46.144  27.151  43.161  1.00  0.00     0.001 C
HETATM    5  C7  UNL     1      47.383  26.519  42.545  1.00  0.00     0.015 C
ENDROOT
BRANCH   1   6
HETATM    6  S1  UNL     1      48.149  25.802  39.981  1.00  0.00    -0.154 SA
BRANCH   6   7
HETATM    7  C2  UNL     1      47.650  24.147  39.561  1.00  0.00     0.187 C
BRANCH   7   8
HETATM    8  C1  UNL     1      48.113  23.160  40.571  1.00  0.00     0.182 C
HETATM    9  O1  UNL     1      47.504  22.072  40.792  1.00  0.00    -0.647 OA
HETATM   10  O2  UNL     1      49.234  23.429  41.307  1.00  0.00    -0.647 OA
ENDBRANCH   7   8
ENDBRANCH   6   7
ENDBRANCH   1   6
TORSDOF 3
ENDMDL