MODEL 3
REMARK VINA RESULT: -5.016874947      3.185      5.682
REMARK  4 active torsions:
REMARK  status: ('A' for Active; 'I' for Inactive)
REMARK    1  A    between atoms: C2_2  and  C3_3
REMARK    2  A    between atoms: C3_3  and  C4_4
REMARK    3  A    between atoms: C5_6  and  N1_7
REMARK    4  A    between atoms: N1_7  and  O1_8
ROOT
HETATM    1  N1  UNL     1      48.644  23.682  40.586  1.00  0.00    -0.179 N
HETATM    2  C6  UNL     1      48.437  25.004  40.133  1.00  0.00     0.206 C
HETATM    3  N2  UNL     1      48.276  26.097  39.778  1.00  0.00    -0.170 NA
ENDROOT
BRANCH   1   4
HETATM    4  C5  UNL     1      49.904  23.001  40.479  1.00  0.00     0.201 A
HETATM    5  C4  UNL     1      51.176  23.765  40.272  1.00  0.00     0.089 A
HETATM    6  S1  UNL     1      50.938  23.161  41.985  1.00  0.00    -0.131 SA
BRANCH   5   7
HETATM    7  C3  UNL     1      52.338  23.082  39.582  1.00  0.00     0.044 C
BRANCH   7   8
HETATM    8  C2  UNL     1      53.121  23.972  38.727  1.00  0.00    -0.036 C
HETATM    9  C1  UNL     1      52.885  24.040  37.428  1.00  0.00     0.007 C
ENDBRANCH   7   8
ENDBRANCH   5   7
ENDBRANCH   1   4
BRANCH   1  10
HETATM   10  O1  UNL     1      47.637  23.123  41.099  1.00  0.00    -0.277 OA
ATOM     11  H1  UNL     1      47.262  22.337  40.719  1.00  0.00     0.245 HD
ENDBRANCH   1  10
TORSDOF 4
ENDMDL