MODEL 4
REMARK VINA RESULT: -5.266693853      1.017      1.492
REMARK  3 active torsions:
REMARK  status: ('A' for Active; 'I' for Inactive)
REMARK    1  A    between atoms: N1_2  and  C1_4
REMARK    2  A    between atoms: C1_4  and  C2_5
REMARK    3  A    between atoms: C2_5  and  C3_6
ROOT
HETATM    1  C1  UNL     1      49.298  24.179  40.489  1.00  0.00     0.099 A
HETATM    2  C5  UNL     1      48.515  25.226  39.784  1.00  0.00     0.037 A
HETATM    3  C6  UNL     1      49.700  25.504  38.895  1.00  0.00     0.005 A
HETATM    4  C7  UNL     1      50.535  24.536  39.698  1.00  0.00     0.037 A
ENDROOT
BRANCH   1   5
HETATM    5  N1  UNL     1      49.418  24.452  41.899  1.00  0.00    -0.145 N
HETATM    6  O1  UNL     1      50.183  23.772  42.590  1.00  0.00    -0.536 OA
HETATM    7  O2  UNL     1      48.675  25.466  42.431  1.00  0.00    -0.536 OA
ENDBRANCH   1   5
BRANCH   1   8
HETATM    8  C2  UNL     1      48.850  22.752  40.288  1.00  0.00     0.071 C
BRANCH   8   9
HETATM    9  C3  UNL     1      47.394  22.549  40.612  1.00  0.00     0.147 A
HETATM   10  C4  UNL     1      46.810  21.252  40.143  1.00  0.00     0.200 A
HETATM   11  O3  UNL     1      47.051  21.608  41.572  1.00  0.00    -0.381 OA
ENDBRANCH   8   9
ENDBRANCH   1   8
TORSDOF 3
ENDMDL