MODEL 3
REMARK VINA RESULT: -5.123402428      0.645      1.650
REMARK  4 active torsions:
REMARK  status: ('A' for Active; 'I' for Inactive)
REMARK    1  A    between atoms: C2_2  and  S1_3
REMARK    2  A    between atoms: S1_3  and  C3_4
REMARK    3  A    between atoms: N1_7  and  N2_8
REMARK    4  A    between atoms: N2_8  and  O1_10
ROOT
HETATM    1  C3  UNL     1      49.040  24.376  40.217  1.00  0.00     0.055 C
HETATM    2  C4  UNL     1      49.536  25.235  39.102  1.00  0.00     0.037 C
HETATM    3  C5  UNL     1      51.030  25.473  39.155  1.00  0.00     0.145 C
HETATM    4  N1  UNL     1      51.764  24.237  39.337  1.00  0.00    -0.309 N
HETATM    5  C6  UNL     1      51.134  23.150  40.093  1.00  0.00     0.145 C
HETATM    6  C7  UNL     1      50.187  23.825  41.066  1.00  0.00     0.037 C
ENDROOT
BRANCH   4   7
HETATM    7  N2  UNL     1      53.045  24.083  38.802  1.00  0.00    -0.212 N
ATOM      8  H2  UNL     1      53.868  24.025  39.402  1.00  0.00     0.215 HD
BRANCH   7   9
HETATM    9  O1  UNL     1      53.139  24.018  37.552  1.00  0.00    -0.275 OA
ATOM     10  H1  UNL     1      53.844  23.488  37.198  1.00  0.00     0.246 HD
ENDBRANCH   7   9
ENDBRANCH   4   7
BRANCH   1  11
HETATM   11  S1  UNL     1      47.793  25.160  41.257  1.00  0.00    -0.137 SA
BRANCH  11  12
HETATM   12  C2  UNL     1      48.534  26.146  42.540  1.00  0.00     0.035 C
HETATM   13  C1  UNL     1      48.439  27.466  42.478  1.00  0.00     0.018 C
ENDBRANCH  11  12
ENDBRANCH   1  11
TORSDOF 4
ENDMDL