MODEL 1
REMARK VINA RESULT: -6.583465785      0.000      0.000
REMARK  2 active torsions:
REMARK  status: ('A' for Active; 'I' for Inactive)
REMARK    1  A    between atoms: C2_3  and  C3_4
REMARK    2  A    between atoms: C2_3  and  N2_10
ROOT
HETATM    1  N1  UNL     1      50.033  25.702  38.639  1.00  0.00    -0.195 NA
HETATM    2  C1  UNL     1      49.230  25.123  39.234  1.00  0.00     0.091 C
HETATM    3  C2  UNL     1      48.198  24.397  39.975  1.00  0.00     0.266 C
ENDROOT
BRANCH   3   4
HETATM    4  C3  UNL     1      47.643  25.292  41.046  1.00  0.00     0.028 C
HETATM    5  C4  UNL     1      46.742  26.362  40.520  1.00  0.00     0.008 C
HETATM    6  C5  UNL     1      46.779  27.521  41.496  1.00  0.00     0.000 C
HETATM    7  C6  UNL     1      47.022  27.033  42.917  1.00  0.00     0.000 C
HETATM    8  C7  UNL     1      48.393  26.465  43.098  1.00  0.00     0.000 C
HETATM    9  C8  UNL     1      48.846  25.917  41.761  1.00  0.00     0.008 C
ENDBRANCH   3   4
BRANCH   3  10
HETATM   10  N2  UNL     1      48.785  23.190  40.478  1.00  0.00    -0.136 N
HETATM   11  O1  UNL     1      50.003  22.931  40.511  1.00  0.00    -0.535 OA
HETATM   12  O2  UNL     1      47.933  22.230  40.967  1.00  0.00    -0.535 OA
ENDBRANCH   3  10
TORSDOF 2
ENDMDL