MODEL 3
REMARK VINA RESULT: -5.201757884      3.118      3.598
REMARK  2 active torsions:
REMARK  status: ('A' for Active; 'I' for Inactive)
REMARK    1  A    between atoms: C4_5  and  C5_6
REMARK    2  A    between atoms: C5_6  and  C6_7
ROOT
HETATM    1  C6  UNL     1      52.122  22.889  39.380  1.00  0.00     0.125 C
HETATM    2  C7  UNL     1      52.566  23.502  38.104  1.00  0.00     0.059 C
HETATM    3  N1  UNL     1      52.913  23.997  37.117  1.00  0.00    -0.197 NA
ENDROOT
BRANCH   1   4
HETATM    4  C5  UNL     1      51.766  23.991  40.302  1.00  0.00     0.031 C
BRANCH   4   5
HETATM    5  C4  UNL     1      50.526  23.785  41.098  1.00  0.00     0.074 C
HETATM    6  C3  UNL     1      49.693  22.632  40.568  1.00  0.00     0.184 C
HETATM    7  O1  UNL     1      48.444  22.733  41.150  1.00  0.00    -0.375 OA
HETATM    8  C2  UNL     1      47.865  23.917  40.716  1.00  0.00     0.179 C
HETATM    9  C1  UNL     1      47.256  23.843  39.364  1.00  0.00     0.051 C
HETATM   10  S1  UNL     1      49.276  25.096  40.775  1.00  0.00    -0.131 SA
ENDBRANCH   4   5
ENDBRANCH   1   4
TORSDOF 2
ENDMDL