MODEL 3
REMARK VINA RESULT: -4.801561536      1.917      3.550
REMARK  2 active torsions:
REMARK  status: ('A' for Active; 'I' for Inactive)
REMARK    1  A    between atoms: N1_8  and  N2_9
REMARK    2  A    between atoms: N2_9  and  O1_11
ROOT
HETATM    1  C1  UNL     1      52.728  23.487  37.554  1.00  0.00     0.015 C
HETATM    2  C2  UNL     1      52.313  23.887  38.613  1.00  0.00    -0.080 C
HETATM    3  C3  UNL     1      51.801  24.395  39.892  1.00  0.00     0.243 C
HETATM    4  S1  UNL     1      50.277  25.367  39.573  1.00  0.00    -0.130 SA
HETATM    5  C4  UNL     1      48.935  24.114  39.551  1.00  0.00     0.079 C
HETATM    6  C5  UNL     1      48.929  23.463  40.904  1.00  0.00     0.032 C
HETATM    7  C6  UNL     1      50.258  23.464  41.585  1.00  0.00     0.148 C
HETATM    8  N1  UNL     1      51.371  23.252  40.678  1.00  0.00    -0.282 N
ENDROOT
BRANCH   8   9
HETATM    9  N2  UNL     1      51.941  22.001  40.619  1.00  0.00    -0.210 N
ATOM     10  H2  UNL     1      52.169  21.611  39.705  1.00  0.00     0.215 HD
BRANCH   9  11
HETATM   11  O1  UNL     1      52.192  21.317  41.645  1.00  0.00    -0.275 OA
ATOM     12  H1  UNL     1      51.527  20.822  42.109  1.00  0.00     0.246 HD
ENDBRANCH   9  11
ENDBRANCH   8   9
TORSDOF 2
ENDMDL