MODEL 2
REMARK VINA RESULT: -4.907549774      2.335      3.471
REMARK  2 active torsions:
REMARK  status: ('A' for Active; 'I' for Inactive)
REMARK    1  A    between atoms: S1_3  and  C2_4
REMARK    2  A    between atoms: C2_4  and  C3_5
ROOT
HETATM    1  N1  UNL     1      50.815  25.570  38.361  1.00  0.00    -0.184 NA
HETATM    2  C1  UNL     1      49.820  25.263  38.893  1.00  0.00     0.133 C
HETATM    3  S1  UNL     1      48.315  24.765  39.705  1.00  0.00    -0.048 SA
ENDROOT
BRANCH   3   4
HETATM    4  C2  UNL     1      48.681  23.115  40.408  1.00  0.00     0.122 C
BRANCH   4   5
HETATM    5  C3  UNL     1      50.066  23.104  40.994  1.00  0.00     0.131 C
HETATM    6  C4  UNL     1      50.847  21.990  40.317  1.00  0.00     0.035 C
HETATM    7  C5  UNL     1      51.813  21.651  41.460  1.00  0.00     0.029 C
HETATM    8  C6  UNL     1      50.796  21.713  42.609  1.00  0.00     0.168 C
HETATM    9  O1  UNL     1      50.094  22.855  42.352  1.00  0.00    -0.385 OA
ENDBRANCH   4   5
ENDBRANCH   3   4
TORSDOF 2
ENDMDL