MODEL 5
REMARK VINA RESULT: -5.618822895      3.914      5.224
REMARK  2 active torsions:
REMARK  status: ('A' for Active; 'I' for Inactive)
REMARK    1  A    between atoms: C1_4  and  C2_5
REMARK    2  A    between atoms: C2_5  and  C3_6
ROOT
HETATM    1  C3  UNL     1      51.657  23.500  40.540  1.00  0.00    -0.001 C
HETATM    2  C4  UNL     1      51.591  22.290  41.444  1.00  0.00     0.040 C
HETATM    3  C5  UNL     1      50.131  22.344  41.913  1.00  0.00     0.161 C
HETATM    4  C6  UNL     1      49.458  22.534  40.545  1.00  0.00     0.042 C
HETATM    5  C7  UNL     1      50.235  23.774  40.081  1.00  0.00     0.019 C
HETATM    6  C8  UNL     1      49.718  24.917  40.944  1.00  0.00     0.215 C
HETATM    7  O1  UNL     1      49.047  24.315  42.023  1.00  0.00    -0.240 OA
HETATM    8  O2  UNL     1      49.896  23.506  42.623  1.00  0.00    -0.236 OA
ENDROOT
BRANCH   1   9
HETATM    9  C2  UNL     1      52.470  23.189  39.297  1.00  0.00     0.049 C
BRANCH   9  10
HETATM   10  C1  UNL     1      52.254  24.187  38.233  1.00  0.00     0.053 C
HETATM   11  N1  UNL     1      52.837  24.092  37.097  1.00  0.00    -0.411 N
ATOM     12  H12 UNL     1      53.462  23.300  36.940  1.00  0.00     0.155 HD
ATOM     13  H11 UNL     1      52.687  24.782  36.361  1.00  0.00     0.155 HD
ENDBRANCH   9  10
ENDBRANCH   1   9
TORSDOF 2
ENDMDL