MODEL 4
REMARK VINA RESULT: -5.803560904      2.097      4.447
REMARK  2 active torsions:
REMARK  status: ('A' for Active; 'I' for Inactive)
REMARK    1  A    between atoms: C2_3  and  C5_8
REMARK    2  A    between atoms: C5_8  and  C6_9
ROOT
HETATM    1  N1  UNL     1      48.717  25.497  42.610  1.00  0.00    -0.194 NA
HETATM    2  C1  UNL     1      48.968  24.843  41.683  1.00  0.00     0.100 C
HETATM    3  C2  UNL     1      49.251  24.041  40.513  1.00  0.00     0.225 C
HETATM    4  C3  UNL     1      50.055  24.821  39.526  1.00  0.00     0.100 C
HETATM    5  N2  UNL     1      50.662  25.437  38.759  1.00  0.00    -0.194 NA
HETATM    6  C4  UNL     1      47.930  23.786  39.872  1.00  0.00     0.100 C
HETATM    7  N3  UNL     1      46.904  23.584  39.378  1.00  0.00    -0.194 NA
ENDROOT
BRANCH   3   8
HETATM    8  C5  UNL     1      49.996  22.786  40.734  1.00  0.00     0.060 C
BRANCH   8   9
HETATM    9  C6  UNL     1      50.960  22.704  41.844  1.00  0.00    -0.011 A
HETATM   10  C7  UNL     1      51.006  21.715  42.910  1.00  0.00     0.005 A
HETATM   11  C8  UNL     1      51.971  21.544  41.731  1.00  0.00     0.005 A
ENDBRANCH   8   9
ENDBRANCH   3   8
TORSDOF 2
ENDMDL