MODEL 2
REMARK VINA RESULT: -4.495886805      0.773      1.069
REMARK  2 active torsions:
REMARK  status: ('A' for Active; 'I' for Inactive)
REMARK    1  A    between atoms: C3_3  and  C4_4
REMARK    2  A    between atoms: C4_4  and  N1_5
ROOT
HETATM    1  N1  UNL     1      48.896  24.169  41.270  1.00  0.00    -0.239 NA
HETATM    2  C5  UNL     1      48.714  25.428  41.924  1.00  0.00     0.190 C
HETATM    3  S1  UNL     1      47.036  25.585  41.219  1.00  0.00    -0.066 SA
HETATM    4  S2  UNL     1      48.408  24.924  39.749  1.00  0.00    -0.006 SA
ENDROOT
BRANCH   1   5
HETATM    5  C4  UNL     1      50.267  23.707  41.166  1.00  0.00     0.109 C
BRANCH   5   6
HETATM    6  C3  UNL     1      50.366  22.272  41.643  1.00  0.00    -0.001 A
HETATM    7  C1  UNL     1      51.735  21.696  41.665  1.00  0.00     0.006 A
HETATM    8  C2  UNL     1      51.009  21.984  42.949  1.00  0.00     0.006 A
ENDBRANCH   5   6
ENDBRANCH   1   5
TORSDOF 2
ENDMDL