MODEL 5
REMARK VINA RESULT: -4.771409315      2.657      3.380
REMARK  2 active torsions:
REMARK  status: ('A' for Active; 'I' for Inactive)
REMARK    1  A    between atoms: N1_2  and  C1_4
REMARK    2  A    between atoms: C1_4  and  C2_5
ROOT
HETATM    1  C2  UNL     1      50.116  23.983  41.286  1.00  0.00     0.071 C
HETATM    2  C3  UNL     1      50.410  23.194  42.507  1.00  0.00     0.017 C
HETATM    3  C4  UNL     1      50.812  21.774  42.274  1.00  0.00     0.002 C
HETATM    4  C5  UNL     1      51.970  21.586  41.366  1.00  0.00     0.010 C
HETATM    5  C6  UNL     1      51.587  21.945  39.939  1.00  0.00     0.074 C
HETATM    6  S1  UNL     1      51.353  23.750  39.975  1.00  0.00    -0.162 SA
ENDROOT
BRANCH   1   7
HETATM    7  C1  UNL     1      48.756  23.687  40.693  1.00  0.00     0.216 C
BRANCH   7   8
HETATM    8  N1  UNL     1      47.884  24.845  40.750  1.00  0.00    -0.155 N
HETATM    9  O1  UNL     1      47.079  24.904  41.697  1.00  0.00    -0.536 OA
HETATM   10  O2  UNL     1      48.008  25.779  39.769  1.00  0.00    -0.536 OA
ENDBRANCH   7   8
ENDBRANCH   1   7
TORSDOF 2
ENDMDL