MODEL 3
REMARK VINA RESULT: -6.140538777      1.371      1.784
REMARK  2 active torsions:
REMARK  status: ('A' for Active; 'I' for Inactive)
REMARK    1  A    between atoms: C1_2  and  C2_4
REMARK    2  A    between atoms: C2_4  and  C3_5
ROOT
HETATM    1  C3  UNL     1      51.249  23.259  40.971  1.00  0.00     0.016 C
HETATM    2  C4  UNL     1      50.117  23.562  40.358  1.00  0.00     0.043 C
HETATM    3  C5  UNL     1      49.943  24.851  39.640  1.00  0.00     0.064 C
HETATM    4  C6  UNL     1      48.604  25.418  40.094  1.00  0.00     0.008 C
HETATM    5  C7  UNL     1      47.546  24.447  39.575  1.00  0.00     0.027 C
HETATM    6  C8  UNL     1      47.716  23.118  40.227  1.00  0.00     0.175 C
HETATM    7  O3  UNL     1      49.037  22.691  40.357  1.00  0.00    -0.356 OA
ENDROOT
BRANCH   1   8
HETATM    8  C2  UNL     1      51.371  21.967  41.671  1.00  0.00     0.142 C
BRANCH   8   9
HETATM    9  C1  UNL     1      51.116  22.113  43.119  1.00  0.00     0.176 C
HETATM   10  O1  UNL     1      51.671  21.305  43.909  1.00  0.00    -0.648 OA
HETATM   11  O2  UNL     1      50.309  23.083  43.645  1.00  0.00    -0.648 OA
ENDBRANCH   8   9
ENDBRANCH   1   8
TORSDOF 2
ENDMDL