MODEL 4
REMARK VINA RESULT: -4.917492586      2.946      4.855
REMARK  2 active torsions:
REMARK  status: ('A' for Active; 'I' for Inactive)
REMARK    1  A    between atoms: N1_1  and  N2_4
REMARK    2  A    between atoms: N3_6  and  C1_8
ROOT
HETATM    1  C1  UNL     1      46.475  26.601  41.566  1.00  0.00     0.133 C
HETATM    2  C2  UNL     1      47.021  26.485  42.959  1.00  0.00     0.046 C
HETATM    3  C3  UNL     1      48.442  26.001  43.010  1.00  0.00     0.123 C
HETATM    4  N4  UNL     1      48.707  25.047  41.919  1.00  0.00    -0.196 NA
HETATM    5  C4  UNL     1      49.117  25.781  40.748  1.00  0.00     0.123 C
HETATM    6  C5  UNL     1      47.956  25.631  39.789  1.00  0.00     0.053 C
HETATM    7  C6  UNL     1      46.833  25.361  40.798  1.00  0.00     0.171 C
HETATM    8  O1  UNL     1      47.526  24.467  41.649  1.00  0.00    -0.296 OA
ENDROOT
BRANCH   1   9
HETATM    9  N3  UNL     1      46.834  27.820  40.903  1.00  0.00    -0.315 N
HETATM   10  N2  UNL     1      46.056  28.789  41.019  1.00  0.00    -0.253 N
ATOM     11  H2  UNL     1      46.068  28.946  42.027  1.00  0.00     0.207 HD
ATOM     12  H3  UNL     1      47.693  27.892  40.356  1.00  0.00     0.182 HD
BRANCH  10  13
HETATM   13  N1  UNL     1      45.282  29.667  40.634  1.00  0.00    -0.331 N
ATOM     14  H12 UNL     1      45.474  30.375  41.343  1.00  0.00     0.178 HD
ATOM     15  H11 UNL     1      44.575  30.091  40.034  1.00  0.00     0.178 HD
ENDBRANCH  10  13
ENDBRANCH   1   9
TORSDOF 2
ENDMDL