MODEL 1
REMARK VINA RESULT: -5.414180599      0.000      0.000
REMARK  2 active torsions:
REMARK  status: ('A' for Active; 'I' for Inactive)
REMARK    1  A    between atoms: C2_3  and  C3_4
REMARK    2  A    between atoms: C3_4  and  C4_5
ROOT
HETATM    1  N1  UNL     1      50.516  22.643  44.099  1.00  0.00    -0.197 NA
HETATM    2  C1  UNL     1      51.072  22.142  43.207  1.00  0.00     0.059 C
HETATM    3  C2  UNL     1      51.766  21.544  42.091  1.00  0.00     0.127 C
ENDROOT
BRANCH   3   4
HETATM    4  C3  UNL     1      51.139  21.846  40.759  1.00  0.00     0.057 C
BRANCH   4   5
HETATM    5  C4  UNL     1      50.811  23.284  40.556  1.00  0.00     0.183 C
HETATM    6  O1  UNL     1      51.402  23.698  39.362  1.00  0.00    -0.376 OA
HETATM    7  C5  UNL     1      51.307  25.044  39.153  1.00  0.00     0.170 C
HETATM    8  C6  UNL     1      49.972  25.502  38.634  1.00  0.00     0.036 C
HETATM    9  C7  UNL     1      48.824  25.155  39.514  1.00  0.00     0.078 C
HETATM   10  S1  UNL     1      49.037  23.588  40.393  1.00  0.00    -0.137 SA
ENDBRANCH   4   5
ENDBRANCH   3   4
TORSDOF 2
ENDMDL