MODEL 5
REMARK VINA RESULT: -7.328605098      2.855      6.824
REMARK  3 active torsions:
REMARK  status: ('A' for Active; 'I' for Inactive)
REMARK       I    between atoms: N2_6  and  C4_8
REMARK    1  A    between atoms: C4_8  and  C5_10
REMARK    2  A    between atoms: C5_10  and  N3_11
REMARK    3  A    between atoms: C7_14  and  C8_15
ROOT
HETATM    1  C1  UNL     1      25.192  -6.967  21.916  1.00  0.00     0.071 C
HETATM    2  C2  UNL     1      26.232  -6.065  22.475  1.00  0.00     0.045 A
HETATM    3  N1  UNL     1      26.057  -4.934  23.183  1.00  0.00    -0.194 N
ATOM      4  H1  UNL     1      25.149  -4.540  23.434  1.00  0.00     0.184 HD
HETATM    5  C3  UNL     1      27.236  -4.397  23.513  1.00  0.00     0.685 A
HETATM    6  N2  UNL     1      27.417  -3.316  24.187  1.00  0.00    -0.158 N
ATOM      7  H2  UNL     1      28.372  -3.008  24.374  1.00  0.00     0.187 HD
HETATM    8  C4  UNL     1      26.339  -2.535  24.682  1.00  0.00     0.254 C
HETATM    9  O1  UNL     1      26.016  -1.493  24.065  1.00  0.00    -0.271 OA
HETATM   10  N4  UNL     1      28.177  -5.205  23.001  1.00  0.00    -0.194 N
ATOM     11  H4  UNL     1      29.183  -5.059  23.085  1.00  0.00     0.184 HD
HETATM   12  C12 UNL     1      27.592  -6.242  22.357  1.00  0.00     0.045 A
HETATM   13  C13 UNL     1      28.268  -7.377  21.641  1.00  0.00     0.071 C
ENDROOT
BRANCH   8  14
HETATM   14  C5  UNL     1      25.595  -2.908  25.887  1.00  0.00     0.238 C
BRANCH  14  15
HETATM   15  N3  UNL     1      24.160  -2.840  25.729  1.00  0.00    -0.278 N
HETATM   16  C6  UNL     1      23.172  -3.461  24.936  1.00  0.00     0.240 C
HETATM   17  O2  UNL     1      23.196  -4.072  23.848  1.00  0.00    -0.272 OA
HETATM   18  C7  UNL     1      22.153  -3.085  25.920  1.00  0.00     0.174 C
HETATM   19  C11 UNL     1      23.139  -2.067  26.339  1.00  0.00     0.240 C
HETATM   20  O3  UNL     1      23.108  -0.983  26.964  1.00  0.00    -0.272 OA
BRANCH  18  21
HETATM   21  C8  UNL     1      20.865  -2.540  25.360  1.00  0.00    -0.001 C
HETATM   22  C9  UNL     1      19.975  -2.128  26.525  1.00  0.00     0.011 C
HETATM   23  C10 UNL     1      20.129  -3.506  24.492  1.00  0.00     0.011 C
ENDBRANCH  18  21
ENDBRANCH  14  15
ENDBRANCH   8  14
TORSDOF 3
ENDMDL