MODEL 4
REMARK VINA RESULT: -7.541542268      4.482      7.324
REMARK  4 active torsions:
REMARK  status: ('A' for Active; 'I' for Inactive)
REMARK    1  A    between atoms: N1_2  and  S1_4
REMARK    2  A    between atoms: S1_4  and  N2_7
REMARK    3  A    between atoms: N2_7  and  C2_9
REMARK    4  A    between atoms: C4_13  and  C5_14
ROOT
HETATM    1  C2  UNL     1      28.779  -4.656  22.924  1.00  0.00     0.239 A
HETATM    2  N3  UNL     1      29.175  -3.571  23.588  1.00  0.00    -0.329 N
ATOM      3  H3  UNL     1      30.131  -3.245  23.729  1.00  0.00     0.168 HD
HETATM    4  C3  UNL     1      28.027  -2.989  24.038  1.00  0.00     0.130 A
HETATM    5  C4  UNL     1      26.952  -3.705  23.655  1.00  0.00     0.106 A
HETATM    6  O3  UNL     1      27.484  -4.736  22.962  1.00  0.00    -0.277 OA
ENDROOT
BRANCH   5   7
HETATM    7  C5  UNL     1      25.517  -3.591  23.831  1.00  0.00     0.021 A
HETATM    8  C6  UNL     1      24.689  -4.636  23.403  1.00  0.00     0.105 A
HETATM    9  N4  UNL     1      23.356  -4.618  23.510  1.00  0.00    -0.364 N
HETATM   10  C7  UNL     1      22.553  -5.760  23.038  1.00  0.00     0.155 C
HETATM   11  C8  UNL     1      22.764  -3.547  24.053  1.00  0.00     0.007 A
HETATM   12  C9  UNL     1      21.263  -3.567  24.155  1.00  0.00     0.068 C
HETATM   13  C10 UNL     1      23.485  -2.474  24.500  1.00  0.00     0.032 A
HETATM   14  C11 UNL     1      24.899  -2.524  24.372  1.00  0.00    -0.046 A
HETATM   15  C12 UNL     1      25.629  -1.336  24.841  1.00  0.00     0.049 C
ENDBRANCH   5   7
BRANCH   1  16
HETATM   16  N2  UNL     1      29.561  -5.498  22.333  1.00  0.00    -0.232 N
ATOM     17  H2  UNL     1      30.559  -5.300  22.255  1.00  0.00     0.184 HD
BRANCH  16  18
HETATM   18  S1  UNL     1      28.916  -6.958  21.675  1.00  0.00     0.321 S
HETATM   19  O1  UNL     1      28.159  -6.640  20.403  1.00  0.00    -0.182 OA
HETATM   20  O2  UNL     1      30.022  -7.898  21.301  1.00  0.00    -0.182 OA
BRANCH  18  21
HETATM   21  N1  UNL     1      27.871  -7.736  22.776  1.00  0.00    -0.307 N
HETATM   22  C1  UNL     1      26.583  -8.065  22.220  1.00  0.00     0.161 C
ATOM     23  H1  UNL     1      28.134  -7.949  23.738  1.00  0.00     0.173 HD
ENDBRANCH  18  21
ENDBRANCH  16  18
ENDBRANCH   1  16
TORSDOF 4
ENDMDL