MODEL 3
REMARK VINA RESULT: -6.672370559      5.548      7.436
REMARK  4 active torsions:
REMARK  status: ('A' for Active; 'I' for Inactive)
REMARK    1  A    between atoms: C3_3  and  N1_4
REMARK    2  A    between atoms: N3_9  and  C6_11
REMARK    3  A    between atoms: C8_13  and  S1_14
REMARK    4  A    between atoms: S1_14  and  N4_15
ROOT
HETATM    1  C1  UNL     1      26.676  -2.550  24.092  1.00  0.00     0.014 C
HETATM    2  C2  UNL     1      25.570  -3.033  24.091  1.00  0.00    -0.098 C
HETATM    3  C3  UNL     1      24.207  -3.619  24.101  1.00  0.00     0.218 C
ENDROOT
BRANCH   3   4
HETATM    4  N1  UNL     1      23.284  -2.554  24.438  1.00  0.00    -0.352 N
HETATM    5  C4  UNL     1      21.886  -2.531  24.174  1.00  0.00     0.112 A
HETATM    6  N2  UNL     1      21.020  -3.512  23.859  1.00  0.00    -0.327 N
HETATM    7  C10 UNL     1      21.395  -1.251  24.271  1.00  0.00    -0.011 A
HETATM    8  C5  UNL     1      19.713  -3.278  23.642  1.00  0.00     0.126 A
ATOM      9  H2  UNL     1      21.367  -4.467  23.783  1.00  0.00     0.169 HD
HETATM   10  N3  UNL     1      18.910  -4.236  23.344  1.00  0.00    -0.375 N
HETATM   11  C8  UNL     1      19.229  -1.992  23.742  1.00  0.00     0.123 A
ATOM     12  H3  UNL     1      17.928  -4.003  23.189  1.00  0.00     0.161 HD
HETATM   13  C9  UNL     1      20.071  -0.931  24.064  1.00  0.00     0.040 A
HETATM   14  C11 UNL     1      22.527  -0.336  24.629  1.00  0.00     0.067 C
HETATM   15  C12 UNL     1      23.599  -1.298  25.112  1.00  0.00     0.087 C
HETATM   16  C13 UNL     1      23.454  -1.422  26.609  1.00  0.00     0.033 C
BRANCH  10  17
HETATM   17  C6  UNL     1      19.297  -5.608  23.214  1.00  0.00     0.116 C
HETATM   18  C7  UNL     1      18.145  -6.552  22.965  1.00  0.00     0.026 C
ENDBRANCH  10  17
BRANCH  11  19
HETATM   19  S1  UNL     1      17.539  -1.613  23.472  1.00  0.00     0.260 S
HETATM   20  O1  UNL     1      16.662  -2.372  24.435  1.00  0.00    -0.201 OA
HETATM   21  O2  UNL     1      17.114  -2.016  22.068  1.00  0.00    -0.201 OA
BRANCH  19  22
HETATM   22  N4  UNL     1      17.236   0.059  23.716  1.00  0.00    -0.324 N
ATOM     23  H42 UNL     1      17.967   0.770  23.730  1.00  0.00     0.169 HD
ATOM     24  H41 UNL     1      16.239   0.236  23.841  1.00  0.00     0.169 HD
ENDBRANCH  19  22
ENDBRANCH  11  19
ENDBRANCH   3   4
TORSDOF 4
ENDMDL