MODEL 4
REMARK VINA RESULT: -6.463249480      1.887      2.718
REMARK  4 active torsions:
REMARK  status: ('A' for Active; 'I' for Inactive)
REMARK    1  A    between atoms: N2_8  and  C5_9
REMARK    2  A    between atoms: C5_9  and  C6_10
REMARK    3  A    between atoms: C6_10  and  N3_11
REMARK    4  A    between atoms: N4_14  and  C9_15
ROOT
HETATM    1  N3  UNL     1      21.164  -2.151  24.478  1.00  0.00    -0.215 N
HETATM    2  C7  UNL     1      21.486  -0.791  24.095  1.00  0.00     0.161 C
HETATM    3  C8  UNL     1      22.774  -0.554  24.826  1.00  0.00     0.162 C
HETATM    4  N4  UNL     1      23.458  -1.827  24.773  1.00  0.00    -0.208 N
HETATM    5  C13 UNL     1      22.416  -2.814  24.612  1.00  0.00     0.672 C
HETATM    6  N5  UNL     1      22.567  -4.082  24.588  1.00  0.00    -0.235 N
ATOM      7  H51 UNL     1      23.465  -4.559  24.683  1.00  0.00     0.174 HD
ATOM      8  H52 UNL     1      21.832  -4.780  24.474  1.00  0.00     0.174 HD
ENDROOT
BRANCH   1   9
HETATM    9  C6  UNL     1      19.858  -2.736  24.685  1.00  0.00     0.161 C
BRANCH   9  10
HETATM   10  C5  UNL     1      19.378  -3.481  23.434  1.00  0.00     0.157 C
BRANCH  10  11
HETATM   11  N2  UNL     1      18.405  -2.580  22.811  1.00  0.00    -0.266 N
HETATM   12  C4  UNL     1      18.675  -1.779  21.674  1.00  0.00     0.326 C
HETATM   13  N1  UNL     1      17.502  -1.056  21.361  1.00  0.00    -0.325 N
HETATM   14  O1  UNL     1      19.803  -1.742  21.060  1.00  0.00    -0.247 OA
HETATM   15  C2  UNL     1      16.567  -1.182  22.451  1.00  0.00     0.108 C
ATOM     16  H1  UNL     1      17.343  -0.529  20.501  1.00  0.00     0.165 HD
HETATM   17  C1  UNL     1      16.686   0.106  23.277  1.00  0.00     0.049 C
HETATM   18  C3  UNL     1      15.150  -1.366  21.962  1.00  0.00     0.049 C
HETATM   19  C14 UNL     1      17.065  -2.347  23.196  1.00  0.00     0.255 C
HETATM   20  O2  UNL     1      16.408  -3.015  24.031  1.00  0.00    -0.270 OA
ENDBRANCH  10  11
ENDBRANCH   9  10
ENDBRANCH   1   9
BRANCH   4  21
HETATM   21  C9  UNL     1      24.873  -2.056  24.863  1.00  0.00     0.039 C
HETATM   22  C10 UNL     1      25.385  -3.142  23.991  1.00  0.00     0.038 C
HETATM   23  C11 UNL     1      25.181  -2.417  26.312  1.00  0.00     0.038 C
HETATM   24  C12 UNL     1      25.623  -0.782  24.561  1.00  0.00     0.038 C
ENDBRANCH   4  21
TORSDOF 4
ENDMDL