MODEL 3
REMARK VINA RESULT: -6.837461410      0.652      1.398
REMARK  6 active torsions:
REMARK  status: ('A' for Active; 'I' for Inactive)
REMARK    1  A    between atoms: C2_2  and  C3_3
REMARK       I    between atoms: N2_8  and  C6_9
REMARK       I    between atoms: C6_9  and  N3_11
REMARK    2  A    between atoms: N3_11  and  C7_13
REMARK    3  A    between atoms: C7_13  and  C8_14
REMARK    4  A    between atoms: C9_15  and  C10_16
REMARK    5  A    between atoms: C10_16  and  N4_17
REMARK    6  A    between atoms: N4_17  and  C13_20
ROOT
HETATM    1  C3  UNL     1      27.696  -7.464  22.164  1.00  0.00     0.035 A
HETATM    2  C4  UNL     1      26.361  -7.225  21.889  1.00  0.00     0.034 A
HETATM    3  C5  UNL     1      25.449  -8.129  21.151  1.00  0.00     0.070 C
HETATM    4  N1  UNL     1      26.067  -6.030  22.416  1.00  0.00    -0.291 N
ATOM      5  H1  UNL     1      25.147  -5.590  22.368  1.00  0.00     0.187 HD
HETATM    6  N2  UNL     1      27.123  -5.492  23.009  1.00  0.00    -0.168 N
HETATM    7  C6  UNL     1      27.194  -4.235  23.679  1.00  0.00     0.345 C
HETATM    8  O1  UNL     1      28.251  -3.841  24.199  1.00  0.00    -0.245 OA
HETATM    9  N3  UNL     1      26.025  -3.443  23.736  1.00  0.00    -0.331 N
ATOM     10  H3  UNL     1      25.157  -3.765  23.308  1.00  0.00     0.165 HD
HETATM   11  C15 UNL     1      28.145  -6.367  22.864  1.00  0.00     0.278 A
HETATM   12  O2  UNL     1      29.298  -6.143  23.322  1.00  0.00    -0.265 OA
ENDROOT
BRANCH   9  13
HETATM   13  C7  UNL     1      26.087  -2.166  24.415  1.00  0.00     0.219 C
BRANCH  13  14
HETATM   14  C8  UNL     1      24.825  -1.884  25.085  1.00  0.00    -0.085 C
HETATM   15  C9  UNL     1      23.772  -1.652  25.670  1.00  0.00    -0.077 C
BRANCH  15  16
HETATM   16  C10 UNL     1      22.527  -1.387  26.392  1.00  0.00     0.330 C
BRANCH  16  17
HETATM   17  N4  UNL     1      21.461  -2.173  25.785  1.00  0.00    -0.065 N
HETATM   18  C11 UNL     1      20.340  -2.147  26.681  1.00  0.00     0.273 C
HETATM   19  C12 UNL     1      21.988  -3.547  25.725  1.00  0.00     0.273 C
BRANCH  17  20
HETATM   20  C13 UNL     1      21.148  -1.734  24.458  1.00  0.00     0.233 C
HETATM   21  C14 UNL     1      20.555  -0.343  24.400  1.00  0.00     0.035 C
ENDBRANCH  17  20
ENDBRANCH  16  17
ENDBRANCH  15  16
ENDBRANCH  13  14
ENDBRANCH   9  13
BRANCH   1  22
HETATM   22  C2  UNL     1      28.518  -8.632  21.810  1.00  0.00     0.042 C
HETATM   23  C1  UNL     1      29.132  -8.519  20.438  1.00  0.00     0.010 C
ENDBRANCH   1  22
TORSDOF 6
ENDMDL