MODEL 1
REMARK VINA RESULT: -7.499948720      0.000      0.000
REMARK  3 active torsions:
REMARK  status: ('A' for Active; 'I' for Inactive)
REMARK    1  A    between atoms: C2_2  and  C3_3
REMARK    2  A    between atoms: C3_3  and  C4_4
REMARK    3  A    between atoms: C3_3  and  N1_6
ROOT
HETATM    1  N1  UNL     1      25.724  -3.462  24.610  1.00  0.00     0.103 N
HETATM    2  C6  UNL     1      25.882  -2.084  24.214  1.00  0.00     0.375 C
HETATM    3  C7  UNL     1      24.681  -1.293  24.653  1.00  0.00     0.249 C
HETATM    4  O1  UNL     1      24.716  -0.051  24.800  1.00  0.00    -0.271 OA
HETATM    5  N2  UNL     1      23.505  -2.055  24.890  1.00  0.00    -0.338 N
HETATM    6  C8  UNL     1      22.576  -1.622  25.916  1.00  0.00     0.186 C
HETATM    7  C9  UNL     1      21.191  -1.887  25.412  1.00  0.00     0.067 A
HETATM    8  N3  UNL     1      20.027  -1.222  25.397  1.00  0.00    -0.192 N
ATOM      9  H3  UNL     1      19.859  -0.292  25.782  1.00  0.00     0.184 HD
HETATM   10  C10 UNL     1      19.107  -2.013  24.775  1.00  0.00     0.678 A
HETATM   11  N4  UNL     1      17.897  -1.641  24.613  1.00  0.00    -0.230 N
ATOM     12  H4  UNL     1      17.605  -0.726  24.957  1.00  0.00     0.177 HD
HETATM   13  C11 UNL     1      16.923  -2.497  23.945  1.00  0.00     0.165 C
HETATM   14  N5  UNL     1      19.699  -3.174  24.401  1.00  0.00    -0.194 N
ATOM     15  H5  UNL     1      19.252  -3.953  23.917  1.00  0.00     0.184 HD
HETATM   16  C12 UNL     1      20.989  -3.109  24.791  1.00  0.00     0.053 A
HETATM   17  C13 UNL     1      22.160  -4.012  24.699  1.00  0.00     0.087 C
HETATM   18  C14 UNL     1      23.306  -3.225  24.074  1.00  0.00     0.121 C
HETATM   19  C15 UNL     1      24.528  -4.067  24.082  1.00  0.00     0.299 C
ENDROOT
BRANCH   1  20
HETATM   20  C3  UNL     1      26.864  -4.207  24.054  1.00  0.00     0.223 C
BRANCH  20  21
HETATM   21  C2  UNL     1      26.437  -5.156  22.994  1.00  0.00     0.031 C
HETATM   22  C1  UNL     1      27.007  -6.525  23.025  1.00  0.00     0.007 C
ENDBRANCH  20  21
BRANCH  20  23
HETATM   23  C4  UNL     1      27.993  -3.320  23.695  1.00  0.00     0.031 C
HETATM   24  C5  UNL     1      29.288  -3.918  23.319  1.00  0.00     0.007 C
ENDBRANCH  20  23
ENDBRANCH   1  20
TORSDOF 3
ENDMDL