MODEL 2
REMARK VINA RESULT: -6.140342913      1.413      1.767
REMARK  3 active torsions:
REMARK  status: ('A' for Active; 'I' for Inactive)
REMARK    1  A    between atoms: C2_2  and  C3_3
REMARK    2  A    between atoms: C3_3  and  C4_4
REMARK    3  A    between atoms: C4_4  and  N1_5
ROOT
HETATM    1  N1  UNL     1      22.652  -3.768  24.755  1.00  0.00    -0.322 N
HETATM    2  C5  UNL     1      22.851  -4.818  23.807  1.00  0.00     0.325 C
HETATM    3  O1  UNL     1      23.846  -4.880  23.038  1.00  0.00    -0.247 OA
HETATM    4  N2  UNL     1      21.882  -5.878  23.701  1.00  0.00    -0.279 N
ATOM      5  H2  UNL     1      22.017  -6.631  23.026  1.00  0.00     0.173 HD
HETATM    6  C6  UNL     1      20.740  -5.868  24.537  1.00  0.00     0.228 C
HETATM    7  O2  UNL     1      19.790  -6.679  24.338  1.00  0.00    -0.273 OA
HETATM    8  C7  UNL     1      20.687  -4.883  25.651  1.00  0.00     0.136 C
HETATM    9  C8  UNL     1      21.275  -3.534  25.170  1.00  0.00     0.077 C
HETATM   10  C9  UNL     1      21.280  -2.612  26.364  1.00  0.00     0.036 C
HETATM   11  C10 UNL     1      19.866  -2.292  26.802  1.00  0.00     0.033 C
HETATM   12  C11 UNL     1      19.217  -1.639  25.599  1.00  0.00     0.273 C
HETATM   13  N3  UNL     1      19.114  -2.605  24.571  1.00  0.00     0.099 N
HETATM   14  C12 UNL     1      18.193  -2.316  23.530  1.00  0.00     0.300 C
HETATM   15  C13 UNL     1      18.771  -2.485  22.141  1.00  0.00     0.262 C
HETATM   16  N4  UNL     1      20.041  -1.843  21.993  1.00  0.00    -0.071 N
ATOM     17  H41 UNL     1      19.933  -0.830  21.931  1.00  0.00     0.277 HD
ATOM     18  H42 UNL     1      20.437  -2.024  21.070  1.00  0.00     0.277 HD
HETATM   19  C14 UNL     1      20.980  -2.201  23.040  1.00  0.00     0.270 C
HETATM   20  C15 UNL     1      20.366  -3.105  24.061  1.00  0.00     0.277 C
ENDROOT
BRANCH   1  21
HETATM   21  C4  UNL     1      23.805  -3.077  25.207  1.00  0.00     0.128 C
BRANCH  21  22
HETATM   22  C3  UNL     1      24.087  -1.757  24.534  1.00  0.00     0.020 C
BRANCH  22  23
HETATM   23  C2  UNL     1      25.582  -1.473  24.690  1.00  0.00    -0.003 C
HETATM   24  C1  UNL     1      26.298  -2.716  24.187  1.00  0.00     0.005 C
ENDBRANCH  22  23
ENDBRANCH  21  22
ENDBRANCH   1  21
TORSDOF 3
ENDMDL