MODEL 1
REMARK VINA RESULT: -6.967437015      0.000      0.000
REMARK  4 active torsions:
REMARK  status: ('A' for Active; 'I' for Inactive)
REMARK    1  A    between atoms: C6_8  and  N2_9
REMARK       I    between atoms: N2_9  and  C7_11
REMARK    2  A    between atoms: N4_13  and  S1_15
REMARK    3  A    between atoms: S1_15  and  C8_18
REMARK    4  A    between atoms: C8_18  and  C9_19
ROOT
HETATM    1  N2  UNL     1      20.156  -2.735  25.894  1.00  0.00    -0.163 N
ATOM      2  H2  UNL     1      20.048  -2.068  26.658  1.00  0.00     0.187 HD
HETATM    3  C7  UNL     1      20.945  -3.901  26.063  1.00  0.00     0.216 C
HETATM    4  N3  UNL     1      20.345  -5.169  26.367  1.00  0.00    -0.062 NA
HETATM    5  N4  UNL     1      22.222  -3.806  25.938  1.00  0.00    -0.257 N
ATOM      6  H4  UNL     1      22.800  -4.637  26.057  1.00  0.00     0.181 HD
ENDROOT
BRANCH   1   7
HETATM    7  C6  UNL     1      19.582  -2.535  24.767  1.00  0.00     0.685 A
HETATM    8  N1  UNL     1      19.894  -3.293  23.712  1.00  0.00    -0.196 N
HETATM    9  C4  UNL     1      19.336  -3.144  22.500  1.00  0.00     0.024 A
ATOM     10  H1  UNL     1      20.593  -4.025  23.834  1.00  0.00     0.184 HD
HETATM   11  C3  UNL     1      18.399  -2.170  22.320  1.00  0.00     0.050 A
HETATM   12  C5  UNL     1      19.757  -4.043  21.395  1.00  0.00     0.068 C
HETATM   13  C2  UNL     1      18.055  -1.364  23.405  1.00  0.00     0.024 A
HETATM   14  C1  UNL     1      17.030  -0.299  23.203  1.00  0.00     0.068 C
HETATM   15  N5  UNL     1      18.662  -1.580  24.586  1.00  0.00    -0.196 N
ATOM     16  H5  UNL     1      18.410  -0.991  25.379  1.00  0.00     0.184 HD
ENDBRANCH   1   7
BRANCH   5  17
HETATM   17  S1  UNL     1      22.972  -2.295  25.575  1.00  0.00     0.233 S
HETATM   18  O1  UNL     1      22.489  -1.775  24.286  1.00  0.00    -0.206 OA
HETATM   19  O2  UNL     1      22.537  -1.334  26.656  1.00  0.00    -0.206 OA
BRANCH  17  20
HETATM   20  C8  UNL     1      24.715  -2.520  25.661  1.00  0.00     0.167 C
BRANCH  20  21
HETATM   21  C9  UNL     1      25.447  -2.133  24.425  1.00  0.00    -0.007 C
HETATM   22  C10 UNL     1      26.627  -3.083  24.192  1.00  0.00     0.010 C
HETATM   23  C11 UNL     1      25.895  -0.713  24.376  1.00  0.00     0.010 C
ENDBRANCH  20  21
ENDBRANCH  17  20
ENDBRANCH   5  17
TORSDOF 4
ENDMDL