MODEL 3
REMARK VINA RESULT: -5.923424064      3.632      5.892
REMARK  4 active torsions:
REMARK  status: ('A' for Active; 'I' for Inactive)
REMARK       I    between atoms: C2_2  and  N1_4
REMARK    1  A    between atoms: N1_4  and  C4_6
REMARK    2  A    between atoms: C11_14  and  C12_15
REMARK    3  A    between atoms: N3_16  and  N4_18
REMARK    4  A    between atoms: N4_18  and  C13_20
ROOT
HETATM    1  C4  UNL     1      23.457  -3.332  24.105  1.00  0.00     0.071 A
HETATM    2  C5  UNL     1      24.491  -2.511  24.540  1.00  0.00    -0.031 A
HETATM    3  C6  UNL     1      24.218  -1.261  25.232  1.00  0.00     0.050 C
HETATM    4  C7  UNL     1      25.788  -2.899  24.305  1.00  0.00     0.033 A
HETATM    5  C8  UNL     1      26.006  -4.094  23.643  1.00  0.00     0.008 A
HETATM    6  C9  UNL     1      27.403  -4.526  23.383  1.00  0.00     0.068 C
HETATM    7  N2  UNL     1      25.000  -4.873  23.232  1.00  0.00    -0.352 N
HETATM    8  C10 UNL     1      25.271  -6.094  22.556  1.00  0.00     0.156 C
HETATM    9  C11 UNL     1      23.703  -4.504  23.455  1.00  0.00     0.079 A
ENDROOT
BRANCH   9  10
HETATM   10  C12 UNL     1      22.662  -5.360  23.003  1.00  0.00     0.139 C
HETATM   11  N3  UNL     1      21.919  -6.138  23.712  1.00  0.00    -0.308 N
ATOM     12  H3  UNL     1      22.064  -6.172  24.722  1.00  0.00     0.186 HD
BRANCH  11  13
HETATM   13  N4  UNL     1      20.934  -6.928  23.152  1.00  0.00    -0.279 N
ATOM     14  H4  UNL     1      21.186  -7.715  22.552  1.00  0.00     0.189 HD
BRANCH  13  15
HETATM   15  C13 UNL     1      19.575  -6.639  23.414  1.00  0.00     0.199 C
HETATM   16  N5  UNL     1      19.087  -5.343  23.717  1.00  0.00    -0.068 NA
HETATM   17  S1  UNL     1      18.487  -7.851  23.371  1.00  0.00    -0.043 SA
ENDBRANCH  13  15
ENDBRANCH  11  13
ENDBRANCH   9  10
BRANCH   1  18
HETATM   18  N1  UNL     1      22.156  -2.883  24.371  1.00  0.00    -0.320 N
HETATM   19  C2  UNL     1      21.510  -3.318  25.564  1.00  0.00     0.220 C
HETATM   20  C1  UNL     1      20.124  -2.873  25.908  1.00  0.00     0.117 C
HETATM   21  O1  UNL     1      22.095  -4.089  26.356  1.00  0.00    -0.274 OA
HETATM   22  C3  UNL     1      21.425  -1.971  23.505  1.00  0.00     0.159 C
ENDBRANCH   1  18
TORSDOF 4
ENDMDL