MODEL 1
REMARK VINA RESULT: -6.139691381      0.000      0.000
REMARK  5 active torsions:
REMARK  status: ('A' for Active; 'I' for Inactive)
REMARK    1  A    between atoms: C1_2  and  N1_3
REMARK    2  A    between atoms: C1_2  and  N4_15
REMARK    3  A    between atoms: N1_3  and  C2_5
REMARK    4  A    between atoms: C2_5  and  C3_6
REMARK    5  A    between atoms: C3_6  and  N2_7
ROOT
HETATM    1  N1  UNL     1      21.035  -1.059  23.274  1.00  0.00    -0.365 N
ATOM      2  H1  UNL     1      21.066  -0.071  23.022  1.00  0.00     0.161 HD
ENDROOT
BRANCH   1   3
HETATM    3  C1  UNL     1      21.590  -1.458  24.501  1.00  0.00     0.169 C
HETATM    4  S1  UNL     1      20.586  -1.501  25.815  1.00  0.00    -0.041 SA
BRANCH   3   5
HETATM    5  N4  UNL     1      22.949  -1.844  24.641  1.00  0.00    -0.358 N
HETATM    6  C8  UNL     1      23.984  -0.853  24.533  1.00  0.00     0.126 C
HETATM    7  C9  UNL     1      25.296  -1.407  25.044  1.00  0.00     0.029 C
HETATM    8  C10 UNL     1      25.674  -2.724  24.454  1.00  0.00    -0.037 A
HETATM    9  C11 UNL     1      24.483  -3.484  23.938  1.00  0.00     0.029 C
HETATM   10  C13 UNL     1      26.678  -3.554  25.184  1.00  0.00     0.010 A
HETATM   11  C14 UNL     1      27.015  -2.944  23.853  1.00  0.00     0.010 A
HETATM   12  C12 UNL     1      23.325  -3.207  24.890  1.00  0.00     0.126 C
ENDBRANCH   3   5
ENDBRANCH   1   3
BRANCH   1  13
HETATM   13  C2  UNL     1      20.428  -1.980  22.364  1.00  0.00     0.152 C
BRANCH  13  14
HETATM   14  C3  UNL     1      19.219  -1.461  21.650  1.00  0.00     0.292 C
BRANCH  14  15
HETATM   15  N2  UNL     1      18.123  -2.386  21.814  1.00  0.00     0.093 N
HETATM   16  C4  UNL     1      18.193  -2.914  23.180  1.00  0.00     0.300 C
HETATM   17  C5  UNL     1      17.246  -2.258  24.124  1.00  0.00     0.262 C
HETATM   18  N3  UNL     1      17.036  -0.876  23.828  1.00  0.00    -0.072 N
HETATM   19  C6  UNL     1      16.624  -0.623  22.458  1.00  0.00     0.262 C
ATOM     20  H32 UNL     1      16.371  -0.465  24.484  1.00  0.00     0.277 HD
ATOM     21  H31 UNL     1      17.865  -0.329  24.060  1.00  0.00     0.277 HD
HETATM   22  C7  UNL     1      16.815  -1.827  21.586  1.00  0.00     0.300 C
ENDBRANCH  14  15
ENDBRANCH  13  14
ENDBRANCH   1  13
TORSDOF 5
ENDMDL