MODEL 3
REMARK VINA RESULT: -9.212010910      3.034      8.414
REMARK  8 active torsions:
REMARK  status: ('A' for Active; 'I' for Inactive)
REMARK    1  A    between atoms: N1_1  and  C1_4
REMARK    2  A    between atoms: C6_17  and  C7_18
REMARK    3  A    between atoms: C7_18  and  N5_19
REMARK    4  A    between atoms: N5_19  and  C8_22
REMARK    5  A    between atoms: C8_22  and  C9_23
REMARK    6  A    between atoms: C9_23  and  N6_24
REMARK    7  A    between atoms: N6_24  and  S1_26
REMARK    8  A    between atoms: S1_26  and  C10_29
ROOT
HETATM    1  C1  UNL     1      13.252  29.644  23.326  1.00  0.00     0.677 A
HETATM    2  N2  UNL     1      12.248  29.471  22.446  1.00  0.00    -0.176 N
ATOM      3  H2  UNL     1      11.285  29.648  22.732  1.00  0.00     0.186 HD
HETATM    4  C2  UNL     1      12.506  29.066  21.196  1.00  0.00     0.142 A
HETATM    5  N3  UNL     1      11.494  28.759  20.371  1.00  0.00    -0.293 N
ATOM      6  H3  UNL     1      10.525  28.918  20.649  1.00  0.00     0.172 HD
HETATM    7  C3  UNL     1      11.794  28.227  19.147  1.00  0.00     0.328 A
HETATM    8  O1  UNL     1      10.834  27.948  18.388  1.00  0.00    -0.247 OA
HETATM    9  N4  UNL     1      13.025  28.003  18.751  1.00  0.00    -0.275 N
ATOM     10  H4  UNL     1      13.192  27.608  17.825  1.00  0.00     0.173 HD
HETATM   11  C4  UNL     1      14.090  28.293  19.564  1.00  0.00     0.265 A
HETATM   12  O2  UNL     1      15.238  28.082  19.155  1.00  0.00    -0.267 OA
HETATM   13  C5  UNL     1      13.837  28.836  20.832  1.00  0.00     0.102 A
HETATM   14  C6  UNL     1      14.865  29.010  21.724  1.00  0.00     0.071 A
HETATM   15  N7  UNL     1      14.506  29.412  22.932  1.00  0.00    -0.193 N
ATOM     16  H7  UNL     1      15.247  29.555  23.618  1.00  0.00     0.184 HD
ENDROOT
BRANCH  14  17
HETATM   17  C7  UNL     1      16.215  28.759  21.269  1.00  0.00     0.290 C
BRANCH  17  18
HETATM   18  N5  UNL     1      16.689  27.520  22.009  1.00  0.00    -0.068 N
ATOM     19  H52 UNL     1      16.794  27.663  23.013  1.00  0.00     0.277 HD
ATOM     20  H51 UNL     1      15.984  26.784  22.060  1.00  0.00     0.277 HD
BRANCH  18  21
HETATM   21  C8  UNL     1      17.909  27.104  21.357  1.00  0.00     0.253 C
BRANCH  21  22
HETATM   22  C9  UNL     1      18.765  28.060  20.697  1.00  0.00     0.159 C
BRANCH  22  23
HETATM   23  N6  UNL     1      19.494  27.528  19.539  1.00  0.00    -0.314 N
ATOM     24  H6  UNL     1      20.157  26.752  19.537  1.00  0.00     0.172 HD
BRANCH  23  25
HETATM   25  S1  UNL     1      18.997  28.496  18.154  1.00  0.00     0.258 S
HETATM   26  O3  UNL     1      18.163  29.637  18.732  1.00  0.00    -0.201 OA
HETATM   27  O4  UNL     1      18.218  27.742  17.180  1.00  0.00    -0.201 OA
BRANCH  25  28
HETATM   28  C10 UNL     1      20.480  29.149  17.417  1.00  0.00     0.079 A
HETATM   29  C11 UNL     1      21.681  28.766  17.955  1.00  0.00     0.025 A
HETATM   30  C12 UNL     1      22.840  29.356  17.524  1.00  0.00     0.002 A
HETATM   31  C13 UNL     1      22.780  30.348  16.539  1.00  0.00     0.000 A
HETATM   32  C14 UNL     1      21.581  30.722  16.010  1.00  0.00     0.002 A
HETATM   33  C15 UNL     1      20.394  30.108  16.454  1.00  0.00     0.025 A
ENDBRANCH  25  28
ENDBRANCH  23  25
ENDBRANCH  22  23
ENDBRANCH  21  22
ENDBRANCH  18  21
ENDBRANCH  17  18
ENDBRANCH  14  17
BRANCH   1  34
HETATM   34  N1  UNL     1      12.908  30.059  24.514  1.00  0.00    -0.234 N
ATOM     35  H12 UNL     1      13.342  29.756  25.385  1.00  0.00     0.174 HD
ATOM     36  H11 UNL     1      12.160  30.751  24.548  1.00  0.00     0.174 HD
ENDBRANCH   1  34
TORSDOF 8
ENDMDL