MODEL 3
REMARK VINA RESULT: -7.626134816      3.933      8.481
REMARK  10 active torsions:
REMARK  status: ('A' for Active; 'I' for Inactive)
REMARK    1  A    between atoms: C5_10  and  C6_11
REMARK    2  A    between atoms: C6_11  and  N3_12
REMARK    3  A    between atoms: N3_12  and  C7_14
REMARK    4  A    between atoms: C9_20  and  N6_21
REMARK    5  A    between atoms: N6_21  and  C10_23
REMARK    6  A    between atoms: C10_23  and  C11_24
REMARK    7  A    between atoms: C11_24  and  O1_25
REMARK    8  A    between atoms: N8_30  and  C13_31
REMARK    9  A    between atoms: C13_31  and  C14_32
REMARK   10  A    between atoms: C14_32  and  N9_33
ROOT
HETATM    1  C1  UNL     1      11.048  30.032  24.007  1.00  0.00     0.063 C
HETATM    2  C2  UNL     1      11.971  29.681  23.136  1.00  0.00     0.098 A
HETATM    3  N1  UNL     1      13.326  29.803  23.533  1.00  0.00    -0.329 N
ATOM      4  H1  UNL     1      13.567  30.154  24.460  1.00  0.00     0.169 HD
HETATM    5  C3  UNL     1      14.342  29.429  22.615  1.00  0.00     0.115 A
HETATM    6  N2  UNL     1      15.582  29.459  23.019  1.00  0.00    -0.385 N
ATOM      7  H21 UNL     1      16.312  29.191  22.360  1.00  0.00     0.157 HD
ATOM      8  H22 UNL     1      15.866  29.806  23.935  1.00  0.00     0.157 HD
HETATM    9  C4  UNL     1      13.934  28.935  21.306  1.00  0.00     0.061 A
HETATM   10  C5  UNL     1      14.766  28.455  20.270  1.00  0.00    -0.007 A
HETATM   11  C12 UNL     1      13.894  28.050  19.300  1.00  0.00     0.102 A
HETATM   12  N8  UNL     1      12.590  28.260  19.668  1.00  0.00    -0.340 N
HETATM   13  C17 UNL     1      12.615  28.798  20.898  1.00  0.00     0.123 A
HETATM   14  N10 UNL     1      11.612  29.187  21.837  1.00  0.00    -0.328 N
ATOM     15  H10 UNL     1      10.628  29.111  21.581  1.00  0.00     0.169 HD
ENDROOT
BRANCH  10  16
HETATM   16  C6  UNL     1      16.226  28.704  20.241  1.00  0.00     0.179 C
BRANCH  16  17
HETATM   17  N3  UNL     1      17.045  27.511  20.240  1.00  0.00    -0.221 N
ATOM     18  H3  UNL     1      16.700  26.605  20.559  1.00  0.00     0.178 HD
BRANCH  17  19
HETATM   19  C7  UNL     1      18.280  27.692  19.792  1.00  0.00     0.693 A
HETATM   20  N4  UNL     1      19.320  27.506  20.620  1.00  0.00    -0.187 N
HETATM   21  C8  UNL     1      20.581  27.427  20.139  1.00  0.00     0.215 A
ATOM     22  H4  UNL     1      19.157  27.424  21.624  1.00  0.00     0.185 HD
HETATM   23  N5  UNL     1      20.741  27.541  18.790  1.00  0.00    -0.187 N
HETATM   24  C9  UNL     1      19.743  27.720  17.945  1.00  0.00     0.693 A
ATOM     25  H5  UNL     1      21.687  27.486  18.413  1.00  0.00     0.185 HD
HETATM   26  N7  UNL     1      18.480  27.808  18.438  1.00  0.00    -0.022 N
ATOM     27  H7  UNL     1      17.690  27.958  17.811  1.00  0.00     0.203 HD
BRANCH  24  28
HETATM   28  N6  UNL     1      20.028  27.714  16.654  1.00  0.00    -0.224 N
ATOM     29  H6  UNL     1      19.617  27.006  16.046  1.00  0.00     0.177 HD
BRANCH  28  30
HETATM   30  C10 UNL     1      20.926  28.711  16.100  1.00  0.00     0.164 C
BRANCH  30  31
HETATM   31  C11 UNL     1      20.309  29.670  15.145  1.00  0.00     0.184 C
BRANCH  31  32
HETATM   32  O1  UNL     1      19.046  30.085  15.658  1.00  0.00    -0.399 OA
ATOM     33  H1  UNL     1      18.414  29.388  15.522  1.00  0.00     0.209 HD
ENDBRANCH  31  32
ENDBRANCH  30  31
ENDBRANCH  28  30
ENDBRANCH  24  28
ENDBRANCH  17  19
ENDBRANCH  16  17
ENDBRANCH  10  16
BRANCH  12  34
HETATM   34  C13 UNL     1      11.434  28.024  18.838  1.00  0.00     0.160 C
BRANCH  34  35
HETATM   35  C14 UNL     1      11.081  28.941  17.760  1.00  0.00     0.291 C
BRANCH  35  36
HETATM   36  N9  UNL     1      10.293  30.100  18.021  1.00  0.00     0.081 N
HETATM   37  C15 UNL     1       9.609  30.399  16.726  1.00  0.00     0.309 C
HETATM   38  C16 UNL     1      11.216  31.261  18.139  1.00  0.00     0.309 C
ENDBRANCH  35  36
ENDBRANCH  34  35
ENDBRANCH  12  34
TORSDOF 10
ENDMDL