MODEL 2
REMARK VINA RESULT: -8.439934725      3.002      9.855
REMARK  11 active torsions:
REMARK  status: ('A' for Active; 'I' for Inactive)
REMARK    1  A    between atoms: N1_1  and  C1_4
REMARK    2  A    between atoms: C2_7  and  N3_8
REMARK    3  A    between atoms: N3_8  and  C3_10
REMARK    4  A    between atoms: C3_10  and  C4_11
REMARK    5  A    between atoms: C4_11  and  N4_12
REMARK       I    between atoms: N4_12  and  C5_14
REMARK    6  A    between atoms: C5_14  and  C6_16
REMARK    7  A    between atoms: C6_16  and  C7_17
REMARK    8  A    between atoms: C13_27  and  N7_28
REMARK    9  A    between atoms: N7_28  and  C14_30
REMARK   10  A    between atoms: C14_30  and  C15_31
REMARK   11  A    between atoms: C15_31  and  O2_32
ROOT
HETATM    1  C1  UNL     1      14.426  29.245  22.350  1.00  0.00     0.127 A
HETATM    2  N2  UNL     1      15.442  28.844  21.569  1.00  0.00    -0.176 N
ATOM      3  H2  UNL     1      16.392  28.857  21.941  1.00  0.00     0.186 HD
HETATM    4  C2  UNL     1      15.234  28.423  20.305  1.00  0.00     0.680 A
HETATM    5  N6  UNL     1      13.971  28.401  19.801  1.00  0.00    -0.187 N
ATOM      6  H6  UNL     1      13.827  28.081  18.843  1.00  0.00     0.184 HD
HETATM    7  C12 UNL     1      12.905  28.788  20.527  1.00  0.00     0.106 A
HETATM    8  C13 UNL     1      11.611  28.758  19.991  1.00  0.00     0.129 A
HETATM    9  N8  UNL     1      10.569  29.146  20.727  1.00  0.00    -0.351 N
ATOM     10  H8  UNL     1       9.624  29.127  20.344  1.00  0.00     0.166 HD
HETATM   11  C16 UNL     1      10.793  29.570  22.006  1.00  0.00     0.091 A
HETATM   12  C17 UNL     1      12.055  29.606  22.548  1.00  0.00     0.034 A
HETATM   13  C18 UNL     1      13.150  29.212  21.815  1.00  0.00     0.040 A
ENDROOT
BRANCH   4  14
HETATM   14  N3  UNL     1      16.202  28.031  19.533  1.00  0.00    -0.224 N
ATOM     15  H3  UNL     1      16.084  27.244  18.895  1.00  0.00     0.177 HD
BRANCH  14  16
HETATM   16  C3  UNL     1      17.470  28.762  19.613  1.00  0.00     0.157 C
BRANCH  16  17
HETATM   17  C4  UNL     1      18.607  27.808  19.743  1.00  0.00     0.143 C
BRANCH  17  18
HETATM   18  N4  UNL     1      19.663  27.980  18.777  1.00  0.00    -0.359 N
HETATM   19  C5  UNL     1      19.446  27.972  17.378  1.00  0.00     0.221 C
HETATM   20  O1  UNL     1      18.293  27.806  16.932  1.00  0.00    -0.273 OA
ATOM     21  H4  UNL     1      20.614  28.114  19.119  1.00  0.00     0.162 HD
BRANCH  19  22
HETATM   22  C6  UNL     1      20.561  28.157  16.443  1.00  0.00     0.141 C
BRANCH  22  23
HETATM   23  C7  UNL     1      20.719  29.537  15.971  1.00  0.00    -0.047 A
HETATM   24  C8  UNL     1      21.600  30.391  16.600  1.00  0.00     0.024 A
HETATM   25  C9  UNL     1      21.761  31.706  16.161  1.00  0.00     0.088 A
HETATM   26  N5  UNL     1      21.044  32.139  15.109  1.00  0.00    -0.375 N
HETATM   27  C10 UNL     1      20.164  31.337  14.457  1.00  0.00     0.088 A
ATOM     28  H5  UNL     1      21.165  33.101  14.791  1.00  0.00     0.164 HD
HETATM   29  C11 UNL     1      20.011  30.035  14.899  1.00  0.00     0.024 A
ENDBRANCH  22  23
ENDBRANCH  19  22
ENDBRANCH  17  18
ENDBRANCH  16  17
ENDBRANCH  14  16
ENDBRANCH   4  14
BRANCH   1  30
HETATM   30  N1  UNL     1      14.643  29.643  23.553  1.00  0.00    -0.384 N
ATOM     31  H12 UNL     1      15.524  30.083  23.821  1.00  0.00     0.157 HD
ATOM     32  H11 UNL     1      13.931  29.527  24.274  1.00  0.00     0.157 HD
ENDBRANCH   1  30
BRANCH   8  33
HETATM   33  N7  UNL     1      11.462  28.355  18.798  1.00  0.00    -0.372 N
ATOM     34  H7  UNL     1      11.437  27.347  18.648  1.00  0.00     0.161 HD
BRANCH  33  35
HETATM   35  C14 UNL     1      11.325  29.190  17.643  1.00  0.00     0.147 C
BRANCH  35  36
HETATM   36  C15 UNL     1       9.875  29.058  17.156  1.00  0.00     0.183 C
BRANCH  36  37
HETATM   37  O2  UNL     1       9.967  28.466  15.889  1.00  0.00    -0.399 OA
ATOM     38  H2  UNL     1       9.783  29.165  15.274  1.00  0.00     0.209 HD
ENDBRANCH  36  37
ENDBRANCH  35  36
ENDBRANCH  33  35
ENDBRANCH   8  33
TORSDOF 11
ENDMDL