MODEL 5
REMARK VINA RESULT: -8.623816960      2.465      6.039
REMARK  10 active torsions:
REMARK  status: ('A' for Active; 'I' for Inactive)
REMARK    1  A    between atoms: C4_7  and  C5_8
REMARK    2  A    between atoms: C5_8  and  N3_9
REMARK    3  A    between atoms: N3_9  and  C6_11
REMARK    4  A    between atoms: C7_14  and  N5_15
REMARK    5  A    between atoms: N5_15  and  C8_17
REMARK    6  A    between atoms: C8_17  and  C9_18
REMARK    7  A    between atoms: C9_18  and  O1_19
REMARK    8  A    between atoms: C10_23  and  N7_24
REMARK    9  A    between atoms: N7_24  and  C11_26
REMARK   10  A    between atoms: C14_29  and  C15_30
ROOT
HETATM    1  C6  UNL     1      21.750  29.814  16.709  1.00  0.00     0.707 A
HETATM    2  N4  UNL     1      22.914  29.943  17.412  1.00  0.00    -0.022 N
ATOM      3  H4  UNL     1      23.612  30.622  17.107  1.00  0.00     0.203 HD
HETATM    4  C7  UNL     1      23.154  29.188  18.500  1.00  0.00     0.707 A
HETATM    5  N6  UNL     1      22.260  28.280  18.936  1.00  0.00    -0.021 N
ATOM      6  H6  UNL     1      22.448  27.710  19.761  1.00  0.00     0.203 HD
HETATM    7  C10 UNL     1      21.103  28.146  18.244  1.00  0.00     0.711 A
HETATM    8  N9  UNL     1      20.874  28.905  17.160  1.00  0.00    -0.021 N
ATOM      9  H9  UNL     1      19.994  28.785  16.658  1.00  0.00     0.203 HD
ENDROOT
BRANCH   7  10
HETATM   10  N7  UNL     1      20.264  27.271  18.681  1.00  0.00    -0.191 N
ATOM     11  H7  UNL     1      20.339  26.283  18.436  1.00  0.00     0.184 HD
BRANCH  10  12
HETATM   12  C11 UNL     1      19.216  27.766  19.535  1.00  0.00     0.049 A
HETATM   13  C12 UNL     1      19.409  27.663  20.890  1.00  0.00     0.031 A
HETATM   14  C13 UNL     1      18.429  28.126  21.740  1.00  0.00     0.019 A
HETATM   15  C14 UNL     1      17.283  28.680  21.212  1.00  0.00     0.029 A
HETATM   16  C16 UNL     1      17.102  28.777  19.844  1.00  0.00     0.019 A
HETATM   17  C17 UNL     1      18.081  28.315  18.998  1.00  0.00     0.031 A
BRANCH  15  18
HETATM   18  C15 UNL     1      16.257  29.164  22.112  1.00  0.00     0.264 C
HETATM   19  N8  UNL     1      16.329  30.496  22.636  1.00  0.00    -0.057 NA
HETATM   20  O2  UNL     1      15.274  28.460  22.472  1.00  0.00    -0.271 OA
ENDBRANCH  15  18
ENDBRANCH  10  12
ENDBRANCH   7  10
BRANCH   4  21
HETATM   21  N5  UNL     1      24.247  29.286  19.186  1.00  0.00    -0.223 N
ATOM     22  H5  UNL     1      24.860  30.096  19.089  1.00  0.00     0.177 HD
BRANCH  21  23
HETATM   23  C8  UNL     1      24.569  28.212  20.093  1.00  0.00     0.164 C
BRANCH  23  24
HETATM   24  C9  UNL     1      26.027  28.197  20.455  1.00  0.00     0.184 C
BRANCH  24  25
HETATM   25  O1  UNL     1      26.261  27.375  21.555  1.00  0.00    -0.399 OA
ATOM     26  H1  UNL     1      26.243  27.874  22.364  1.00  0.00     0.209 HD
ENDBRANCH  24  25
ENDBRANCH  23  24
ENDBRANCH  21  23
ENDBRANCH   4  21
BRANCH   1  27
HETATM   27  N3  UNL     1      21.599  30.563  15.694  1.00  0.00    -0.218 N
ATOM     28  H3  UNL     1      21.362  30.099  14.818  1.00  0.00     0.178 HD
BRANCH  27  29
HETATM   29  C5  UNL     1      21.727  31.987  15.646  1.00  0.00     0.214 C
BRANCH  29  30
HETATM   30  C4  UNL     1      20.377  32.625  15.642  1.00  0.00     0.101 A
HETATM   31  N1  UNL     1      20.028  33.908  15.779  1.00  0.00    -0.348 N
HETATM   32  C1  UNL     1      20.945  35.003  15.970  1.00  0.00     0.157 C
HETATM   33  C2  UNL     1      18.674  34.005  15.708  1.00  0.00     0.108 A
HETATM   34  C3  UNL     1      18.179  32.741  15.522  1.00  0.00     0.106 A
HETATM   35  N2  UNL     1      19.243  31.923  15.486  1.00  0.00    -0.353 N
ATOM     36  H2  UNL     1      19.196  30.912  15.359  1.00  0.00     0.166 HD
ENDBRANCH  29  30
ENDBRANCH  27  29
ENDBRANCH   1  27
TORSDOF 10
ENDMDL