MODEL 2
REMARK VINA RESULT: -7.395596629      2.355      5.877
REMARK  10 active torsions:
REMARK  status: ('A' for Active; 'I' for Inactive)
REMARK    1  A    between atoms: C2_2  and  C3_3
REMARK    2  A    between atoms: C3_3  and  N1_4
REMARK    3  A    between atoms: N1_4  and  C4_6
REMARK    4  A    between atoms: C5_9  and  N3_10
REMARK    5  A    between atoms: N3_10  and  C6_12
REMARK    6  A    between atoms: C12_21  and  N6_22
REMARK    7  A    between atoms: N6_22  and  C13_24
REMARK    8  A    between atoms: C13_24  and  C14_25
REMARK    9  A    between atoms: C14_25  and  N7_26
REMARK   10  A    between atoms: N11_34  and  O1_36
ROOT
HETATM    1  C4  UNL     1      18.394  27.697  20.456  1.00  0.00     0.163 C
HETATM    2  N2  UNL     1      19.725  27.522  20.479  1.00  0.00    -0.172 N
ATOM      3  H2  UNL     1      20.112  27.129  21.337  1.00  0.00     0.186 HD
HETATM    4  C5  UNL     1      20.605  27.802  19.508  1.00  0.00     0.699 C
HETATM    5  N5  UNL     1      20.306  28.222  18.267  1.00  0.00    -0.022 N
ATOM      6  H5  UNL     1      21.077  28.648  17.752  1.00  0.00     0.203 HD
HETATM    7  C12 UNL     1      19.134  28.161  17.605  1.00  0.00     0.694 C
HETATM    8  N10 UNL     1      17.873  28.150  18.120  1.00  0.00    -0.171 N
ATOM      9  H10 UNL     1      17.113  28.368  17.476  1.00  0.00     0.186 HD
HETATM   10  C16 UNL     1      17.529  27.880  19.397  1.00  0.00     0.185 C
HETATM   11  N11 UNL     1      16.262  27.778  19.682  1.00  0.00    -0.247 N
ATOM     12  H11 UNL     1      15.983  27.575  20.642  1.00  0.00     0.196 HD
ENDROOT
BRANCH   4  13
HETATM   13  N3  UNL     1      21.852  27.674  19.727  1.00  0.00    -0.191 N
ATOM     14  H3  UNL     1      22.142  26.898  20.322  1.00  0.00     0.184 HD
BRANCH  13  15
HETATM   15  C6  UNL     1      22.871  28.516  19.217  1.00  0.00     0.051 A
HETATM   16  C7  UNL     1      24.133  28.614  19.765  1.00  0.00     0.030 A
HETATM   17  C8  UNL     1      25.102  29.454  19.230  1.00  0.00     0.004 A
HETATM   18  C9  UNL     1      24.812  30.218  18.121  1.00  0.00     0.027 A
HETATM   19  C10 UNL     1      23.554  30.141  17.549  1.00  0.00     0.048 A
HETATM   20  N4  UNL     1      23.266  30.926  16.415  1.00  0.00    -0.102 NA
HETATM   21  C11 UNL     1      22.607  29.292  18.108  1.00  0.00     0.056 A
ENDBRANCH  13  15
ENDBRANCH   4  13
BRANCH   1  22
HETATM   22  N1  UNL     1      17.805  27.696  21.599  1.00  0.00    -0.373 N
ATOM     23  H1  UNL     1      17.290  26.863  21.885  1.00  0.00     0.161 HD
BRANCH  22  24
HETATM   24  C3  UNL     1      17.845  28.833  22.501  1.00  0.00     0.121 C
BRANCH  24  25
HETATM   25  C2  UNL     1      16.756  29.827  22.184  1.00  0.00     0.015 C
HETATM   26  C1  UNL     1      15.465  29.308  22.756  1.00  0.00     0.006 C
ENDBRANCH  24  25
ENDBRANCH  22  24
ENDBRANCH   1  22
BRANCH   7  27
HETATM   27  N6  UNL     1      19.182  28.103  16.308  1.00  0.00    -0.224 N
ATOM     28  H6  UNL     1      18.523  27.504  15.811  1.00  0.00     0.177 HD
BRANCH  27  29
HETATM   29  C13 UNL     1      20.138  28.860  15.557  1.00  0.00     0.157 C
BRANCH  29  30
HETATM   30  C14 UNL     1      19.506  30.213  15.221  1.00  0.00     0.142 C
BRANCH  30  31
HETATM   31  N7  UNL     1      20.260  31.256  15.862  1.00  0.00    -0.365 N
HETATM   32  C15 UNL     1      19.894  31.700  17.002  1.00  0.00     0.197 C
HETATM   33  N8  UNL     1      18.763  31.189  17.653  1.00  0.00    -0.067 NA
HETATM   34  N9  UNL     1      20.667  32.737  17.614  1.00  0.00    -0.067 NA
ATOM     35  H7  UNL     1      21.087  31.642  15.406  1.00  0.00     0.161 HD
ENDBRANCH  30  31
ENDBRANCH  29  30
ENDBRANCH  27  29
ENDBRANCH   7  27
BRANCH  11  36
HETATM   36  O1  UNL     1      15.293  27.939  18.722  1.00  0.00    -0.284 OA
HETATM   37  C17 UNL     1      13.962  28.173  19.115  1.00  0.00     0.237 C
ENDBRANCH  11  36
TORSDOF 10
ENDMDL