MODEL 4
REMARK VINA RESULT: -7.518836572      2.324      2.887
REMARK  10 active torsions:
REMARK  status: ('A' for Active; 'I' for Inactive)
REMARK    1  A    between atoms: C1_4  and  C2_6
REMARK    2  A    between atoms: C5_9  and  C6_10
REMARK    3  A    between atoms: C6_10  and  N3_11
REMARK    4  A    between atoms: C7_13  and  C8_14
REMARK    5  A    between atoms: C7_13  and  N5_17
REMARK    6  A    between atoms: C11_20  and  C12_21
REMARK    7  A    between atoms: C12_21  and  N6_22
REMARK    8  A    between atoms: C12_21  and  N7_26
REMARK    9  A    between atoms: N7_26  and  N8_27
REMARK   10  A    between atoms: C15_32  and  N9_33
ROOT
HETATM    1  N3  UNL     1      17.904  28.017  18.749  1.00  0.00    -0.347 N
ATOM      2  H3  UNL     1      17.328  28.231  17.935  1.00  0.00     0.167 HD
HETATM    3  C7  UNL     1      17.345  28.141  19.873  1.00  0.00     0.177 C
ENDROOT
BRANCH   3   4
HETATM    4  C8  UNL     1      17.888  27.916  21.196  1.00  0.00     0.299 C
HETATM    5  N4  UNL     1      17.450  26.895  22.079  1.00  0.00    -0.054 NA
HETATM    6  O1  UNL     1      18.831  28.685  21.618  1.00  0.00    -0.268 OA
ENDBRANCH   3   4
BRANCH   3   7
HETATM    7  N5  UNL     1      15.941  28.576  19.898  1.00  0.00    -0.315 N
HETATM    8  C9  UNL     1      14.986  27.882  19.268  1.00  0.00     0.099 A
HETATM    9  C10 UNL     1      13.652  28.289  19.288  1.00  0.00     0.028 A
HETATM   10  C11 UNL     1      13.305  29.431  19.973  1.00  0.00    -0.008 A
HETATM   11  C13 UNL     1      14.283  30.132  20.613  1.00  0.00     0.028 A
HETATM   12  C14 UNL     1      15.578  29.685  20.559  1.00  0.00     0.099 A
BRANCH  10  13
HETATM   13  C12 UNL     1      11.886  29.863  19.994  1.00  0.00     0.328 C
BRANCH  13  14
HETATM   14  N6  UNL     1      11.549  30.345  18.669  1.00  0.00    -0.056 N
ATOM     15  H63 UNL     1      12.143  29.947  17.941  1.00  0.00     0.276 HD
ATOM     16  H62 UNL     1      10.658  29.981  18.330  1.00  0.00     0.276 HD
ATOM     17  H61 UNL     1      11.578  31.364  18.691  1.00  0.00     0.276 HD
ENDBRANCH  13  14
BRANCH  13  18
HETATM   18  N7  UNL     1      10.975  28.828  20.354  1.00  0.00    -0.110 NA
BRANCH  18  19
HETATM   19  N8  UNL     1      10.954  28.558  21.728  1.00  0.00    -0.346 N
ATOM     20  H82 UNL     1      11.760  28.724  22.329  1.00  0.00     0.172 HD
ATOM     21  H81 UNL     1      10.062  28.185  22.054  1.00  0.00     0.172 HD
ENDBRANCH  18  19
ENDBRANCH  13  18
ENDBRANCH  10  13
ENDBRANCH   3   7
BRANCH   1  22
HETATM   22  C6  UNL     1      19.223  27.620  18.484  1.00  0.00     0.103 C
BRANCH  22  23
HETATM   23  C5  UNL     1      20.055  28.619  17.799  1.00  0.00     0.012 A
HETATM   24  C4  UNL     1      19.511  29.330  16.723  1.00  0.00     0.016 A
HETATM   25  C3  UNL     1      20.244  30.282  16.042  1.00  0.00     0.016 A
HETATM   26  C2  UNL     1      21.540  30.572  16.392  1.00  0.00     0.007 A
HETATM   27  C16 UNL     1      22.078  29.890  17.433  1.00  0.00     0.051 A
HETATM   28  C15 UNL     1      21.349  28.915  18.140  1.00  0.00     0.115 A
BRANCH  26  29
HETATM   29  C1  UNL     1      22.309  31.579  15.669  1.00  0.00     0.120 C
HETATM   30  N1  UNL     1      21.692  32.513  15.057  1.00  0.00    -0.387 N
ATOM     31  H12 UNL     1      22.229  33.217  14.551  1.00  0.00     0.157 HD
ATOM     32  H11 UNL     1      20.673  32.546  15.082  1.00  0.00     0.157 HD
HETATM   33  N2  UNL     1      23.715  31.534  15.634  1.00  0.00    -0.082 NA
ENDBRANCH  26  29
BRANCH  28  34
HETATM   34  N9  UNL     1      22.000  28.289  19.217  1.00  0.00    -0.115 N
HETATM   35  O2  UNL     1      23.219  28.603  19.415  1.00  0.00    -0.532 OA
HETATM   36  O3  UNL     1      21.412  27.392  20.036  1.00  0.00    -0.532 OA
ENDBRANCH  28  34
ENDBRANCH  22  23
ENDBRANCH   1  22
TORSDOF 10
ENDMDL