MODEL 4
REMARK VINA RESULT: -7.805184360      3.582      6.320
REMARK  9 active torsions:
REMARK  status: ('A' for Active; 'I' for Inactive)
REMARK    1  A    between atoms: C1_4  and  C2_6
REMARK    2  A    between atoms: C4_8  and  N3_9
REMARK    3  A    between atoms: N3_9  and  C5_11
REMARK    4  A    between atoms: C5_11  and  C6_12
REMARK    5  A    between atoms: C6_12  and  C7_13
REMARK    6  A    between atoms: C7_13  and  N4_14
REMARK       I    between atoms: N4_14  and  C8_16
REMARK    7  A    between atoms: N7_22  and  C10_24
REMARK    8  A    between atoms: C13_27  and  S1_28
REMARK    9  A    between atoms: S1_28  and  N8_29
ROOT
HETATM    1  C2  UNL     1      15.925  29.607  21.638  1.00  0.00     0.123 A
HETATM    2  C3  UNL     1      17.098  28.920  21.403  1.00  0.00     0.089 A
HETATM    3  C4  UNL     1      17.233  27.981  20.389  1.00  0.00     0.106 A
HETATM    4  N6  UNL     1      16.152  27.758  19.623  1.00  0.00    -0.308 N
ATOM      5  H6  UNL     1      16.195  27.079  18.863  1.00  0.00     0.171 HD
HETATM    6  C9  UNL     1      15.016  28.431  19.859  1.00  0.00     0.231 A
HETATM    7  N7  UNL     1      14.002  28.179  19.091  1.00  0.00    -0.322 N
ATOM      8  H7  UNL     1      14.123  27.486  18.353  1.00  0.00     0.169 HD
HETATM    9  O4  UNL     1      14.920  29.307  20.819  1.00  0.00    -0.276 OA
ENDROOT
BRANCH   7  10
HETATM   10  C10 UNL     1      12.744  28.802  19.213  1.00  0.00     0.035 A
HETATM   11  C11 UNL     1      12.153  28.954  20.440  1.00  0.00     0.031 A
HETATM   12  C12 UNL     1      10.927  29.562  20.557  1.00  0.00     0.027 A
HETATM   13  C13 UNL     1      10.276  30.028  19.425  1.00  0.00     0.079 A
HETATM   14  C14 UNL     1      10.849  29.888  18.170  1.00  0.00     0.027 A
HETATM   15  C15 UNL     1      12.081  29.272  18.098  1.00  0.00     0.031 A
BRANCH  13  16
HETATM   16  S1  UNL     1       8.711  30.807  19.541  1.00  0.00     0.256 S
HETATM   17  O2  UNL     1       8.765  32.253  19.209  1.00  0.00    -0.201 OA
HETATM   18  O3  UNL     1       8.210  30.642  20.957  1.00  0.00    -0.201 OA
BRANCH  16  19
HETATM   19  N8  UNL     1       7.569  30.024  18.513  1.00  0.00    -0.324 N
ATOM     20  H82 UNL     1       6.709  29.587  18.846  1.00  0.00     0.169 HD
ATOM     21  H81 UNL     1       7.877  30.062  17.542  1.00  0.00     0.169 HD
ENDBRANCH  16  19
ENDBRANCH  13  16
ENDBRANCH   7  10
BRANCH   3  22
HETATM   22  N3  UNL     1      18.332  27.340  20.171  1.00  0.00    -0.376 N
ATOM     23  H3  UNL     1      18.360  26.590  19.481  1.00  0.00     0.161 HD
BRANCH  22  24
HETATM   24  C5  UNL     1      19.527  27.694  20.914  1.00  0.00     0.123 C
BRANCH  24  25
HETATM   25  C6  UNL     1      20.723  27.698  20.011  1.00  0.00     0.039 C
BRANCH  25  26
HETATM   26  C7  UNL     1      20.412  27.311  18.602  1.00  0.00     0.125 C
BRANCH  26  27
HETATM   27  N4  UNL     1      20.299  28.392  17.672  1.00  0.00    -0.345 N
HETATM   28  C8  UNL     1      19.119  28.624  16.916  1.00  0.00     0.328 C
HETATM   29  N5  UNL     1      19.092  29.731  16.010  1.00  0.00    -0.040 NA
HETATM   30  O1  UNL     1      18.112  27.866  17.044  1.00  0.00    -0.251 OA
ATOM     31  H4  UNL     1      21.094  29.019  17.547  1.00  0.00     0.163 HD
ENDBRANCH  26  27
ENDBRANCH  25  26
ENDBRANCH  24  25
ENDBRANCH  22  24
ENDBRANCH   3  22
BRANCH   1  32
HETATM   32  C1  UNL     1      15.749  30.589  22.683  1.00  0.00     0.144 C
HETATM   33  N1  UNL     1      15.207  30.254  23.784  1.00  0.00    -0.385 N
ATOM     34  H12 UNL     1      15.083  30.947  24.521  1.00  0.00     0.157 HD
ATOM     35  H11 UNL     1      14.895  29.294  23.932  1.00  0.00     0.157 HD
HETATM   36  N2  UNL     1      16.178  31.909  22.479  1.00  0.00    -0.080 NA
ENDBRANCH   1  32
TORSDOF 9
ENDMDL