MODEL 4
REMARK VINA RESULT: -8.478721537      3.621      8.224
REMARK  12 active torsions:
REMARK  status: ('A' for Active; 'I' for Inactive)
REMARK    1  A    between atoms: N1_1  and  N2_4
REMARK    2  A    between atoms: N2_4  and  C1_6
REMARK    3  A    between atoms: C4_11  and  N4_12
REMARK    4  A    between atoms: N4_12  and  C5_14
REMARK    5  A    between atoms: C8_17  and  C9_18
REMARK    6  A    between atoms: C9_18  and  C10_19
REMARK    7  A    between atoms: C10_19  and  N5_20
REMARK    8  A    between atoms: N5_20  and  C11_22
REMARK    9  A    between atoms: N6_25  and  C14_26
REMARK   10  A    between atoms: C14_26  and  C15_27
REMARK   11  A    between atoms: C15_27  and  C16_28
REMARK   12  A    between atoms: C16_28  and  O1_29
ROOT
HETATM    1  C5  UNL     1      16.650  28.198  21.441  1.00  0.00     0.106 A
HETATM    2  C6  UNL     1      17.777  27.659  22.003  1.00  0.00     0.050 A
HETATM    3  C7  UNL     1      18.711  27.462  21.015  1.00  0.00     0.029 A
HETATM    4  C8  UNL     1      18.130  27.892  19.843  1.00  0.00     0.012 A
HETATM    5  N8  UNL     1      16.909  28.321  20.129  1.00  0.00    -0.346 N
ATOM      6  H8  UNL     1      16.254  28.696  19.443  1.00  0.00     0.167 HD
ENDROOT
BRANCH   4   7
HETATM    7  C9  UNL     1      18.801  27.855  18.521  1.00  0.00     0.076 C
BRANCH   7   8
HETATM    8  C10 UNL     1      20.258  27.551  18.761  1.00  0.00     0.127 C
BRANCH   8   9
HETATM    9  N5  UNL     1      21.098  27.878  17.649  1.00  0.00    -0.376 N
ATOM     10  H5  UNL     1      21.830  27.216  17.393  1.00  0.00     0.161 HD
BRANCH   9  11
HETATM   11  C11 UNL     1      20.986  28.958  16.950  1.00  0.00     0.106 A
HETATM   12  C12 UNL     1      20.517  28.870  15.660  1.00  0.00     0.065 A
HETATM   13  C13 UNL     1      20.399  30.019  14.921  1.00  0.00     0.099 A
HETATM   14  N6  UNL     1      20.746  31.228  15.473  1.00  0.00    -0.310 N
HETATM   15  C17 UNL     1      21.198  31.316  16.711  1.00  0.00     0.327 A
HETATM   16  O2  UNL     1      21.518  32.404  17.214  1.00  0.00    -0.246 OA
HETATM   17  N7  UNL     1      21.308  30.169  17.426  1.00  0.00    -0.295 N
ATOM     18  H7  UNL     1      21.656  30.232  18.383  1.00  0.00     0.172 HD
BRANCH  14  19
HETATM   19  C14 UNL     1      20.541  32.363  14.613  1.00  0.00     0.135 C
BRANCH  19  20
HETATM   20  C15 UNL     1      19.190  32.941  14.802  1.00  0.00     0.046 C
BRANCH  20  21
HETATM   21  C16 UNL     1      19.039  34.198  15.558  1.00  0.00     0.165 C
BRANCH  21  22
HETATM   22  O1  UNL     1      20.259  34.724  15.927  1.00  0.00    -0.401 OA
ATOM     23  H1  UNL     1      20.897  34.044  16.108  1.00  0.00     0.209 HD
ENDBRANCH  21  22
ENDBRANCH  20  21
ENDBRANCH  19  20
ENDBRANCH  14  19
ENDBRANCH   9  11
ENDBRANCH   8   9
ENDBRANCH   7   8
ENDBRANCH   4   7
BRANCH   1  24
HETATM   24  N4  UNL     1      15.461  28.554  22.091  1.00  0.00    -0.328 N
ATOM     25  H4  UNL     1      15.452  28.525  23.110  1.00  0.00     0.169 HD
BRANCH  24  26
HETATM   26  C4  UNL     1      14.373  28.917  21.491  1.00  0.00     0.123 A
HETATM   27  C3  UNL     1      13.949  30.206  21.397  1.00  0.00     0.067 A
HETATM   28  C2  UNL     1      12.777  30.468  20.736  1.00  0.00     0.110 A
HETATM   29  N3  UNL     1      12.051  29.486  20.188  1.00  0.00    -0.200 N
HETATM   30  C1  UNL     1      12.467  28.212  20.279  1.00  0.00     0.697 A
ATOM     31  H3  UNL     1      11.181  29.706  19.701  1.00  0.00     0.183 HD
HETATM   32  N9  UNL     1      13.620  27.953  20.929  1.00  0.00    -0.175 N
ATOM     33  H9  UNL     1      13.935  26.986  20.997  1.00  0.00     0.186 HD
BRANCH  30  34
HETATM   34  N2  UNL     1      11.754  27.286  19.745  1.00  0.00    -0.138 N
ATOM     35  H2  UNL     1      11.733  26.358  20.167  1.00  0.00     0.205 HD
BRANCH  34  36
HETATM   36  N1  UNL     1      11.012  27.539  18.595  1.00  0.00    -0.331 N
ATOM     37  H12 UNL     1      10.466  28.399  18.542  1.00  0.00     0.177 HD
ATOM     38  H11 UNL     1      11.015  26.875  17.820  1.00  0.00     0.177 HD
ENDBRANCH  34  36
ENDBRANCH  30  34
ENDBRANCH  24  26
ENDBRANCH   1  24
TORSDOF 12
ENDMDL