MODEL 1
REMARK VINA RESULT: -8.809207024      0.000      0.000
REMARK  9 active torsions:
REMARK  status: ('A' for Active; 'I' for Inactive)
REMARK    1  A    between atoms: N1_1  and  C1_4
REMARK    2  A    between atoms: C2_7  and  N3_8
REMARK    3  A    between atoms: N3_8  and  C3_10
REMARK    4  A    between atoms: C3_10  and  C4_11
REMARK    5  A    between atoms: C4_11  and  C5_12
REMARK    6  A    between atoms: C9_18  and  C10_19
REMARK    7  A    between atoms: N7_27  and  C13_28
REMARK    8  A    between atoms: C13_28  and  C14_29
REMARK    9  A    between atoms: C14_29  and  C15_30
ROOT
HETATM    1  C1  UNL     1      21.120  27.561  19.817  1.00  0.00     0.679 A
HETATM    2  N2  UNL     1      21.063  27.588  18.458  1.00  0.00    -0.175 N
ATOM      3  H2  UNL     1      21.932  27.517  17.928  1.00  0.00     0.186 HD
HETATM    4  C2  UNL     1      19.908  27.705  17.790  1.00  0.00     0.147 A
HETATM    5  C11 UNL     1      18.730  27.800  18.533  1.00  0.00     0.126 A
HETATM    6  N6  UNL     1      17.443  27.925  18.192  1.00  0.00    -0.302 N
ATOM      7  H6  UNL     1      17.086  27.974  17.237  1.00  0.00     0.171 HD
HETATM    8  C12 UNL     1      16.693  27.976  19.308  1.00  0.00     0.328 A
HETATM    9  O2  UNL     1      15.422  28.093  19.354  1.00  0.00    -0.246 OA
HETATM   10  N7  UNL     1      17.525  27.882  20.361  1.00  0.00    -0.282 N
HETATM   11  C16 UNL     1      18.775  27.774  19.907  1.00  0.00     0.158 A
HETATM   12  N9  UNL     1      19.988  27.653  20.518  1.00  0.00    -0.174 N
ATOM     13  H9  UNL     1      20.031  27.633  21.537  1.00  0.00     0.186 HD
ENDROOT
BRANCH   4  14
HETATM   14  N3  UNL     1      19.777  27.733  16.520  1.00  0.00    -0.374 N
ATOM     15  H3  UNL     1      19.916  26.848  16.032  1.00  0.00     0.161 HD
BRANCH  14  16
HETATM   16  C3  UNL     1      19.459  28.865  15.701  1.00  0.00     0.126 C
BRANCH  16  17
HETATM   17  C4  UNL     1      20.687  29.734  15.459  1.00  0.00     0.060 C
BRANCH  17  18
HETATM   18  C5  UNL     1      20.669  31.002  16.174  1.00  0.00    -0.025 A
HETATM   19  C6  UNL     1      19.589  31.891  16.029  1.00  0.00     0.011 A
HETATM   20  C7  UNL     1      19.557  33.112  16.656  1.00  0.00     0.018 A
HETATM   21  C8  UNL     1      20.620  33.475  17.454  1.00  0.00     0.088 A
HETATM   22  N4  UNL     1      21.637  32.616  17.580  1.00  0.00    -0.361 N
HETATM   23  C9  UNL     1      21.692  31.395  16.966  1.00  0.00     0.104 A
ATOM     24  H4  UNL     1      22.422  32.889  18.172  1.00  0.00     0.165 HD
BRANCH  23  25
HETATM   25  C10 UNL     1      22.826  30.561  17.227  1.00  0.00     0.281 C
HETATM   26  N5  UNL     1      24.048  30.818  16.482  1.00  0.00    -0.056 NA
HETATM   27  O1  UNL     1      22.955  29.620  18.007  1.00  0.00    -0.269 OA
ENDBRANCH  23  25
ENDBRANCH  17  18
ENDBRANCH  16  17
ENDBRANCH  14  16
ENDBRANCH   4  14
BRANCH   1  28
HETATM   28  N1  UNL     1      22.264  27.450  20.381  1.00  0.00    -0.234 N
ATOM     29  H12 UNL     1      22.940  28.215  20.393  1.00  0.00     0.174 HD
ATOM     30  H11 UNL     1      22.505  26.566  20.830  1.00  0.00     0.174 HD
ENDBRANCH   1  28
BRANCH  10  31
HETATM   31  C13 UNL     1      17.155  27.894  21.756  1.00  0.00     0.144 C
BRANCH  31  32
HETATM   32  C14 UNL     1      16.814  29.317  22.210  1.00  0.00     0.120 C
BRANCH  32  33
HETATM   33  C15 UNL     1      15.419  29.373  22.713  1.00  0.00     0.232 C
HETATM   34  N8  UNL     1      14.970  30.503  23.445  1.00  0.00    -0.062 NA
HETATM   35  O3  UNL     1      14.611  28.435  22.505  1.00  0.00    -0.277 OA
ENDBRANCH  32  33
ENDBRANCH  31  32
ENDBRANCH  10  31
TORSDOF 9
ENDMDL