MODEL 2
REMARK VINA RESULT: -8.918740686      1.135      1.826
REMARK  7 active torsions:
REMARK  status: ('A' for Active; 'I' for Inactive)
REMARK       I    between atoms: C1_2  and  N2_4
REMARK    1  A    between atoms: N2_4  and  C2_6
REMARK    2  A    between atoms: C2_6  and  C3_7
REMARK    3  A    between atoms: C3_7  and  N3_8
REMARK    4  A    between atoms: N3_8  and  S1_10
REMARK    5  A    between atoms: S1_10  and  N4_13
REMARK    6  A    between atoms: N4_13  and  N5_15
REMARK       I    between atoms: N5_15  and  C4_16
REMARK    7  A    between atoms: C4_16  and  C5_18
REMARK       I    between atoms: N6_23  and  C10_24
ROOT
HETATM    1  N4  UNL     1      18.842  27.633  19.517  1.00  0.00    -0.139 N
ATOM      2  H4  UNL     1      19.299  26.779  19.838  1.00  0.00     0.217 HD
ENDROOT
BRANCH   1   3
HETATM    3  S1  UNL     1      19.175  28.252  17.972  1.00  0.00     0.342 S
HETATM    4  O2  UNL     1      18.182  27.707  16.952  1.00  0.00    -0.180 OA
HETATM    5  O3  UNL     1      18.983  29.752  18.052  1.00  0.00    -0.180 OA
BRANCH   3   6
HETATM    6  N3  UNL     1      20.722  27.785  17.447  1.00  0.00    -0.299 N
ATOM      7  H3  UNL     1      21.290  27.059  17.884  1.00  0.00     0.173 HD
BRANCH   6   8
HETATM    8  C3  UNL     1      21.118  28.555  16.302  1.00  0.00     0.153 C
BRANCH   8   9
HETATM    9  C2  UNL     1      22.272  29.474  16.720  1.00  0.00     0.144 C
BRANCH   9  10
HETATM   10  N2  UNL     1      22.967  28.974  17.888  1.00  0.00    -0.344 N
HETATM   11  C1  UNL     1      24.033  29.625  18.464  1.00  0.00     0.328 C
HETATM   12  N1  UNL     1      24.669  28.989  19.623  1.00  0.00    -0.040 NA
HETATM   13  O1  UNL     1      24.530  30.695  18.123  1.00  0.00    -0.251 OA
ATOM     14  H2  UNL     1      22.651  28.097  18.303  1.00  0.00     0.163 HD
ENDBRANCH   9  10
ENDBRANCH   8   9
ENDBRANCH   6   8
ENDBRANCH   3   6
ENDBRANCH   1   3
BRANCH   1  15
HETATM   15  N5  UNL     1      17.978  28.269  20.311  1.00  0.00    -0.269 NA
HETATM   16  C4  UNL     1      17.160  28.916  21.129  1.00  0.00     0.353 C
HETATM   17  O4  UNL     1      17.523  29.643  22.111  1.00  0.00    -0.248 OA
BRANCH  16  18
HETATM   18  C5  UNL     1      15.654  28.860  20.960  1.00  0.00     0.092 A
HETATM   19  C6  UNL     1      14.998  28.393  19.840  1.00  0.00     0.040 A
HETATM   20  C7  UNL     1      13.652  28.443  19.913  1.00  0.00     0.001 A
HETATM   21  C8  UNL     1      12.570  28.105  19.066  1.00  0.00     0.032 A
HETATM   22  C11 UNL     1      13.067  28.926  21.032  1.00  0.00     0.095 A
HETATM   23  C9  UNL     1      11.390  28.392  19.697  1.00  0.00     0.103 A
HETATM   24  N6  UNL     1      11.712  28.893  20.896  1.00  0.00    -0.270 N
HETATM   25  C10 UNL     1      10.808  29.324  21.929  1.00  0.00     0.340 C
HETATM   26  N7  UNL     1      11.330  29.838  23.134  1.00  0.00    -0.039 NA
HETATM   27  O5  UNL     1       9.566  29.243  21.765  1.00  0.00    -0.250 OA
HETATM   28  S2  UNL     1      14.433  29.316  22.014  1.00  0.00    -0.064 SA
ENDBRANCH  16  18
ENDBRANCH   1  15
TORSDOF 7
ENDMDL