MODEL 1
REMARK VINA RESULT: -9.296443824      0.000      0.000
REMARK  12 active torsions:
REMARK  status: ('A' for Active; 'I' for Inactive)
REMARK    1  A    between atoms: C4_9  and  C5_10
REMARK    2  A    between atoms: C5_10  and  O4_12
REMARK    3  A    between atoms: O4_12  and  C6_13
REMARK    4  A    between atoms: C6_13  and  C7_14
REMARK    5  A    between atoms: C9_16  and  C10_17
REMARK       I    between atoms: C10_17  and  N2_19
REMARK    6  A    between atoms: N2_19  and  C11_21
REMARK    7  A    between atoms: C11_21  and  O6_22
REMARK    8  A    between atoms: C11_21  and  C12_24
REMARK    9  A    between atoms: C12_24  and  C13_25
REMARK   10  A    between atoms: C12_24  and  N3_27
REMARK   11  A    between atoms: N3_27  and  C14_29
REMARK   12  A    between atoms: C17_35  and  N6_36
ROOT
HETATM    1  C10 UNL     1     160.679   9.333  30.238  1.00  0.00     0.275 C
HETATM    2  O5  UNL     1     160.402   9.633  29.070  1.00  0.00    -0.266 OA
HETATM    3  N2  UNL     1     161.158   8.092  30.651  1.00  0.00    -0.304 N
ATOM      4  H2  UNL     1     161.339   7.993  31.650  1.00  0.00     0.171 HD
ENDROOT
BRANCH   3   5
HETATM    5  C11 UNL     1     161.420   6.969  29.869  1.00  0.00     0.142 C
BRANCH   5   6
HETATM    6  O6  UNL     1     161.952   7.126  28.692  1.00  0.00    -0.348 OA
ATOM      7  H6  UNL     1     161.843   6.444  28.040  1.00  0.00     0.219 HD
ENDBRANCH   5   6
BRANCH   5   8
HETATM    8  C12 UNL     1     161.165   5.535  30.202  1.00  0.00     0.166 C
BRANCH   8   9
HETATM    9  C13 UNL     1     161.963   5.178  31.477  1.00  0.00     0.119 C
HETATM   10  S1  UNL     1     163.717   4.979  31.165  1.00  0.00    -0.095 SA
ENDBRANCH   8   9
BRANCH   8  11
HETATM   11  N3  UNL     1     161.688   4.778  29.110  1.00  0.00    -0.372 N
ATOM     12  H3  UNL     1     162.697   4.880  28.997  1.00  0.00     0.160 HD
BRANCH  11  13
HETATM   13  C14 UNL     1     161.173   4.017  28.264  1.00  0.00     0.101 C
HETATM   14  C15 UNL     1     160.785   2.734  28.707  1.00  0.00     0.080 C
HETATM   15  C16 UNL     1     159.798   1.924  28.202  1.00  0.00     0.134 C
HETATM   16  N4  UNL     1     159.580   0.698  28.902  1.00  0.00    -0.082 NA
HETATM   17  N5  UNL     1     158.997   2.109  27.135  1.00  0.00    -0.179 N
HETATM   18  C17 UNL     1     158.981   3.173  26.286  1.00  0.00     0.680 C
ATOM     19  H5  UNL     1     158.325   1.367  26.941  1.00  0.00     0.185 HD
HETATM   20  N7  UNL     1     159.906   4.144  26.180  1.00  0.00    -0.154 N
HETATM   21  C18 UNL     1     160.992   4.417  26.955  1.00  0.00     0.286 C
ATOM     22  H7  UNL     1     159.772   4.777  25.392  1.00  0.00     0.187 HD
HETATM   23  O7  UNL     1     161.911   5.092  26.436  1.00  0.00    -0.265 OA
BRANCH  18  24
HETATM   24  N6  UNL     1     157.953   3.237  25.506  1.00  0.00    -0.234 N
ATOM     25  H62 UNL     1     157.064   2.888  25.866  1.00  0.00     0.174 HD
ATOM     26  H61 UNL     1     158.132   3.638  24.585  1.00  0.00     0.174 HD
ENDBRANCH  18  24
ENDBRANCH  11  13
ENDBRANCH   8  11
ENDBRANCH   5   8
ENDBRANCH   3   5
BRANCH   1  27
HETATM   27  C9  UNL     1     160.487  10.374  31.279  1.00  0.00     0.125 A
HETATM   28  C8  UNL     1     161.444  11.220  31.784  1.00  0.00     0.074 A
HETATM   29  C7  UNL     1     160.826  12.032  32.741  1.00  0.00     0.103 A
HETATM   30  O8  UNL     1     159.573  11.649  32.767  1.00  0.00    -0.239 OA
HETATM   31  N8  UNL     1     159.354  10.685  31.924  1.00  0.00    -0.256 N
ATOM     32  H8  UNL     1     158.453  10.231  31.775  1.00  0.00     0.195 HD
BRANCH  29  33
HETATM   33  C6  UNL     1     161.487  13.088  33.533  1.00  0.00     0.246 C
BRANCH  33  34
HETATM   34  O4  UNL     1     161.823  14.187  32.749  1.00  0.00    -0.309 OA
BRANCH  34  35
HETATM   35  C5  UNL     1     163.080  14.550  32.358  1.00  0.00     0.320 C
HETATM   36  O3  UNL     1     163.975  13.667  32.303  1.00  0.00    -0.257 OA
BRANCH  35  37
HETATM   37  C4  UNL     1     163.464  15.910  31.993  1.00  0.00     0.184 A
HETATM   38  C2  UNL     1     164.456  16.704  32.469  1.00  0.00     0.093 A
HETATM   39  C1  UNL     1     165.407  16.297  33.539  1.00  0.00     0.080 C
HETATM   40  O1  UNL     1     164.380  17.830  31.814  1.00  0.00    -0.276 OA
HETATM   41  C3  UNL     1     163.398  17.802  30.945  1.00  0.00     0.268 A
HETATM   42  N1  UNL     1     163.037  18.754  30.122  1.00  0.00    -0.359 N
HETATM   43  O2  UNL     1     162.847  16.614  31.068  1.00  0.00    -0.265 OA
ATOM     44  H12 UNL     1     163.465  19.674  30.025  1.00  0.00     0.160 HD
ATOM     45  H11 UNL     1     162.273  18.732  29.446  1.00  0.00     0.160 HD
ENDBRANCH  35  37
ENDBRANCH  34  35
ENDBRANCH  33  34
ENDBRANCH  29  33
ENDBRANCH   1  27
TORSDOF 12
ENDMDL