MODEL 4
REMARK VINA RESULT: -7.438789733      1.139      1.340
REMARK  14 active torsions:
REMARK  status: ('A' for Active; 'I' for Inactive)
REMARK    1  A    between atoms: N1_1  and  C1_4
REMARK    2  A    between atoms: C2_7  and  C3_8
REMARK    3  A    between atoms: C3_8  and  N3_9
REMARK    4  A    between atoms: C4_10  and  O1_11
REMARK    5  A    between atoms: C5_13  and  C6_14
REMARK    6  A    between atoms: N4_15  and  C7_17
REMARK    7  A    between atoms: C7_17  and  C8_18
REMARK    8  A    between atoms: C12_25  and  O2_26
REMARK    9  A    between atoms: C13_28  and  O3_29
REMARK   10  A    between atoms: C14_31  and  N6_32
REMARK   11  A    between atoms: N6_32  and  C15_34
REMARK   12  A    between atoms: C17_38  and  C18_39
REMARK   13  A    between atoms: C18_39  and  O4_40
REMARK   14  A    between atoms: O4_40  and  N8_41
ROOT
HETATM    1  N3  UNL     1     162.691  10.072  33.821  1.00  0.00    -0.305 N
HETATM    2  C4  UNL     1     163.236  11.165  33.256  1.00  0.00     0.159 A
HETATM    3  C5  UNL     1     162.492  12.180  32.697  1.00  0.00     0.066 A
HETATM    4  C12 UNL     1     161.110  12.053  32.725  1.00  0.00     0.118 A
HETATM    5  C13 UNL     1     160.554  10.932  33.306  1.00  0.00     0.144 A
HETATM    6  C14 UNL     1     161.324   9.936  33.858  1.00  0.00     0.144 A
ENDROOT
BRANCH   6   7
HETATM    7  N6  UNL     1     160.822   8.932  34.422  1.00  0.00    -0.346 N
ATOM      8  H6  UNL     1     160.917   8.954  35.438  1.00  0.00     0.163 HD
BRANCH   7   9
HETATM    9  C15 UNL     1     160.158   7.788  33.955  1.00  0.00     0.248 C
HETATM   10  C16 UNL     1     160.961   6.508  34.006  1.00  0.00     0.175 C
HETATM   11  N7  UNL     1     161.637   6.545  32.719  1.00  0.00    -0.368 N
HETATM   12  C17 UNL     1     161.052   7.327  31.908  1.00  0.00     0.143 C
ATOM     13  H7  UNL     1     162.475   6.009  32.495  1.00  0.00     0.161 HD
HETATM   14  O7  UNL     1     159.955   7.889  32.528  1.00  0.00    -0.310 OA
BRANCH  12  15
HETATM   15  C18 UNL     1     161.521   7.570  30.504  1.00  0.00     0.291 C
BRANCH  15  16
HETATM   16  O4  UNL     1     160.435   7.955  29.682  1.00  0.00    -0.213 OA
BRANCH  16  17
HETATM   17  N8  UNL     1     160.090   9.244  29.462  1.00  0.00     0.005 N
HETATM   18  O5  UNL     1     160.451   9.839  28.431  1.00  0.00    -0.511 OA
HETATM   19  O6  UNL     1     159.330   9.920  30.381  1.00  0.00    -0.511 OA
ENDBRANCH  16  17
ENDBRANCH  15  16
ENDBRANCH  12  15
ENDBRANCH   7   9
ENDBRANCH   6   7
BRANCH   1  20
HETATM   20  C3  UNL     1     163.490   9.049  34.410  1.00  0.00     0.190 C
BRANCH  20  21
HETATM   21  C2  UNL     1     163.340   9.000  35.929  1.00  0.00     0.036 A
HETATM   22  N2  UNL     1     163.148   7.844  36.539  1.00  0.00    -0.339 N
HETATM   23  C1  UNL     1     163.021   7.833  37.864  1.00  0.00     0.142 A
ATOM     24  H2  UNL     1     163.099   6.977  36.004  1.00  0.00     0.168 HD
HETATM   25  S1  UNL     1     163.172   9.465  38.289  1.00  0.00    -0.064 SA
HETATM   26  C19 UNL     1     163.397  10.113  36.720  1.00  0.00     0.080 A
BRANCH  23  27
HETATM   27  N1  UNL     1     162.825   6.803  38.655  1.00  0.00    -0.380 N
ATOM     28  H12 UNL     1     161.965   6.275  38.800  1.00  0.00     0.158 HD
ATOM     29  H11 UNL     1     163.494   6.343  39.272  1.00  0.00     0.158 HD
ENDBRANCH  23  27
ENDBRANCH  20  21
ENDBRANCH   1  20
BRANCH   5  30
HETATM   30  O3  UNL     1     159.160  10.838  33.317  1.00  0.00    -0.355 OA
ATOM     31  H3  UNL     1     158.678  11.545  33.730  1.00  0.00     0.218 HD
ENDBRANCH   5  30
BRANCH   2  32
HETATM   32  O1  UNL     1     164.615  11.348  33.203  1.00  0.00    -0.345 OA
ATOM     33  H1  UNL     1     164.999  12.116  32.798  1.00  0.00     0.219 HD
ENDBRANCH   2  32
BRANCH   4  34
HETATM   34  O2  UNL     1     160.372  13.078  32.158  1.00  0.00    -0.357 OA
ATOM     35  H2  UNL     1     160.648  13.966  32.349  1.00  0.00     0.217 HD
ENDBRANCH   4  34
BRANCH   3  36
HETATM   36  C6  UNL     1     163.081  13.364  32.084  1.00  0.00     0.101 C
HETATM   37  N4  UNL     1     163.923  14.096  32.696  1.00  0.00    -0.397 N
ATOM     38  H4  UNL     1     164.208  13.864  33.647  1.00  0.00     0.158 HD
BRANCH  37  39
HETATM   39  C7  UNL     1     164.473  15.258  32.036  1.00  0.00     0.125 C
BRANCH  39  40
HETATM   40  C8  UNL     1     163.391  15.960  31.208  1.00  0.00     0.030 C
HETATM   41  C9  UNL     1     163.980  16.495  29.932  1.00  0.00     0.035 C
HETATM   42  C10 UNL     1     164.316  17.937  30.215  1.00  0.00     0.232 C
HETATM   43  N5  UNL     1     164.068  18.150  31.629  1.00  0.00    -0.075 N
HETATM   44  C11 UNL     1     162.981  17.219  31.939  1.00  0.00     0.238 C
ATOM     45  H52 UNL     1     164.892  18.045  32.221  1.00  0.00     0.277 HD
ATOM     46  H51 UNL     1     163.875  19.120  31.881  1.00  0.00     0.277 HD
ENDBRANCH  39  40
ENDBRANCH  37  39
ENDBRANCH   3  36
TORSDOF 14
ENDMDL