MODEL 2
REMARK VINA RESULT: -7.360312223      2.812      6.821
REMARK  11 active torsions:
REMARK  status: ('A' for Active; 'I' for Inactive)
REMARK    1  A    between atoms: C2_2  and  N1_3
REMARK    2  A    between atoms: N1_3  and  C3_5
REMARK    3  A    between atoms: C3_5  and  O1_6
REMARK    4  A    between atoms: C3_5  and  C4_8
REMARK    5  A    between atoms: C6_11  and  N3_12
REMARK    6  A    between atoms: N3_12  and  C7_14
REMARK    7  A    between atoms: C8_15  and  C9_16
REMARK       I    between atoms: C9_16  and  N4_18
REMARK    8  A    between atoms: N4_18  and  N5_20
REMARK    9  A    between atoms: C11_24  and  N6_25
REMARK   10  A    between atoms: N8_34  and  N9_35
REMARK   11  A    between atoms: C16_37  and  C17_38
ROOT
HETATM    1  C4  UNL     1     162.942   7.202  32.769  1.00  0.00     0.084 A
HETATM    2  C5  UNL     1     163.064   8.539  33.178  1.00  0.00     0.096 A
HETATM    3  N2  UNL     1     164.245   9.288  32.815  1.00  0.00    -0.099 NA
HETATM    4  C6  UNL     1     162.102   9.185  33.921  1.00  0.00     0.129 A
HETATM    5  C15 UNL     1     160.993   8.447  34.251  1.00  0.00     0.296 A
HETATM    6  O4  UNL     1     160.091   8.977  34.919  1.00  0.00    -0.264 OA
HETATM    7  N8  UNL     1     160.856   7.167  33.869  1.00  0.00    -0.204 N
HETATM    8  C22 UNL     1     161.816   6.524  33.129  1.00  0.00     0.158 A
HETATM    9  N11 UNL     1     161.560   5.153  32.780  1.00  0.00    -0.080 NA
ENDROOT
BRANCH   4  10
HETATM   10  N3  UNL     1     162.227  10.514  34.325  1.00  0.00    -0.345 N
ATOM     11  H3  UNL     1     162.139  10.684  35.327  1.00  0.00     0.166 HD
BRANCH  10  12
HETATM   12  C7  UNL     1     162.458  11.638  33.536  1.00  0.00     0.118 A
HETATM   13  C8  UNL     1     161.677  11.971  32.441  1.00  0.00     0.069 A
HETATM   14  C10 UNL     1     161.943  13.102  31.695  1.00  0.00     0.068 A
HETATM   15  C11 UNL     1     163.022  13.922  32.055  1.00  0.00     0.106 A
HETATM   16  N7  UNL     1     163.753  13.569  33.118  1.00  0.00    -0.303 N
HETATM   17  C13 UNL     1     164.886  14.412  33.512  1.00  0.00     0.161 C
HETATM   18  C14 UNL     1     163.506  12.470  33.853  1.00  0.00     0.276 A
HETATM   19  O3  UNL     1     164.272  12.226  34.853  1.00  0.00    -0.265 OA
BRANCH  13  20
HETATM   20  C9  UNL     1     160.558  11.129  32.025  1.00  0.00     0.272 C
HETATM   21  O2  UNL     1     159.421  11.248  32.596  1.00  0.00    -0.266 OA
HETATM   22  N4  UNL     1     160.644  10.164  31.007  1.00  0.00    -0.272 N
ATOM     23  H4  UNL     1     161.528  10.025  30.516  1.00  0.00     0.189 HD
BRANCH  22  24
HETATM   24  N5  UNL     1     159.527   9.388  30.658  1.00  0.00    -0.342 N
ATOM     25  H52 UNL     1     159.123   8.769  31.361  1.00  0.00     0.176 HD
ATOM     26  H51 UNL     1     159.128   9.441  29.721  1.00  0.00     0.176 HD
ENDBRANCH  22  24
ENDBRANCH  13  20
BRANCH  15  27
HETATM   27  N6  UNL     1     163.313  15.088  31.303  1.00  0.00    -0.380 N
HETATM   28  C12 UNL     1     162.363  15.709  30.418  1.00  0.00     0.147 C
ATOM     29  H6  UNL     1     164.239  15.506  31.393  1.00  0.00     0.160 HD
ENDBRANCH  15  27
ENDBRANCH  10  12
ENDBRANCH   4  10
BRANCH   1  30
HETATM   30  C3  UNL     1     163.992   6.615  32.001  1.00  0.00     0.151 C
BRANCH  30  31
HETATM   31  N1  UNL     1     164.237   6.687  30.620  1.00  0.00    -0.371 N
ATOM     32  H1  UNL     1     164.782   7.446  30.211  1.00  0.00     0.161 HD
BRANCH  31  33
HETATM   33  C2  UNL     1     163.658   5.599  29.788  1.00  0.00     0.117 C
HETATM   34  C1  UNL     1     162.321   6.026  29.274  1.00  0.00     0.026 C
ENDBRANCH  31  33
ENDBRANCH  30  31
BRANCH  30  35
HETATM   35  O1  UNL     1     164.840   5.910  32.706  1.00  0.00    -0.346 OA
ATOM     36  H1  UNL     1     165.423   6.397  33.277  1.00  0.00     0.219 HD
ENDBRANCH  30  35
ENDBRANCH   1  30
BRANCH   7  37
HETATM   37  N9  UNL     1     159.714   6.443  34.223  1.00  0.00    -0.299 N
HETATM   38  C16 UNL     1     159.575   5.956  35.409  1.00  0.00     0.137 C
ATOM     39  H9  UNL     1     158.979   6.297  33.531  1.00  0.00     0.186 HD
BRANCH  38  40
HETATM   40  C17 UNL     1     158.383   5.195  35.790  1.00  0.00     0.049 A
HETATM   41  C18 UNL     1     158.502   3.868  36.144  1.00  0.00     0.031 A
HETATM   42  C19 UNL     1     157.383   3.127  36.509  1.00  0.00     0.004 A
HETATM   43  C20 UNL     1     156.125   3.736  36.517  1.00  0.00     0.017 A
HETATM   44  C21 UNL     1     156.059   5.053  36.158  1.00  0.00     0.088 A
HETATM   45  N10 UNL     1     157.165   5.744  35.810  1.00  0.00    -0.365 N
ATOM     46  H10 UNL     1     157.067   6.726  35.550  1.00  0.00     0.165 HD
ENDBRANCH  38  40
ENDBRANCH   7  37
TORSDOF 11
ENDMDL