MODEL 3
REMARK VINA RESULT: -7.628431326      1.437      1.610
REMARK  11 active torsions:
REMARK  status: ('A' for Active; 'I' for Inactive)
REMARK    1  A    between atoms: O1_2  and  C2_3
REMARK    2  A    between atoms: C2_3  and  C3_5
REMARK    3  A    between atoms: C3_5  and  N1_6
REMARK    4  A    between atoms: C3_5  and  C15_31
REMARK    5  A    between atoms: N1_6  and  C4_8
REMARK    6  A    between atoms: C7_11  and  C8_12
REMARK    7  A    between atoms: C8_12  and  N4_17
REMARK       I    between atoms: N4_17  and  C10_19
REMARK       I    between atoms: C10_19  and  N5_21
REMARK    8  A    between atoms: N5_21  and  N6_23
REMARK    9  A    between atoms: C11_25  and  C12_26
REMARK   10  A    between atoms: N10_36  and  C16_37
REMARK   11  A    between atoms: C17_43  and  N13_44
ROOT
HETATM    1  C8  UNL     1     160.939  11.077  32.327  1.00  0.00     0.128 C
HETATM    2  N2  UNL     1     160.666  10.586  31.139  1.00  0.00    -0.279 N
ATOM      3  H2  UNL     1     160.426  11.217  30.375  1.00  0.00     0.179 HD
HETATM    4  C9  UNL     1     160.701   9.210  30.911  1.00  0.00     0.183 C
HETATM    5  N3  UNL     1     160.732   8.074  30.741  1.00  0.00    -0.172 NA
ENDROOT
BRANCH   1   6
HETATM    6  C7  UNL     1     161.282  10.188  33.423  1.00  0.00     0.009 A
HETATM    7  C6  UNL     1     160.336   9.410  34.059  1.00  0.00     0.017 A
HETATM    8  C5  UNL     1     160.677   8.543  35.100  1.00  0.00     0.030 A
HETATM    9  C4  UNL     1     161.962   8.407  35.556  1.00  0.00     0.029 A
HETATM   10  C14 UNL     1     162.911   9.203  34.899  1.00  0.00     0.030 A
HETATM   11  C13 UNL     1     162.589  10.059  33.874  1.00  0.00     0.017 A
BRANCH   9  12
HETATM   12  N1  UNL     1     162.380   7.555  36.600  1.00  0.00    -0.370 N
ATOM     13  H1  UNL     1     162.720   8.030  37.436  1.00  0.00     0.161 HD
BRANCH  12  14
HETATM   14  C3  UNL     1     162.399   6.141  36.662  1.00  0.00     0.253 C
BRANCH  14  15
HETATM   15  C2  UNL     1     162.985   5.479  35.470  1.00  0.00     0.289 C
HETATM   16  O2  UNL     1     164.231   5.451  35.298  1.00  0.00    -0.262 OA
BRANCH  15  17
HETATM   17  O1  UNL     1     162.219   4.869  34.505  1.00  0.00    -0.325 OA
HETATM   18  C1  UNL     1     161.851   5.500  33.276  1.00  0.00     0.213 C
ENDBRANCH  15  17
ENDBRANCH  14  15
BRANCH  14  19
HETATM   19  C15 UNL     1     161.183   5.459  37.105  1.00  0.00     0.146 A
HETATM   20  N8  UNL     1     160.972   4.758  38.207  1.00  0.00    -0.269 N
HETATM   21  N9  UNL     1     159.760   4.317  38.221  1.00  0.00    -0.218 N
ATOM     22  H8  UNL     1     161.665   4.591  38.936  1.00  0.00     0.190 HD
HETATM   23  N10 UNL     1     159.131   4.712  37.131  1.00  0.00    -0.158 N
ATOM     24  H9  UNL     1     159.350   3.750  38.964  1.00  0.00     0.210 HD
HETATM   25  N14 UNL     1     159.996   5.420  36.429  1.00  0.00    -0.261 N
ATOM     26  H14 UNL     1     159.809   5.864  35.530  1.00  0.00     0.190 HD
BRANCH  23  27
HETATM   27  C16 UNL     1     157.764   4.406  36.812  1.00  0.00     0.214 A
HETATM   28  N11 UNL     1     157.236   3.202  36.503  1.00  0.00    -0.219 N
HETATM   29  O4  UNL     1     155.955   3.323  36.274  1.00  0.00    -0.153 OA
ATOM     30  H11 UNL     1     157.759   2.328  36.456  1.00  0.00     0.198 HD
HETATM   31  N12 UNL     1     155.591   4.560  36.415  1.00  0.00    -0.222 N
HETATM   32  C17 UNL     1     156.698   5.277  36.754  1.00  0.00     0.171 A
ATOM     33  H12 UNL     1     154.648   4.929  36.295  1.00  0.00     0.198 HD
BRANCH  32  34
HETATM   34  N13 UNL     1     156.754   6.562  36.987  1.00  0.00    -0.381 N
ATOM     35 2H13 UNL     1     156.093   7.269  36.664  1.00  0.00     0.157 HD
ATOM     36 1H13 UNL     1     157.476   7.034  37.531  1.00  0.00     0.157 HD
ENDBRANCH  32  34
ENDBRANCH  23  27
ENDBRANCH  14  19
ENDBRANCH  12  14
ENDBRANCH   9  12
ENDBRANCH   1   6
BRANCH   1  37
HETATM   37  N4  UNL     1     160.887  12.474  32.500  1.00  0.00    -0.292 N
HETATM   38  C10 UNL     1     162.018  13.284  32.308  1.00  0.00     0.340 C
HETATM   39  O3  UNL     1     163.113  12.805  31.983  1.00  0.00    -0.245 OA
HETATM   40  N5  UNL     1     161.923  14.681  32.484  1.00  0.00    -0.252 N
ATOM     41  H5  UNL     1     161.032  15.098  32.757  1.00  0.00     0.191 HD
ATOM     42  H4  UNL     1     160.004  12.908  32.771  1.00  0.00     0.172 HD
BRANCH  40  43
HETATM   43  N6  UNL     1     163.026  15.488  32.290  1.00  0.00    -0.305 N
HETATM   44  C11 UNL     1     162.901  16.749  32.108  1.00  0.00     0.145 C
ATOM     45  H6  UNL     1     163.958  15.072  32.291  1.00  0.00     0.186 HD
BRANCH  44  46
HETATM   46  C12 UNL     1     164.078  17.583  31.905  1.00  0.00     0.129 C
HETATM   47  N7  UNL     1     164.875  17.946  33.021  1.00  0.00    -0.088 NA
HETATM   48  S1  UNL     1     164.448  18.071  30.400  1.00  0.00    -0.062 SA
ENDBRANCH  44  46
ENDBRANCH  40  43
ENDBRANCH   1  37
TORSDOF 11
ENDMDL