MODEL 1
REMARK VINA RESULT: -7.713531644      0.000      0.000
REMARK  11 active torsions:
REMARK  status: ('A' for Active; 'I' for Inactive)
REMARK    1  A    between atoms: N1_1  and  C1_4
REMARK    2  A    between atoms: C2_10  and  N4_11
REMARK    3  A    between atoms: C3_16  and  C4_17
REMARK    4  A    between atoms: C4_17  and  N7_18
REMARK    5  A    between atoms: N7_18  and  N8_19
REMARK       I    between atoms: N8_19  and  C5_21
REMARK    6  A    between atoms: C5_21  and  C6_23
REMARK    7  A    between atoms: C9_28  and  N10_29
REMARK    8  A    between atoms: N10_29  and  N11_31
REMARK    9  A    between atoms: C10_34  and  C11_35
REMARK   10  A    between atoms: C14_41  and  C15_42
REMARK       I    between atoms: C15_42  and  N13_44
REMARK   11  A    between atoms: N13_44  and  C16_46
ROOT
HETATM    1  N4  UNL     1     163.636  14.385  32.751  1.00  0.00    -0.212 N
HETATM    2  N5  UNL     1     164.903  14.444  33.235  1.00  0.00    -0.233 N
ATOM      3  H5  UNL     1     165.604  15.125  32.941  1.00  0.00     0.209 HD
HETATM    4  N6  UNL     1     165.103  13.507  34.133  1.00  0.00    -0.281 N
ATOM      5  H6  UNL     1     165.973  13.344  34.641  1.00  0.00     0.188 HD
HETATM    6  C3  UNL     1     163.936  12.775  34.275  1.00  0.00     0.114 A
HETATM    7  C14 UNL     1     163.081  13.361  33.406  1.00  0.00     0.158 A
ENDROOT
BRANCH   6   8
HETATM    8  C4  UNL     1     163.746  11.724  35.267  1.00  0.00     0.242 C
BRANCH   8   9
HETATM    9  N7  UNL     1     163.310  10.622  34.953  1.00  0.00    -0.333 NA
BRANCH   9  10
HETATM   10  N8  UNL     1     163.057   9.384  34.846  1.00  0.00    -0.197 N
HETATM   11  C5  UNL     1     162.861   8.571  33.602  1.00  0.00     0.304 C
HETATM   12  O2  UNL     1     163.016   9.299  32.600  1.00  0.00    -0.263 OA
ATOM     13  H8  UNL     1     162.976   8.872  35.725  1.00  0.00     0.205 HD
BRANCH  11  14
HETATM   14  C6  UNL     1     162.544   7.190  33.802  1.00  0.00     0.146 A
HETATM   15  N9  UNL     1     161.176   7.526  34.544  1.00  0.00    -0.345 N
HETATM   16  C7  UNL     1     160.406   6.669  34.978  1.00  0.00     0.052 A
ATOM     17  H9  UNL     1     160.924   8.507  34.666  1.00  0.00     0.167 HD
HETATM   18  C8  UNL     1     159.151   6.897  35.642  1.00  0.00     0.062 A
HETATM   19  C13 UNL     1     160.764   5.367  34.808  1.00  0.00     0.035 A
HETATM   20  C9  UNL     1     158.415   5.840  36.050  1.00  0.00     0.065 A
HETATM   21  C10 UNL     1     158.761   4.532  35.892  1.00  0.00     0.058 A
HETATM   22  C12 UNL     1     159.954   4.292  35.261  1.00  0.00     0.040 A
HETATM   23  S1  UNL     1     162.176   5.589  34.034  1.00  0.00    -0.065 SA
BRANCH  20  24
HETATM   24  N10 UNL     1     157.173   6.133  36.706  1.00  0.00    -0.306 N
ATOM     25  H10 UNL     1     156.352   5.574  36.475  1.00  0.00     0.186 HD
BRANCH  24  26
HETATM   26  N11 UNL     1     157.047   7.149  37.644  1.00  0.00    -0.345 N
ATOM     27 2H11 UNL     1     157.528   8.030  37.458  1.00  0.00     0.176 HD
ATOM     28 1H11 UNL     1     156.499   7.043  38.498  1.00  0.00     0.176 HD
ENDBRANCH  24  26
ENDBRANCH  20  24
BRANCH  21  29
HETATM   29  C11 UNL     1     157.942   3.406  36.314  1.00  0.00     0.267 C
HETATM   30  N12 UNL     1     158.593   2.262  36.913  1.00  0.00    -0.057 NA
HETATM   31  O3  UNL     1     156.721   3.420  36.172  1.00  0.00    -0.271 OA
ENDBRANCH  21  29
ENDBRANCH  11  14
ENDBRANCH   9  10
ENDBRANCH   8   9
ENDBRANCH   6   8
BRANCH   7  32
HETATM   32  C15 UNL     1     161.688  12.947  33.175  1.00  0.00     0.273 C
HETATM   33  O4  UNL     1     160.784  13.627  33.716  1.00  0.00    -0.266 OA
HETATM   34  N13 UNL     1     161.358  11.847  32.379  1.00  0.00    -0.351 N
ATOM     35  H13 UNL     1     162.117  11.333  31.933  1.00  0.00     0.163 HD
BRANCH  34  36
HETATM   36  C16 UNL     1     159.980  11.387  32.144  1.00  0.00     0.085 A
HETATM   37  C17 UNL     1     159.551  10.093  32.858  1.00  0.00     0.027 A
HETATM   38  C18 UNL     1     159.884  10.089  31.409  1.00  0.00     0.027 A
ENDBRANCH  34  36
ENDBRANCH   7  32
BRANCH   1  39
HETATM   39  C2  UNL     1     163.183  15.246  31.737  1.00  0.00     0.196 A
HETATM   40  C1  UNL     1     163.320  16.614  31.651  1.00  0.00     0.169 A
HETATM   41  N2  UNL     1     162.852  16.947  30.457  1.00  0.00    -0.222 N
HETATM   42  O1  UNL     1     162.446  15.886  29.822  1.00  0.00    -0.153 OA
ATOM     43  H2  UNL     1     162.815  17.897  30.088  1.00  0.00     0.198 HD
HETATM   44  N3  UNL     1     162.622  14.834  30.547  1.00  0.00    -0.220 N
ATOM     45  H3  UNL     1     162.389  13.876  30.287  1.00  0.00     0.198 HD
BRANCH  40  46
HETATM   46  N1  UNL     1     163.931  17.386  32.540  1.00  0.00    -0.381 N
ATOM     47  H12 UNL     1     163.773  18.386  32.666  1.00  0.00     0.157 HD
ATOM     48  H11 UNL     1     164.555  17.108  33.297  1.00  0.00     0.157 HD
ENDBRANCH  40  46
ENDBRANCH   1  39
TORSDOF 11
ENDMDL