MODEL 2
REMARK VINA RESULT: -7.222943274      2.351      3.501
REMARK  14 active torsions:
REMARK  status: ('A' for Active; 'I' for Inactive)
REMARK    1  A    between atoms: C2_2  and  C4_4
REMARK    2  A    between atoms: C4_4  and  N1_5
REMARK    3  A    between atoms: C4_4  and  C5_9
REMARK    4  A    between atoms: C5_9  and  O1_10
REMARK    5  A    between atoms: C5_9  and  N2_12
REMARK    6  A    between atoms: N2_12  and  C6_14
REMARK    7  A    between atoms: C7_17  and  C8_18
REMARK    8  A    between atoms: C8_18  and  O2_19
REMARK    9  A    between atoms: C8_18  and  N4_21
REMARK   10  A    between atoms: N5_24  and  C11_25
REMARK   11  A    between atoms: C12_28  and  N7_29
REMARK   12  A    between atoms: N10_37  and  C14_38
REMARK   13  A    between atoms: C15_39  and  C16_40
REMARK   14  A    between atoms: C16_40  and  O3_41
ROOT
HETATM    1  N4  UNL     1     160.647   9.434  32.242  1.00  0.00    -0.380 N
HETATM    2  C9  UNL     1     160.554   9.873  30.897  1.00  0.00     0.140 C
HETATM    3  C10 UNL     1     160.542   8.721  29.937  1.00  0.00     0.160 C
HETATM    4  N5  UNL     1     161.411   7.675  30.410  1.00  0.00    -0.214 N
HETATM    5  C18 UNL     1     162.324   7.779  31.515  1.00  0.00     0.160 C
HETATM    6  C19 UNL     1     161.877   8.729  32.568  1.00  0.00     0.140 C
ENDROOT
BRANCH   1   7
HETATM    7  C8  UNL     1     160.270  10.341  33.258  1.00  0.00     0.267 C
BRANCH   7   8
HETATM    8  C7  UNL     1     161.315  11.412  33.514  1.00  0.00     0.066 A
HETATM    9  N3  UNL     1     161.155  12.642  33.092  1.00  0.00    -0.336 N
HETATM   10  C6  UNL     1     162.111  13.531  33.301  1.00  0.00     0.146 A
ATOM     11  H3  UNL     1     160.300  12.911  32.606  1.00  0.00     0.168 HD
HETATM   12  S1  UNL     1     163.305  12.605  34.133  1.00  0.00    -0.064 SA
HETATM   13  C20 UNL     1     162.480  11.110  34.158  1.00  0.00     0.082 A
BRANCH  10  14
HETATM   14  N2  UNL     1     162.168  14.787  32.969  1.00  0.00    -0.342 N
ATOM     15  H2  UNL     1     162.132  15.497  33.700  1.00  0.00     0.164 HD
BRANCH  14  16
HETATM   16  C5  UNL     1     162.278  15.193  31.613  1.00  0.00     0.250 C
BRANCH  16  17
HETATM   17  C4  UNL     1     163.631  15.848  31.441  1.00  0.00     0.235 C
BRANCH  17  18
HETATM   18  C2  UNL     1     163.530  17.335  31.596  1.00  0.00     0.012 C
HETATM   19  C1  UNL     1     164.683  17.951  32.337  1.00  0.00     0.012 C
HETATM   20  C3  UNL     1     163.387  17.996  30.260  1.00  0.00     0.012 C
ENDBRANCH  17  18
BRANCH  17  21
HETATM   21  N1  UNL     1     164.214  15.476  30.182  1.00  0.00    -0.070 N
ATOM     22  H13 UNL     1     163.824  16.026  29.417  1.00  0.00     0.274 HD
ATOM     23  H12 UNL     1     165.185  15.782  30.120  1.00  0.00     0.274 HD
ATOM     24  H11 UNL     1     164.129  14.477  30.002  1.00  0.00     0.274 HD
ENDBRANCH  17  21
ENDBRANCH  16  17
BRANCH  16  25
HETATM   25  O1  UNL     1     162.183  14.055  30.788  1.00  0.00    -0.375 OA
ATOM     26  H1  UNL     1     162.636  14.208  29.966  1.00  0.00     0.212 HD
ENDBRANCH  16  25
ENDBRANCH  14  16
ENDBRANCH  10  14
ENDBRANCH   7   8
BRANCH   7  27
HETATM   27  O2  UNL     1     159.032  10.923  33.017  1.00  0.00    -0.371 OA
ATOM     28  H2  UNL     1     159.011  11.303  32.147  1.00  0.00     0.212 HD
ENDBRANCH   7  27
ENDBRANCH   1   7
BRANCH   4  29
HETATM   29  C11 UNL     1     161.340   6.433  29.696  1.00  0.00     0.683 A
HETATM   30  N6  UNL     1     160.113   5.954  29.358  1.00  0.00    -0.175 N
HETATM   31  C12 UNL     1     160.002   4.797  28.710  1.00  0.00     0.147 A
ATOM     32  H6  UNL     1     159.277   6.483  29.603  1.00  0.00     0.186 HD
HETATM   33  C13 UNL     1     161.143   4.099  28.391  1.00  0.00     0.140 A
HETATM   34  N8  UNL     1     161.385   2.938  27.770  1.00  0.00    -0.279 N
HETATM   35  C17 UNL     1     162.416   4.587  28.737  1.00  0.00     0.175 A
HETATM   36  N9  UNL     1     162.677   2.721  27.731  1.00  0.00    -0.234 N
ATOM     37  H8  UNL     1     160.673   2.317  27.386  1.00  0.00     0.189 HD
HETATM   38  N10 UNL     1     163.350   3.738  28.331  1.00  0.00    -0.234 N
ATOM     39  H9  UNL     1     163.115   1.902  27.311  1.00  0.00     0.209 HD
HETATM   40  N11 UNL     1     162.440   5.755  29.385  1.00  0.00    -0.172 N
ATOM     41  H11 UNL     1     163.343   6.144  29.655  1.00  0.00     0.186 HD
BRANCH  31  42
HETATM   42  N7  UNL     1     158.849   4.296  28.365  1.00  0.00    -0.383 N
ATOM     43  H72 UNL     1     158.108   4.935  28.075  1.00  0.00     0.157 HD
ATOM     44  H71 UNL     1     158.662   3.293  28.373  1.00  0.00     0.157 HD
ENDBRANCH  31  42
BRANCH  38  45
HETATM   45  C14 UNL     1     164.736   3.763  28.452  1.00  0.00     0.118 C
HETATM   46  C15 UNL     1     165.545   3.756  29.453  1.00  0.00     0.018 C
BRANCH  46  47
HETATM   47  C16 UNL     1     167.043   3.788  29.147  1.00  0.00     0.192 C
BRANCH  47  48
HETATM   48  O3  UNL     1     167.522   5.076  29.124  1.00  0.00    -0.397 OA
ATOM     49  H3  UNL     1     166.813   5.708  29.107  1.00  0.00     0.209 HD
ENDBRANCH  47  48
ENDBRANCH  46  47
ENDBRANCH  38  45
ENDBRANCH   4  29
TORSDOF 14
ENDMDL