MODEL 2
REMARK VINA RESULT: -7.932126182      1.592      2.526
REMARK  12 active torsions:
REMARK  status: ('A' for Active; 'I' for Inactive)
REMARK    1  A    between atoms: N1_1  and  C1_4
REMARK    2  A    between atoms: C3_8  and  C4_9
REMARK    3  A    between atoms: N3_10  and  N4_12
REMARK    4  A    between atoms: N4_12  and  C5_14
REMARK    5  A    between atoms: C5_14  and  O1_15
REMARK    6  A    between atoms: C5_14  and  C6_17
REMARK       I    between atoms: C6_17  and  N5_19
REMARK    7  A    between atoms: N5_19  and  S1_21
REMARK    8  A    between atoms: S1_21  and  C7_24
REMARK    9  A    between atoms: C7_24  and  C8_25
REMARK   10  A    between atoms: C12_30  and  O5_31
REMARK   11  A    between atoms: C13_33  and  N6_34
REMARK   12  A    between atoms: N7_41  and  N8_42
ROOT
HETATM    1  C1  UNL     1     165.494   4.865  29.667  1.00  0.00     0.700 A
HETATM    2  N2  UNL     1     164.252   5.330  29.966  1.00  0.00    -0.188 N
ATOM      3  H2  UNL     1     164.172   6.097  30.633  1.00  0.00     0.184 HD
HETATM    4  C2  UNL     1     163.129   4.835  29.430  1.00  0.00     0.079 A
HETATM    5  C3  UNL     1     161.849   5.320  29.742  1.00  0.00     0.045 A
HETATM    6  C12 UNL     1     160.729   4.756  29.146  1.00  0.00     0.112 A
HETATM    7  C13 UNL     1     160.871   3.692  28.224  1.00  0.00     0.138 A
HETATM    8  C14 UNL     1     162.139   3.261  27.957  1.00  0.00     0.058 A
HETATM    9  C15 UNL     1     163.263   3.801  28.534  1.00  0.00     0.065 A
HETATM   10  C16 UNL     1     164.534   3.335  28.236  1.00  0.00     0.294 A
HETATM   11  O8  UNL     1     164.633   2.398  27.420  1.00  0.00    -0.265 OA
HETATM   12  N7  UNL     1     165.636   3.858  28.794  1.00  0.00    -0.054 N
ENDROOT
BRANCH   5  13
HETATM   13  C4  UNL     1     161.743   6.410  30.689  1.00  0.00     0.123 C
HETATM   14  N3  UNL     1     161.330   7.599  30.453  1.00  0.00    -0.313 N
ATOM     15  H3  UNL     1     161.041   7.812  29.499  1.00  0.00     0.185 HD
BRANCH  14  16
HETATM   16  N4  UNL     1     161.242   8.619  31.383  1.00  0.00    -0.300 N
ATOM     17  H4  UNL     1     162.085   8.882  31.894  1.00  0.00     0.183 HD
BRANCH  16  18
HETATM   18  C5  UNL     1     160.003   9.340  31.671  1.00  0.00     0.327 C
BRANCH  18  19
HETATM   19  O1  UNL     1     159.139   9.347  30.583  1.00  0.00    -0.367 OA
ATOM     20  H1  UNL     1     158.368   8.814  30.736  1.00  0.00     0.212 HD
ENDBRANCH  18  19
BRANCH  18  21
HETATM   21  C6  UNL     1     160.331  10.750  32.003  1.00  0.00     0.281 C
HETATM   22  O2  UNL     1     159.370  11.527  32.228  1.00  0.00    -0.268 OA
HETATM   23  N5  UNL     1     161.656  11.249  32.074  1.00  0.00    -0.250 N
ATOM     24  H5  UNL     1     162.448  10.631  31.895  1.00  0.00     0.181 HD
BRANCH  23  25
HETATM   25  S1  UNL     1     161.918  12.899  32.465  1.00  0.00     0.237 S
HETATM   26  O3  UNL     1     160.992  13.350  33.565  1.00  0.00    -0.205 OA
HETATM   27  O4  UNL     1     161.624  13.769  31.276  1.00  0.00    -0.205 OA
BRANCH  25  28
HETATM   28  C7  UNL     1     163.601  13.180  33.022  1.00  0.00     0.209 C
BRANCH  28  29
HETATM   29  C8  UNL     1     163.803  12.224  34.175  1.00  0.00    -0.002 A
HETATM   30  C9  UNL     1     163.616  12.473  35.510  1.00  0.00     0.016 A
HETATM   31  C10 UNL     1     163.857  11.470  36.361  1.00  0.00     0.008 A
HETATM   32  C11 UNL     1     164.271  10.279  35.833  1.00  0.00     0.050 A
HETATM   33  S2  UNL     1     164.311  10.596  34.158  1.00  0.00    -0.105 SA
ENDBRANCH  28  29
ENDBRANCH  25  28
ENDBRANCH  23  25
ENDBRANCH  18  21
ENDBRANCH  16  18
ENDBRANCH  14  16
ENDBRANCH   5  13
BRANCH   6  34
HETATM   34  O5  UNL     1     159.442   5.131  29.361  1.00  0.00    -0.357 OA
ATOM     35  H5  UNL     1     158.807   5.347  28.688  1.00  0.00     0.217 HD
ENDBRANCH   6  34
BRANCH   7  36
HETATM   36  N6  UNL     1     159.716   3.110  27.608  1.00  0.00    -0.113 N
HETATM   37  O6  UNL     1     159.486   1.907  27.814  1.00  0.00    -0.532 OA
HETATM   38  O7  UNL     1     158.859   3.816  26.808  1.00  0.00    -0.532 OA
ENDBRANCH   7  36
BRANCH   1  39
HETATM   39  N1  UNL     1     166.553   5.378  30.214  1.00  0.00    -0.233 N
ATOM     40  H12 UNL     1     166.612   5.424  31.231  1.00  0.00     0.174 HD
ATOM     41  H11 UNL     1     167.321   5.735  29.644  1.00  0.00     0.174 HD
ENDBRANCH   1  39
BRANCH  12  42
HETATM   42  N8  UNL     1     166.921   3.405  28.510  1.00  0.00    -0.321 N
ATOM     43  H82 UNL     1     167.764   3.858  28.865  1.00  0.00     0.178 HD
ATOM     44  H81 UNL     1     167.025   2.581  27.918  1.00  0.00     0.178 HD
ENDBRANCH  12  42
TORSDOF 12
ENDMDL