MODEL 3
REMARK VINA RESULT: -7.732623431      3.157      5.596
REMARK  11 active torsions:
REMARK  status: ('A' for Active; 'I' for Inactive)
REMARK    1  A    between atoms: O1_2  and  C2_3
REMARK    2  A    between atoms: C2_3  and  C3_5
REMARK    3  A    between atoms: C3_5  and  S1_6
REMARK    4  A    between atoms: S1_6  and  C4_7
REMARK    5  A    between atoms: C4_7  and  C5_8
REMARK    6  A    between atoms: N5_21  and  N6_23
REMARK       I    between atoms: N6_23  and  C11_25
REMARK       I    between atoms: C11_25  and  N7_27
REMARK    7  A    between atoms: N7_27  and  C12_29
REMARK    8  A    between atoms: C12_29  and  C13_30
REMARK       I    between atoms: C13_30  and  N8_32
REMARK    9  A    between atoms: N8_32  and  O5_34
REMARK   10  A    between atoms: O5_34  and  C14_35
REMARK   11  A    between atoms: C16_41  and  O6_42
ROOT
HETATM    1  C5  UNL     1     160.402   7.512  35.083  1.00  0.00     0.069 A
HETATM    2  N1  UNL     1     160.871   8.266  36.080  1.00  0.00    -0.300 N
ATOM      3  H1  UNL     1     160.294   8.456  36.900  1.00  0.00     0.186 HD
HETATM    4  N2  UNL     1     162.083   8.761  35.993  1.00  0.00    -0.293 N
ATOM      5  H2  UNL     1     162.426   9.334  36.763  1.00  0.00     0.187 HD
HETATM    6  C6  UNL     1     162.906   8.551  34.932  1.00  0.00     0.106 A
HETATM    7  S2  UNL     1     164.479   9.202  34.832  1.00  0.00    -0.054 SA
HETATM    8  C7  UNL     1     165.273   8.773  33.396  1.00  0.00     0.112 A
HETATM    9  N3  UNL     1     166.605   9.208  33.100  1.00  0.00    -0.093 NA
HETATM   10  C8  UNL     1     164.538   7.969  32.524  1.00  0.00     0.104 A
HETATM   11  C9  UNL     1     165.280   7.632  31.302  1.00  0.00     0.104 C
HETATM   12  N4  UNL     1     165.900   7.378  30.334  1.00  0.00    -0.191 NA
HETATM   13  C10 UNL     1     163.272   7.511  32.725  1.00  0.00     0.087 A
HETATM   14  N5  UNL     1     162.668   6.783  31.878  1.00  0.00    -0.294 N
ATOM     15  H5  UNL     1     161.730   6.531  32.188  1.00  0.00     0.187 HD
HETATM   16  C15 UNL     1     162.502   7.794  33.877  1.00  0.00     0.064 A
HETATM   17  C16 UNL     1     161.202   7.274  33.992  1.00  0.00     0.105 A
ENDROOT
BRANCH  14  18
HETATM   18  N6  UNL     1     162.959   6.265  30.678  1.00  0.00    -0.251 N
HETATM   19  C11 UNL     1     162.267   5.158  30.075  1.00  0.00     0.335 C
HETATM   20  O3  UNL     1     161.319   4.611  30.677  1.00  0.00    -0.246 OA
HETATM   21  N7  UNL     1     162.620   4.640  28.787  1.00  0.00    -0.333 N
ATOM     22  H7  UNL     1     163.391   5.074  28.278  1.00  0.00     0.164 HD
ATOM     23  H6  UNL     1     163.727   6.686  30.154  1.00  0.00     0.191 HD
BRANCH  21  24
HETATM   24  C12 UNL     1     161.935   3.543  28.190  1.00  0.00     0.229 C
BRANCH  24  25
HETATM   25  C13 UNL     1     160.794   3.971  27.376  1.00  0.00     0.259 C
HETATM   26  O4  UNL     1     160.981   4.802  26.400  1.00  0.00    -0.270 OA
HETATM   27  N8  UNL     1     159.458   3.567  27.544  1.00  0.00    -0.225 N
ATOM     28  H8  UNL     1     159.221   2.914  28.291  1.00  0.00     0.198 HD
BRANCH  27  29
HETATM   29  O5  UNL     1     158.448   4.049  26.698  1.00  0.00    -0.202 OA
BRANCH  29  30
HETATM   30  C14 UNL     1     158.437   3.628  25.356  1.00  0.00     0.249 C
HETATM   31  N9  UNL     1     158.732   4.511  24.476  1.00  0.00    -0.366 N
ATOM     32  H92 UNL     1     158.965   5.474  24.722  1.00  0.00     0.159 HD
ATOM     33  H91 UNL     1     158.725   4.206  23.502  1.00  0.00     0.159 HD
HETATM   34  N10 UNL     1     158.113   2.284  25.012  1.00  0.00    -0.055 NA
ENDBRANCH  29  30
ENDBRANCH  27  29
ENDBRANCH  24  25
ENDBRANCH  21  24
ENDBRANCH  14  18
BRANCH  17  35
HETATM   35  O6  UNL     1     160.726   6.485  32.937  1.00  0.00    -0.358 OA
ATOM     36  H6  UNL     1     160.327   6.898  32.180  1.00  0.00     0.217 HD
ENDBRANCH  17  35
BRANCH   1  37
HETATM   37  C4  UNL     1     159.029   6.914  35.126  1.00  0.00     0.135 C
BRANCH  37  38
HETATM   38  S1  UNL     1     159.079   5.227  35.733  1.00  0.00    -0.153 SA
BRANCH  38  39
HETATM   39  C3  UNL     1     157.708   4.894  36.870  1.00  0.00     0.185 C
BRANCH  39  40
HETATM   40  C2  UNL     1     156.961   3.713  36.379  1.00  0.00     0.267 C
HETATM   41  O2  UNL     1     157.516   2.594  36.286  1.00  0.00    -0.264 OA
BRANCH  40  42
HETATM   42  O1  UNL     1     155.623   3.783  36.000  1.00  0.00    -0.326 OA
HETATM   43  C1  UNL     1     154.975   5.021  35.814  1.00  0.00     0.213 C
ENDBRANCH  40  42
ENDBRANCH  39  40
ENDBRANCH  38  39
ENDBRANCH  37  38
ENDBRANCH   1  37
TORSDOF 11
ENDMDL