MODEL 3
REMARK VINA RESULT: -7.548073240      5.166      9.129
REMARK  12 active torsions:
REMARK  status: ('A' for Active; 'I' for Inactive)
REMARK       I    between atoms: C2_5  and  N3_6
REMARK       I    between atoms: C2_5  and  N11_41
REMARK    1  A    between atoms: N3_6  and  C3_8
REMARK    2  A    between atoms: C3_8  and  C4_9
REMARK    3  A    between atoms: C4_9  and  S1_10
REMARK    4  A    between atoms: S1_10  and  C5_11
REMARK    5  A    between atoms: C7_15  and  C8_16
REMARK    6  A    between atoms: C8_16  and  N5_17
REMARK    7  A    between atoms: C8_16  and  N6_21
REMARK       I    between atoms: N6_21  and  C9_23
REMARK    8  A    between atoms: C9_23  and  C10_25
REMARK    9  A    between atoms: C14_30  and  C15_31
REMARK   10  A    between atoms: C15_31  and  N8_32
REMARK   11  A    between atoms: N8_32  and  O2_34
REMARK   12  A    between atoms: N11_41  and  C17_43
ROOT
HETATM    1  N1  UNL     1     160.299  10.121  30.032  1.00  0.00    -0.171 NA
HETATM    2  C1  UNL     1     160.476   9.363  30.896  1.00  0.00     0.196 C
HETATM    3  N2  UNL     1     160.672   8.444  31.896  1.00  0.00    -0.126 N
ATOM      4  H2  UNL     1     160.823   7.468  31.639  1.00  0.00     0.197 HD
HETATM    5  C2  UNL     1     160.673   8.753  33.130  1.00  0.00     0.701 C
HETATM    6  N3  UNL     1     160.881   7.728  34.083  1.00  0.00    -0.224 N
ATOM      7  H3  UNL     1     161.021   6.781  33.730  1.00  0.00     0.177 HD
HETATM    8  N11 UNL     1     160.463  10.074  33.557  1.00  0.00    -0.022 N
ATOM      9  H11 UNL     1     159.729  10.258  34.242  1.00  0.00     0.203 HD
ENDROOT
BRANCH   6  10
HETATM   10  C3  UNL     1     160.910   7.916  35.513  1.00  0.00     0.148 C
BRANCH  10  11
HETATM   11  C4  UNL     1     162.272   7.712  36.088  1.00  0.00     0.102 C
BRANCH  11  12
HETATM   12  S1  UNL     1     162.658   9.043  37.289  1.00  0.00    -0.091 SA
BRANCH  12  13
HETATM   13  C5  UNL     1     163.865  10.158  36.591  1.00  0.00     0.159 A
HETATM   14  N4  UNL     1     163.734  11.493  36.644  1.00  0.00    -0.344 N
HETATM   15  C6  UNL     1     164.623  12.361  36.130  1.00  0.00     0.120 A
ATOM     16  H4  UNL     1     162.908  11.873  37.106  1.00  0.00     0.167 HD
HETATM   17  C7  UNL     1     165.757  11.861  35.498  1.00  0.00     0.090 A
HETATM   18  N9  UNL     1     165.869  10.523  35.454  1.00  0.00    -0.298 N
HETATM   19  N10 UNL     1     164.983   9.689  35.966  1.00  0.00    -0.280 N
ATOM     20  H9  UNL     1     166.690  10.127  34.996  1.00  0.00     0.187 HD
ATOM     21  H10 UNL     1     165.137   8.683  35.894  1.00  0.00     0.189 HD
BRANCH  17  22
HETATM   22  C8  UNL     1     166.783  12.755  34.904  1.00  0.00     0.337 C
BRANCH  22  23
HETATM   23  N5  UNL     1     167.632  12.068  33.968  1.00  0.00    -0.053 N
ATOM     24  H53 UNL     1     167.783  11.099  34.249  1.00  0.00     0.277 HD
ATOM     25  H52 UNL     1     167.150  11.907  33.083  1.00  0.00     0.277 HD
ATOM     26  H51 UNL     1     168.519  12.550  33.821  1.00  0.00     0.277 HD
ENDBRANCH  22  23
BRANCH  22  27
HETATM   27  N6  UNL     1     166.057  13.781  34.137  1.00  0.00    -0.324 N
HETATM   28  C9  UNL     1     166.704  14.929  33.640  1.00  0.00     0.253 C
HETATM   29  O1  UNL     1     167.926  15.135  33.822  1.00  0.00    -0.268 OA
ATOM     30  H6  UNL     1     165.060  13.657  33.963  1.00  0.00     0.165 HD
BRANCH  28  31
HETATM   31  C10 UNL     1     165.935  15.911  32.889  1.00  0.00     0.034 A
HETATM   32  C11 UNL     1     165.903  17.230  33.341  1.00  0.00     0.043 A
HETATM   33  C12 UNL     1     165.210  18.234  32.716  1.00  0.00     0.048 A
HETATM   34  N7  UNL     1     165.205  19.568  33.211  1.00  0.00    -0.102 NA
HETATM   35  C13 UNL     1     164.505  17.876  31.558  1.00  0.00     0.039 A
HETATM   36  C14 UNL     1     164.512  16.594  31.081  1.00  0.00    -0.016 A
HETATM   37  C16 UNL     1     165.237  15.606  31.760  1.00  0.00     0.030 A
BRANCH  36  38
HETATM   38  C15 UNL     1     163.792  16.212  29.894  1.00  0.00     0.125 C
BRANCH  38  39
HETATM   39  N8  UNL     1     162.780  15.495  29.785  1.00  0.00    -0.280 N
ATOM     40  H8  UNL     1     162.966  14.499  29.672  1.00  0.00     0.193 HD
BRANCH  39  41
HETATM   41  O2  UNL     1     161.491  15.833  29.795  1.00  0.00    -0.290 OA
ATOM     42  H2  UNL     1     160.836  15.749  29.112  1.00  0.00     0.244 HD
ENDBRANCH  39  41
ENDBRANCH  38  39
ENDBRANCH  36  38
ENDBRANCH  28  31
ENDBRANCH  22  27
ENDBRANCH  17  22
ENDBRANCH  12  13
ENDBRANCH  11  12
ENDBRANCH  10  11
ENDBRANCH   6  10
BRANCH   8  43
HETATM   43  C17 UNL     1     161.226  11.153  33.076  1.00  0.00     0.688 C
HETATM   44  N12 UNL     1     162.525  11.143  33.181  1.00  0.00    -0.226 N
HETATM   45  C18 UNL     1     163.253  12.280  32.666  1.00  0.00     0.139 C
ATOM     46  H12 UNL     1     163.012  10.358  33.612  1.00  0.00     0.177 HD
HETATM   47  C19 UNL     1     162.528  13.546  33.076  1.00  0.00     0.040 C
HETATM   48  C20 UNL     1     161.151  13.592  32.434  1.00  0.00     0.139 C
HETATM   49  N13 UNL     1     160.573  12.276  32.472  1.00  0.00    -0.226 N
ATOM     50  H13 UNL     1     159.655  12.136  32.050  1.00  0.00     0.177 HD
ENDBRANCH   8  43
TORSDOF 12
ENDMDL