MODEL 5
REMARK VINA RESULT: -7.923842040      3.512      6.742
REMARK  11 active torsions:
REMARK  status: ('A' for Active; 'I' for Inactive)
REMARK    1  A    between atoms: N1_1  and  C1_4
REMARK    2  A    between atoms: C2_10  and  C3_11
REMARK    3  A    between atoms: C4_16  and  C5_17
REMARK    4  A    between atoms: C5_17  and  N6_18
REMARK    5  A    between atoms: N6_18  and  O2_19
REMARK    6  A    between atoms: N6_18  and  C6_21
REMARK    7  A    between atoms: C11_26  and  N7_27
REMARK    8  A    between atoms: N7_27  and  C12_29
REMARK    9  A    between atoms: C14_33  and  C15_34
REMARK   10  A    between atoms: C15_34  and  N9_35
REMARK   11  A    between atoms: C15_34  and  C16_39
REMARK       I    between atoms: C16_39  and  N10_41
ROOT
HETATM    1  C6  UNL     1     161.096   9.097  33.357  1.00  0.00     0.083 A
HETATM    2  C7  UNL     1     160.363  10.233  33.641  1.00  0.00     0.034 A
HETATM    3  C8  UNL     1     159.720  10.919  32.639  1.00  0.00     0.002 A
HETATM    4  C9  UNL     1     159.810  10.467  31.333  1.00  0.00     0.002 A
HETATM    5  C10 UNL     1     160.564   9.309  31.080  1.00  0.00     0.031 A
HETATM    6  C11 UNL     1     161.211   8.613  32.076  1.00  0.00     0.057 A
ENDROOT
BRANCH   1   7
HETATM    7  N6  UNL     1     161.739   8.478  34.426  1.00  0.00    -0.251 N
BRANCH   7   8
HETATM    8  C5  UNL     1     161.177   8.095  35.692  1.00  0.00     0.242 C
BRANCH   8   9
HETATM    9  C4  UNL     1     160.346   6.848  35.561  1.00  0.00     0.161 A
HETATM   10  N5  UNL     1     160.671   5.782  34.809  1.00  0.00    -0.280 N
HETATM   11  N4  UNL     1     159.699   4.882  34.946  1.00  0.00    -0.276 N
ATOM     12  H5  UNL     1     161.509   5.682  34.236  1.00  0.00     0.189 HD
HETATM   13  C3  UNL     1     158.762   5.374  35.780  1.00  0.00     0.197 A
ATOM     14  H4  UNL     1     159.668   3.969  34.494  1.00  0.00     0.189 HD
HETATM   15  O4  UNL     1     159.207   6.567  36.120  1.00  0.00    -0.274 OA
BRANCH  13  16
HETATM   16  C2  UNL     1     157.522   4.723  36.211  1.00  0.00     0.154 A
HETATM   17  C1  UNL     1     156.444   5.252  36.855  1.00  0.00     0.154 A
HETATM   18  N2  UNL     1     155.590   4.218  37.007  1.00  0.00    -0.224 N
HETATM   19  O1  UNL     1     156.085   3.131  36.505  1.00  0.00    -0.155 OA
ATOM     20  H2  UNL     1     154.677   4.284  37.458  1.00  0.00     0.198 HD
HETATM   21  N3  UNL     1     157.249   3.424  36.021  1.00  0.00    -0.234 N
ATOM     22  H3  UNL     1     157.871   2.760  35.560  1.00  0.00     0.197 HD
BRANCH  17  23
HETATM   23  N1  UNL     1     156.309   6.487  37.223  1.00  0.00    -0.382 N
ATOM     24  H12 UNL     1     156.388   6.839  38.177  1.00  0.00     0.157 HD
ATOM     25  H11 UNL     1     156.106   7.311  36.657  1.00  0.00     0.157 HD
ENDBRANCH  17  23
ENDBRANCH  13  16
ENDBRANCH   8   9
ENDBRANCH   7   8
BRANCH   7  26
HETATM   26  O2  UNL     1     163.073   8.191  34.258  1.00  0.00    -0.287 OA
ATOM     27  H2  UNL     1     163.313   7.837  33.409  1.00  0.00     0.244 HD
ENDBRANCH   7  26
ENDBRANCH   1   7
BRANCH   6  28
HETATM   28  N7  UNL     1     161.944   7.449  31.830  1.00  0.00    -0.378 N
ATOM     29  H7  UNL     1     162.881   7.408  32.230  1.00  0.00     0.160 HD
BRANCH  28  30
HETATM   30  C12 UNL     1     161.510   6.286  31.063  1.00  0.00     0.129 C
HETATM   31  C13 UNL     1     161.486   6.606  29.639  1.00  0.00     0.082 C
HETATM   32  N8  UNL     1     161.638   5.812  28.693  1.00  0.00    -0.385 N
HETATM   33  C14 UNL     1     161.869   4.421  28.708  1.00  0.00     0.182 C
ATOM     34  H8  UNL     1     161.587   6.232  27.765  1.00  0.00     0.160 HD
HETATM   35  S1  UNL     1     162.767   3.967  30.203  1.00  0.00    -0.139 SA
HETATM   36  C18 UNL     1     162.346   5.132  31.507  1.00  0.00     0.106 C
BRANCH  33  37
HETATM   37  C15 UNL     1     160.618   3.579  28.521  1.00  0.00     0.307 C
BRANCH  37  38
HETATM   38  N9  UNL     1     160.795   2.196  28.863  1.00  0.00    -0.064 N
ATOM     39  H93 UNL     1     161.137   2.104  29.820  1.00  0.00     0.275 HD
ATOM     40  H92 UNL     1     159.891   1.731  28.959  1.00  0.00     0.275 HD
ATOM     41  H91 UNL     1     161.395   1.686  28.216  1.00  0.00     0.275 HD
ENDBRANCH  37  38
BRANCH  37  42
HETATM   42  C16 UNL     1     160.236   3.682  27.094  1.00  0.00     0.257 C
HETATM   43  O3  UNL     1     160.813   4.519  26.361  1.00  0.00    -0.271 OA
HETATM   44  N10 UNL     1     159.218   2.810  26.625  1.00  0.00    -0.302 N
HETATM   45  C17 UNL     1     158.425   3.212  25.709  1.00  0.00     0.203 C
ATOM     46  H10 UNL     1     159.121   1.873  27.015  1.00  0.00     0.171 HD
HETATM   47  N11 UNL     1     158.555   4.506  25.166  1.00  0.00    -0.066 NA
HETATM   48  N12 UNL     1     157.411   2.347  25.239  1.00  0.00    -0.066 NA
ENDBRANCH  37  42
ENDBRANCH  33  37
ENDBRANCH  28  30
ENDBRANCH   6  28
TORSDOF 11
ENDMDL