MODEL 2
REMARK VINA RESULT: -8.212619295      1.982      8.205
REMARK  9 active torsions:
REMARK  status: ('A' for Active; 'I' for Inactive)
REMARK    1  A    between atoms: C6_6  and  C8_8
REMARK    2  A    between atoms: C8_8  and  N1_9
REMARK       I    between atoms: N1_9  and  C9_11
REMARK    3  A    between atoms: C9_11  and  C10_13
REMARK    4  A    between atoms: C10_13  and  C11_14
REMARK    5  A    between atoms: C10_13  and  N5_22
REMARK    6  A    between atoms: C11_14  and  C12_15
REMARK    7  A    between atoms: C12_15  and  C13_16
REMARK    8  A    between atoms: C13_16  and  N2_17
REMARK       I    between atoms: N5_22  and  C15_24
REMARK    9  A    between atoms: C15_24  and  C16_26
ROOT
HETATM    1  C10 UNL     1      30.210  43.533  34.856  1.00  0.00     0.177 C
ENDROOT
BRANCH   1   2
HETATM    2  C9  UNL     1      29.991  43.458  33.351  1.00  0.00     0.244 C
HETATM    3  N1  UNL     1      28.704  43.418  32.814  1.00  0.00    -0.338 N
ATOM      4  H1  UNL     1      27.939  43.465  33.487  1.00  0.00     0.167 HD
HETATM    5  O1  UNL     1      31.070  43.443  32.706  1.00  0.00    -0.271 OA
BRANCH   3   6
HETATM    6  C8  UNL     1      28.334  43.323  31.483  1.00  0.00     0.073 C
BRANCH   6   7
HETATM    7  C6  UNL     1      27.405  42.316  30.948  1.00  0.00    -0.012 C
HETATM    8  C5  UNL     1      27.921  40.962  30.729  1.00  0.00     0.015 C
HETATM    9  C4  UNL     1      26.922  40.041  30.023  1.00  0.00     0.010 C
HETATM   10  C2  UNL     1      25.574  40.035  30.666  1.00  0.00    -0.048 C
HETATM   11  C1  UNL     1      25.102  38.630  31.017  1.00  0.00     0.015 C
HETATM   12  C3  UNL     1      24.483  40.657  29.831  1.00  0.00     0.015 C
HETATM   13  C22 UNL     1      25.686  40.780  31.982  1.00  0.00     0.010 C
HETATM   14  C21 UNL     1      26.132  42.195  31.788  1.00  0.00     0.015 C
HETATM   15  C7  UNL     1      26.994  42.872  29.551  1.00  0.00     0.021 C
ENDBRANCH   6   7
ENDBRANCH   3   6
ENDBRANCH   1   2
BRANCH   1  16
HETATM   16  C11 UNL     1      30.014  44.928  35.380  1.00  0.00     0.036 C
BRANCH  16  17
HETATM   17  C12 UNL     1      30.478  45.181  36.767  1.00  0.00     0.022 C
BRANCH  17  18
HETATM   18  C13 UNL     1      31.396  46.405  36.794  1.00  0.00     0.122 C
BRANCH  18  19
HETATM   19  N2  UNL     1      32.058  46.600  35.547  1.00  0.00    -0.367 N
HETATM   20  C14 UNL     1      33.312  46.402  35.413  1.00  0.00     0.196 C
HETATM   21  N3  UNL     1      33.968  46.600  34.160  1.00  0.00    -0.067 NA
HETATM   22  N4  UNL     1      34.091  45.970  36.531  1.00  0.00    -0.067 NA
ATOM     23  H2  UNL     1      31.515  46.907  34.739  1.00  0.00     0.161 HD
ENDBRANCH  18  19
ENDBRANCH  17  18
ENDBRANCH  16  17
ENDBRANCH   1  16
BRANCH   1  24
HETATM   24  N5  UNL     1      29.201  42.700  35.535  1.00  0.00    -0.346 N
HETATM   25  C15 UNL     1      29.596  41.550  36.253  1.00  0.00     0.254 C
HETATM   26  O2  UNL     1      30.842  41.269  36.290  1.00  0.00    -0.271 OA
ATOM     27  H5  UNL     1      28.214  42.956  35.487  1.00  0.00     0.163 HD
BRANCH  25  28
HETATM   28  C16 UNL     1      28.672  40.656  36.958  1.00  0.00     0.201 C
HETATM   29  C17 UNL     1      28.551  40.907  38.432  1.00  0.00     0.057 C
HETATM   30  C18 UNL     1      27.303  40.834  36.322  1.00  0.00     0.050 C
HETATM   31  C19 UNL     1      27.400  39.847  35.180  1.00  0.00     0.030 C
HETATM   32  C20 UNL     1      28.155  38.707  35.770  1.00  0.00     0.234 C
HETATM   33  N6  UNL     1      29.030  39.282  36.739  1.00  0.00    -0.058 N
ATOM     34  H62 UNL     1      30.011  39.177  36.480  1.00  0.00     0.278 HD
ATOM     35  H61 UNL     1      29.048  38.746  37.607  1.00  0.00     0.278 HD
ENDBRANCH  25  28
ENDBRANCH   1  24
TORSDOF 9
ENDMDL