MODEL 4
REMARK VINA RESULT: -7.534723911      1.303      1.702
REMARK  11 active torsions:
REMARK  status: ('A' for Active; 'I' for Inactive)
REMARK       I    between atoms: C1_4  and  N3_6
REMARK    1  A    between atoms: N3_6  and  C2_8
REMARK    2  A    between atoms: C2_8  and  C3_9
REMARK    3  A    between atoms: C3_9  and  C4_10
REMARK    4  A    between atoms: C4_10  and  C5_11
REMARK    5  A    between atoms: C5_11  and  C6_12
REMARK    6  A    between atoms: C6_12  and  O1_13
REMARK    7  A    between atoms: O1_13  and  C7_14
REMARK       I    between atoms: C7_14  and  N4_16
REMARK    8  A    between atoms: C11_21  and  C12_22
REMARK    9  A    between atoms: C12_22  and  C13_23
REMARK   10  A    between atoms: C13_23  and  C14_24
REMARK   11  A    between atoms: C14_24  and  N5_25
REMARK       I    between atoms: N5_25  and  C15_27
ROOT
HETATM    1  O1  UNL     1      26.323  40.141  35.377  1.00  0.00    -0.265 OA
ENDROOT
BRANCH   1   2
HETATM    2  C6  UNL     1      25.939  39.254  34.357  1.00  0.00     0.065 C
HETATM    3  C16 UNL     1      26.383  38.010  34.452  1.00  0.00    -0.025 A
HETATM    4  C17 UNL     1      27.225  37.642  35.581  1.00  0.00     0.010 A
HETATM    5  C21 UNL     1      25.981  37.010  33.422  1.00  0.00     0.068 A
HETATM    6  C18 UNL     1      27.649  36.403  35.714  1.00  0.00     0.000 A
HETATM    7  C19 UNL     1      27.283  35.400  34.745  1.00  0.00    -0.004 A
HETATM    8  C20 UNL     1      26.532  35.681  33.719  1.00  0.00    -0.022 A
BRANCH   2   9
HETATM    9  C5  UNL     1      25.072  39.736  33.240  1.00  0.00     0.066 C
BRANCH   9  10
HETATM   10  C4  UNL     1      25.806  40.188  32.038  1.00  0.00     0.008 C
BRANCH  10  11
HETATM   11  C3  UNL     1      25.574  41.544  31.511  1.00  0.00     0.020 C
BRANCH  11  12
HETATM   12  C2  UNL     1      26.705  42.222  30.823  1.00  0.00     0.122 C
BRANCH  12  13
HETATM   13  N3  UNL     1      27.412  43.052  31.813  1.00  0.00    -0.365 N
HETATM   14  C1  UNL     1      28.742  43.468  31.534  1.00  0.00     0.181 C
HETATM   15  N1  UNL     1      29.139  44.681  31.730  1.00  0.00    -0.374 N
HETATM   16  N2  UNL     1      29.673  42.520  31.023  1.00  0.00    -0.064 NA
ATOM     17  H12 UNL     1      30.093  44.980  31.530  1.00  0.00     0.158 HD
ATOM     18  H11 UNL     1      28.473  45.361  32.097  1.00  0.00     0.158 HD
ATOM     19  H3  UNL     1      26.954  43.324  32.683  1.00  0.00     0.162 HD
ENDBRANCH  12  13
ENDBRANCH  11  12
ENDBRANCH  10  11
ENDBRANCH   9  10
ENDBRANCH   2   9
ENDBRANCH   1   2
BRANCH   1  20
HETATM   20  C7  UNL     1      27.537  40.801  35.278  1.00  0.00     0.374 C
HETATM   21  O2  UNL     1      27.820  41.302  34.145  1.00  0.00    -0.237 OA
HETATM   22  N4  UNL     1      28.439  40.930  36.347  1.00  0.00    -0.259 N
HETATM   23  C8  UNL     1      28.338  40.466  37.676  1.00  0.00     0.228 C
HETATM   24  C11 UNL     1      29.763  41.636  36.255  1.00  0.00     0.098 C
HETATM   25  O3  UNL     1      27.314  39.959  38.224  1.00  0.00    -0.273 OA
HETATM   26  C9  UNL     1      29.638  40.669  38.344  1.00  0.00     0.105 C
HETATM   27  C10 UNL     1      30.594  40.775  37.176  1.00  0.00     0.035 C
BRANCH  24  28
HETATM   28  C12 UNL     1      29.589  43.018  36.781  1.00  0.00     0.028 C
BRANCH  28  29
HETATM   29  C13 UNL     1      29.779  44.177  35.928  1.00  0.00     0.022 C
BRANCH  29  30
HETATM   30  C14 UNL     1      30.841  44.285  34.917  1.00  0.00     0.122 C
BRANCH  30  31
HETATM   31  N5  UNL     1      31.880  45.218  35.214  1.00  0.00    -0.365 N
HETATM   32  C15 UNL     1      32.326  46.134  34.250  1.00  0.00     0.181 C
HETATM   33  N6  UNL     1      31.504  46.667  33.434  1.00  0.00    -0.374 N
HETATM   34  N7  UNL     1      33.698  46.465  34.187  1.00  0.00    -0.064 NA
ATOM     35  H62 UNL     1      30.513  46.428  33.480  1.00  0.00     0.158 HD
ATOM     36  H61 UNL     1      31.829  47.334  32.734  1.00  0.00     0.158 HD
ATOM     37  H5  UNL     1      32.304  45.218  36.141  1.00  0.00     0.162 HD
ENDBRANCH  30  31
ENDBRANCH  29  30
ENDBRANCH  28  29
ENDBRANCH  24  28
ENDBRANCH   1  20
TORSDOF 11
ENDMDL