MODEL 3
REMARK VINA RESULT: -7.793428817      3.107      8.347
REMARK  10 active torsions:
REMARK  status: ('A' for Active; 'I' for Inactive)
REMARK    1  A    between atoms: C2_2  and  O1_3
REMARK    2  A    between atoms: C2_2  and  C3_5
REMARK       I    between atoms: C3_5  and  N1_7
REMARK       I    between atoms: C4_9  and  N2_10
REMARK       I    between atoms: C4_9  and  N5_28
REMARK    3  A    between atoms: N2_10  and  C5_12
REMARK    4  A    between atoms: C5_12  and  C6_13
REMARK    5  A    between atoms: C6_13  and  C7_14
REMARK    6  A    between atoms: C7_14  and  C8_15
REMARK    7  A    between atoms: C8_15  and  C9_16
REMARK    8  A    between atoms: C10_18  and  C11_19
REMARK    9  A    between atoms: C12_25  and  C13_26
REMARK   10  A    between atoms: N5_28  and  C15_30
ROOT
HETATM    1  C3  UNL     1      30.094  45.609  33.353  1.00  0.00     0.291 C
HETATM    2  O2  UNL     1      28.911  46.104  33.283  1.00  0.00    -0.265 OA
HETATM    3  N1  UNL     1      31.151  46.304  33.889  1.00  0.00    -0.154 N
ATOM      4  H1  UNL     1      31.821  46.562  33.165  1.00  0.00     0.187 HD
HETATM    5  C4  UNL     1      31.524  46.708  35.000  1.00  0.00     0.677 C
HETATM    6  N2  UNL     1      30.856  46.530  36.219  1.00  0.00    -0.226 N
ATOM      7  H2  UNL     1      30.899  47.303  36.884  1.00  0.00     0.177 HD
HETATM    8  N5  UNL     1      32.744  47.486  35.011  1.00  0.00    -0.222 N
ATOM      9  H5  UNL     1      32.780  48.315  34.419  1.00  0.00     0.178 HD
ENDROOT
BRANCH   6  10
HETATM   10  C5  UNL     1      30.116  45.364  36.629  1.00  0.00     0.138 C
BRANCH  10  11
HETATM   11  C6  UNL     1      30.965  44.133  36.490  1.00  0.00     0.020 C
BRANCH  11  12
HETATM   12  C7  UNL     1      30.194  42.900  36.077  1.00  0.00     0.003 C
BRANCH  12  13
HETATM   13  C8  UNL     1      29.203  42.550  37.130  1.00  0.00     0.017 C
BRANCH  13  14
HETATM   14  C9  UNL     1      29.432  41.174  37.716  1.00  0.00     0.080 C
HETATM   15  S1  UNL     1      27.876  40.471  38.367  1.00  0.00    -0.120 SA
HETATM   16  C10 UNL     1      27.662  39.191  37.060  1.00  0.00     0.336 C
HETATM   17  N4  UNL     1      28.524  39.744  36.047  1.00  0.00    -0.049 N
HETATM   18  C12 UNL     1      29.760  40.153  36.662  1.00  0.00     0.201 C
ATOM     19  H42 UNL     1      28.671  39.102  35.268  1.00  0.00     0.279 HD
ATOM     20  H41 UNL     1      28.078  40.500  35.527  1.00  0.00     0.279 HD
BRANCH  16  21
HETATM   21  C11 UNL     1      26.279  39.122  36.607  1.00  0.00     0.272 C
HETATM   22  N3  UNL     1      25.784  37.956  35.983  1.00  0.00    -0.059 NA
HETATM   23  O3  UNL     1      25.517  40.101  36.768  1.00  0.00    -0.274 OA
ENDBRANCH  16  21
BRANCH  18  24
HETATM   24  C13 UNL     1      30.588  39.019  37.171  1.00  0.00     0.030 C
HETATM   25  C14 UNL     1      31.896  39.579  37.689  1.00  0.00     0.007 C
ENDBRANCH  18  24
ENDBRANCH  13  14
ENDBRANCH  12  13
ENDBRANCH  11  12
ENDBRANCH  10  11
ENDBRANCH   6  10
BRANCH   8  26
HETATM   26  C15 UNL     1      33.887  47.184  35.777  1.00  0.00     0.099 C
HETATM   27  C16 UNL     1      34.322  48.357  36.658  1.00  0.00     0.026 C
HETATM   28  C17 UNL     1      35.238  47.744  37.706  1.00  0.00     0.002 C
HETATM   29  C18 UNL     1      36.462  47.131  37.057  1.00  0.00     0.000 C
HETATM   30  C19 UNL     1      36.108  46.161  35.964  1.00  0.00     0.002 C
HETATM   31  C20 UNL     1      35.077  46.716  35.003  1.00  0.00     0.026 C
ENDBRANCH   8  26
BRANCH   1  32
HETATM   32  C2  UNL     1      30.283  44.258  32.830  1.00  0.00     0.125 C
HETATM   33  C1  UNL     1      29.325  43.615  32.185  1.00  0.00     0.056 C
BRANCH  32  34
HETATM   34  O1  UNL     1      31.505  43.629  33.015  1.00  0.00    -0.356 OA
ATOM     35  H1  UNL     1      32.280  44.163  33.153  1.00  0.00     0.218 HD
ENDBRANCH  32  34
ENDBRANCH   1  32
TORSDOF 10
ENDMDL