MODEL 2
REMARK VINA RESULT: -7.091583630      3.159      7.817
REMARK  10 active torsions:
REMARK  status: ('A' for Active; 'I' for Inactive)
REMARK    1  A    between atoms: C2_2  and  C3_3
REMARK    2  A    between atoms: C3_3  and  C4_4
REMARK    3  A    between atoms: C4_4  and  C5_5
REMARK    4  A    between atoms: C5_5  and  C6_6
REMARK    5  A    between atoms: C6_6  and  C7_7
REMARK    6  A    between atoms: C6_6  and  C10_13
REMARK    7  A    between atoms: C7_7  and  C8_8
REMARK       I    between atoms: C8_8  and  N1_10
REMARK       I    between atoms: C10_13  and  N2_15
REMARK    8  A    between atoms: C14_19  and  C15_20
REMARK    9  A    between atoms: C15_20  and  N3_21
REMARK       I    between atoms: N3_21  and  C16_23
REMARK       I    between atoms: C16_23  and  N6_29
REMARK       I    between atoms: N4_24  and  C17_26
REMARK   10  A    between atoms: N6_29  and  C18_31
ROOT
HETATM    1  C10 UNL     1      29.439  43.514  31.954  1.00  0.00     0.224 C
HETATM    2  O2  UNL     1      30.039  44.089  30.973  1.00  0.00    -0.273 OA
HETATM    3  N2  UNL     1      28.377  42.633  31.667  1.00  0.00    -0.345 N
HETATM    4  C11 UNL     1      27.504  41.819  32.444  1.00  0.00     0.126 C
HETATM    5  C12 UNL     1      26.170  41.770  31.692  1.00  0.00     0.022 C
HETATM    6  C13 UNL     1      26.438  42.575  30.438  1.00  0.00     0.028 C
HETATM    7  C14 UNL     1      27.928  42.368  30.279  1.00  0.00     0.105 C
ENDROOT
BRANCH   7   8
HETATM    8  C15 UNL     1      28.263  40.957  29.879  1.00  0.00     0.163 C
BRANCH   8   9
HETATM    9  N3  UNL     1      29.015  40.990  28.665  1.00  0.00    -0.224 N
HETATM   10  C16 UNL     1      28.985  39.983  27.668  1.00  0.00     0.678 C
HETATM   11  N4  UNL     1      29.636  38.916  27.834  1.00  0.00    -0.144 N
HETATM   12  N6  UNL     1      28.217  40.216  26.509  1.00  0.00    -0.218 N
HETATM   13  C17 UNL     1      29.724  37.822  26.965  1.00  0.00     0.346 C
ATOM     14  H4  UNL     1      30.160  38.841  28.706  1.00  0.00     0.188 HD
HETATM   15  N5  UNL     1      31.015  37.293  26.666  1.00  0.00    -0.039 NA
HETATM   16  O3  UNL     1      28.740  37.259  26.419  1.00  0.00    -0.250 OA
ATOM     17  H6  UNL     1      27.323  39.729  26.438  1.00  0.00     0.178 HD
ATOM     18  H3  UNL     1      29.617  41.797  28.504  1.00  0.00     0.177 HD
BRANCH  12  19
HETATM   19  C18 UNL     1      28.578  41.074  25.428  1.00  0.00     0.036 C
HETATM   20  C19 UNL     1      27.484  41.023  24.373  1.00  0.00     0.038 C
HETATM   21  C20 UNL     1      29.907  40.743  24.802  1.00  0.00     0.038 C
HETATM   22  C21 UNL     1      28.648  42.508  25.907  1.00  0.00     0.038 C
ENDBRANCH  12  19
ENDBRANCH   8   9
ENDBRANCH   7   8
BRANCH   1  23
HETATM   23  C6  UNL     1      29.928  43.838  33.313  1.00  0.00     0.086 C
BRANCH  23  24
HETATM   24  C5  UNL     1      30.044  45.315  33.549  1.00  0.00     0.014 C
BRANCH  24  25
HETATM   25  C4  UNL     1      31.520  45.713  33.732  1.00  0.00     0.001 C
BRANCH  25  26
HETATM   26  C3  UNL     1      31.666  46.710  34.851  1.00  0.00    -0.000 C
BRANCH  26  27
HETATM   27  C2  UNL     1      30.447  46.796  35.728  1.00  0.00    -0.005 C
HETATM   28  C1  UNL     1      30.867  46.365  37.140  1.00  0.00     0.005 C
ENDBRANCH  26  27
ENDBRANCH  25  26
ENDBRANCH  24  25
ENDBRANCH  23  24
BRANCH  23  29
HETATM   29  C7  UNL     1      29.201  43.091  34.383  1.00  0.00     0.117 C
BRANCH  29  30
HETATM   30  C8  UNL     1      30.020  42.501  35.434  1.00  0.00     0.217 C
HETATM   31  O1  UNL     1      31.065  43.072  35.844  1.00  0.00    -0.274 OA
HETATM   32  N1  UNL     1      29.641  41.260  36.012  1.00  0.00    -0.365 N
HETATM   33  C9  UNL     1      30.420  40.632  37.061  1.00  0.00     0.149 C
ATOM     34  H1  UNL     1      28.795  40.798  35.680  1.00  0.00     0.161 HD
ENDBRANCH  29  30
ENDBRANCH  23  29
ENDBRANCH   1  23
TORSDOF 10
ENDMDL