MODEL 5
REMARK VINA RESULT: -8.594808166      4.180      9.972
REMARK  11 active torsions:
REMARK  status: ('A' for Active; 'I' for Inactive)
REMARK    1  A    between atoms: N1_2  and  C3_4
REMARK    2  A    between atoms: N1_2  and  C12_19
REMARK    3  A    between atoms: C3_4  and  C4_5
REMARK    4  A    between atoms: C4_5  and  C5_6
REMARK    5  A    between atoms: C5_6  and  C6_7
REMARK    6  A    between atoms: C8_9  and  O1_10
REMARK    7  A    between atoms: C10_13  and  C11_14
REMARK    8  A    between atoms: C12_19  and  C13_20
REMARK       I    between atoms: C13_20  and  N3_22
REMARK    9  A    between atoms: N3_22  and  C14_24
REMARK   10  A    between atoms: C14_24  and  C15_25
REMARK   11  A    between atoms: C15_25  and  C16_26
ROOT
HETATM    1  C1  UNL     1      26.627  42.493  29.332  1.00  0.00     0.272 C
HETATM    2  N1  UNL     1      27.660  42.250  30.342  1.00  0.00    -0.066 N
HETATM    3  C2  UNL     1      28.436  41.117  29.905  1.00  0.00     0.272 C
ENDROOT
BRANCH   2   4
HETATM    4  C3  UNL     1      26.988  42.089  31.591  1.00  0.00     0.237 C
BRANCH   4   5
HETATM    5  C4  UNL     1      27.053  40.757  32.242  1.00  0.00     0.030 C
BRANCH   5   6
HETATM    6  C5  UNL     1      25.717  40.183  32.542  1.00  0.00     0.026 C
BRANCH   6   7
HETATM    7  C6  UNL     1      25.760  39.240  33.755  1.00  0.00     0.080 C
HETATM    8  C7  UNL     1      26.623  38.071  33.435  1.00  0.00     0.056 C
HETATM    9  C8  UNL     1      27.231  37.385  34.610  1.00  0.00     0.122 C
HETATM   10  C9  UNL     1      27.768  38.339  35.654  1.00  0.00     0.067 C
HETATM   11  C10 UNL     1      26.641  39.289  36.000  1.00  0.00     0.181 C
HETATM   12  N2  UNL     1      26.185  40.031  34.867  1.00  0.00    -0.404 N
ATOM     13  H2  UNL     1      26.165  41.051  34.853  1.00  0.00     0.154 HD
BRANCH   9  14
HETATM   14  O1  UNL     1      28.293  36.575  34.154  1.00  0.00    -0.395 OA
ATOM     15  H1  UNL     1      29.043  37.132  33.980  1.00  0.00     0.210 HD
ENDBRANCH   9  14
BRANCH  11  16
HETATM   16  C11 UNL     1      27.166  40.246  37.008  1.00  0.00     0.196 C
HETATM   17  O2  UNL     1      27.505  41.428  36.684  1.00  0.00    -0.646 OA
HETATM   18  O3  UNL     1      27.313  39.904  38.353  1.00  0.00    -0.646 OA
ENDBRANCH  11  16
ENDBRANCH   6   7
ENDBRANCH   5   6
ENDBRANCH   4   5
ENDBRANCH   2   4
BRANCH   2  19
HETATM   19  C12 UNL     1      28.482  43.465  30.332  1.00  0.00     0.338 C
BRANCH  19  20
HETATM   20  C13 UNL     1      29.273  43.639  31.563  1.00  0.00     0.243 C
HETATM   21  O4  UNL     1      30.308  42.961  31.744  1.00  0.00    -0.272 OA
HETATM   22  N3  UNL     1      28.891  44.563  32.564  1.00  0.00    -0.360 N
ATOM     23  H3  UNL     1      28.046  45.115  32.417  1.00  0.00     0.162 HD
BRANCH  22  24
HETATM   24  C14 UNL     1      29.638  44.764  33.783  1.00  0.00     0.123 C
BRANCH  24  25
HETATM   25  C15 UNL     1      30.494  45.972  33.655  1.00  0.00     0.029 C
BRANCH  25  26
HETATM   26  C16 UNL     1      31.222  46.292  34.902  1.00  0.00    -0.034 C
HETATM   27  C17 UNL     1      30.477  47.205  35.877  1.00  0.00     0.014 C
HETATM   28  C18 UNL     1      30.897  46.639  37.206  1.00  0.00    -0.013 C
HETATM   29  C19 UNL     1      32.395  46.778  37.325  1.00  0.00     0.010 C
HETATM   30  C23 UNL     1      30.793  45.134  36.907  1.00  0.00     0.010 C
HETATM   31  C20 UNL     1      32.877  45.981  36.119  1.00  0.00    -0.009 C
HETATM   32  C21 UNL     1      32.646  46.748  34.807  1.00  0.00     0.015 C
HETATM   33  C22 UNL     1      31.706  45.119  35.705  1.00  0.00    -0.002 C
ENDBRANCH  25  26
ENDBRANCH  24  25
ENDBRANCH  22  24
ENDBRANCH  19  20
ENDBRANCH   2  19
TORSDOF 11
ENDMDL