MODEL 2
REMARK VINA RESULT: -7.835682687      2.770      5.072
REMARK  15 active torsions:
REMARK  status: ('A' for Active; 'I' for Inactive)
REMARK    1  A    between atoms: C2_2  and  N1_5
REMARK    2  A    between atoms: N1_5  and  C5_7
REMARK    3  A    between atoms: C5_7  and  N2_9
REMARK    4  A    between atoms: N2_9  and  C6_11
REMARK    5  A    between atoms: C6_11  and  C7_12
REMARK    6  A    between atoms: C7_12  and  C8_13
REMARK    7  A    between atoms: C8_13  and  C9_14
REMARK    8  A    between atoms: C9_14  and  N3_15
REMARK    9  A    between atoms: N3_15  and  C10_17
REMARK   10  A    between atoms: C10_17  and  O1_18
REMARK   11  A    between atoms: C10_17  and  N4_20
REMARK   12  A    between atoms: C14_24  and  C15_25
REMARK   13  A    between atoms: C15_25  and  C16_26
REMARK   14  A    between atoms: C16_26  and  C17_27
REMARK   15  A    between atoms: C17_27  and  N5_28
REMARK       I    between atoms: N5_28  and  C18_30
ROOT
HETATM    1  N5  UNL     1      33.845  47.734  35.281  1.00  0.00    -0.344 N
ATOM      2  H5  UNL     1      33.604  48.659  35.637  1.00  0.00     0.167 HD
HETATM    3  C18 UNL     1      34.845  47.030  36.003  1.00  0.00     0.201 C
HETATM    4  N6  UNL     1      34.838  47.094  37.414  1.00  0.00    -0.062 NA
HETATM    5  N7  UNL     1      35.746  46.344  35.410  1.00  0.00    -0.267 N
ATOM      6  H7  UNL     1      35.760  46.294  34.391  1.00  0.00     0.180 HD
HETATM    7  C19 UNL     1      36.713  45.664  36.155  1.00  0.00     0.184 C
HETATM    8  N8  UNL     1      37.534  45.109  36.788  1.00  0.00    -0.172 NA
ENDROOT
BRANCH   1   9
HETATM    9  C17 UNL     1      33.150  47.312  34.138  1.00  0.00     0.063 C
BRANCH   9  10
HETATM   10  C16 UNL     1      32.264  46.144  34.138  1.00  0.00     0.046 C
BRANCH  10  11
HETATM   11  C15 UNL     1      30.819  46.332  34.482  1.00  0.00     0.030 C
BRANCH  11  12
HETATM   12  C14 UNL     1      30.154  45.113  34.941  1.00  0.00     0.088 C
HETATM   13  N4  UNL     1      29.870  44.093  33.947  1.00  0.00    -0.343 N
HETATM   14  C11 UNL     1      29.273  43.036  34.823  1.00  0.00     0.127 C
HETATM   15  C12 UNL     1      30.286  42.992  35.948  1.00  0.00     0.022 C
HETATM   16  C13 UNL     1      31.073  44.275  35.849  1.00  0.00     0.027 C
BRANCH  13  17
HETATM   17  C10 UNL     1      30.005  43.927  32.581  1.00  0.00     0.215 C
BRANCH  17  18
HETATM   18  N3  UNL     1      29.199  44.396  31.529  1.00  0.00    -0.356 N
ATOM     19  H3  UNL     1      28.833  45.347  31.567  1.00  0.00     0.163 HD
BRANCH  18  20
HETATM   20  C9  UNL     1      28.873  43.547  30.377  1.00  0.00     0.123 C
BRANCH  20  21
HETATM   21  C8  UNL     1      27.921  42.450  30.777  1.00  0.00     0.021 C
BRANCH  21  22
HETATM   22  C7  UNL     1      28.091  41.186  29.998  1.00  0.00     0.021 C
BRANCH  22  23
HETATM   23  C6  UNL     1      26.766  40.644  29.578  1.00  0.00     0.122 C
BRANCH  23  24
HETATM   24  N2  UNL     1      26.695  40.266  28.202  1.00  0.00    -0.367 N
ATOM     25  H2  UNL     1      26.957  39.310  27.964  1.00  0.00     0.161 HD
BRANCH  24  26
HETATM   26  C5  UNL     1      26.288  41.116  27.143  1.00  0.00     0.168 C
HETATM   27  S1  UNL     1      24.979  42.053  27.353  1.00  0.00    -0.041 SA
BRANCH  26  28
HETATM   28  N1  UNL     1      26.989  41.180  25.916  1.00  0.00    -0.359 N
ATOM     29  H1  UNL     1      26.554  40.837  25.060  1.00  0.00     0.162 HD
BRANCH  28  30
HETATM   30  C2  UNL     1      28.326  41.733  25.881  1.00  0.00     0.021 C
HETATM   31  C1  UNL     1      29.281  40.668  26.359  1.00  0.00     0.037 C
HETATM   32  C3  UNL     1      28.683  42.065  24.437  1.00  0.00     0.037 C
HETATM   33  C4  UNL     1      28.472  42.945  26.768  1.00  0.00     0.037 C
ENDBRANCH  28  30
ENDBRANCH  26  28
ENDBRANCH  24  26
ENDBRANCH  23  24
ENDBRANCH  22  23
ENDBRANCH  21  22
ENDBRANCH  20  21
ENDBRANCH  18  20
ENDBRANCH  17  18
BRANCH  17  34
HETATM   34  O1  UNL     1      31.044  43.226  32.208  1.00  0.00    -0.333 OA
ATOM     35  H1  UNL     1      31.739  43.169  32.852  1.00  0.00     0.220 HD
ENDBRANCH  17  34
ENDBRANCH  13  17
ENDBRANCH  11  12
ENDBRANCH  10  11
ENDBRANCH   9  10
ENDBRANCH   1   9
TORSDOF 15
ENDMDL