MODEL 4
REMARK VINA RESULT: -7.892336818      4.886      9.289
REMARK  9 active torsions:
REMARK  status: ('A' for Active; 'I' for Inactive)
REMARK       I    between atoms: N1_2  and  C2_4
REMARK    1  A    between atoms: C2_4  and  C3_6
REMARK       I    between atoms: N2_10  and  C7_11
REMARK    2  A    between atoms: C7_11  and  C8_13
REMARK    3  A    between atoms: C8_13  and  C9_14
REMARK    4  A    between atoms: C8_13  and  N6_25
REMARK    5  A    between atoms: C9_14  and  C10_15
REMARK    6  A    between atoms: C10_15  and  C11_16
REMARK    7  A    between atoms: C11_16  and  C12_17
REMARK    8  A    between atoms: C12_17  and  N3_18
REMARK       I    between atoms: N3_18  and  C13_20
REMARK       I    between atoms: N6_25  and  C14_27
REMARK    9  A    between atoms: C14_27  and  C15_29
ROOT
HETATM    1  C8  UNL     1      27.992  41.288  27.445  1.00  0.00     0.176 C
ENDROOT
BRANCH   1   2
HETATM    2  C7  UNL     1      28.974  41.148  26.364  1.00  0.00     0.243 C
HETATM    3  N2  UNL     1      29.675  39.948  26.114  1.00  0.00    -0.337 N
HETATM    4  C3  UNL     1      29.612  38.655  26.747  1.00  0.00     0.179 C
HETATM    5  C6  UNL     1      30.694  39.797  25.058  1.00  0.00     0.127 C
HETATM    6  C4  UNL     1      31.038  38.204  26.828  1.00  0.00     0.037 C
HETATM    7  C5  UNL     1      31.735  39.014  25.782  1.00  0.00     0.022 C
HETATM    8  O2  UNL     1      29.201  42.141  25.620  1.00  0.00    -0.271 OA
BRANCH   4   9
HETATM    9  C2  UNL     1      28.849  37.666  25.926  1.00  0.00     0.240 C
HETATM   10  N1  UNL     1      27.608  38.035  25.351  1.00  0.00    -0.364 N
HETATM   11  C1  UNL     1      26.824  37.110  24.543  1.00  0.00     0.149 C
ATOM     12  H1  UNL     1      27.252  38.978  25.508  1.00  0.00     0.161 HD
HETATM   13  O1  UNL     1      29.269  36.500  25.725  1.00  0.00    -0.271 OA
ENDBRANCH   4   9
ENDBRANCH   1   2
BRANCH   1  14
HETATM   14  C9  UNL     1      28.393  42.385  28.449  1.00  0.00     0.035 C
BRANCH  14  15
HETATM   15  C10 UNL     1      27.171  43.077  28.978  1.00  0.00     0.004 C
BRANCH  15  16
HETATM   16  C11 UNL     1      26.665  42.365  30.194  1.00  0.00     0.020 C
BRANCH  16  17
HETATM   17  C12 UNL     1      27.728  42.142  31.226  1.00  0.00     0.122 C
BRANCH  17  18
HETATM   18  N3  UNL     1      27.914  43.230  32.142  1.00  0.00    -0.365 N
HETATM   19  C13 UNL     1      29.114  43.958  32.295  1.00  0.00     0.181 C
HETATM   20  N4  UNL     1      29.047  45.165  32.750  1.00  0.00    -0.374 N
HETATM   21  N5  UNL     1      30.393  43.450  31.981  1.00  0.00    -0.064 NA
ATOM     22  H42 UNL     1      28.123  45.532  32.976  1.00  0.00     0.158 HD
ATOM     23  H41 UNL     1      29.914  45.691  32.861  1.00  0.00     0.158 HD
ATOM     24  H3  UNL     1      27.121  43.498  32.725  1.00  0.00     0.162 HD
ENDBRANCH  17  18
ENDBRANCH  16  17
ENDBRANCH  15  16
ENDBRANCH  14  15
ENDBRANCH   1  14
BRANCH   1  25
HETATM   25  N6  UNL     1      26.718  41.800  26.912  1.00  0.00    -0.347 N
HETATM   26  C14 UNL     1      25.622  41.004  26.569  1.00  0.00     0.222 C
HETATM   27  O3  UNL     1      25.693  39.763  26.713  1.00  0.00    -0.273 OA
ATOM     28  H6  UNL     1      26.629  42.809  26.784  1.00  0.00     0.163 HD
BRANCH  26  29
HETATM   29  C15 UNL     1      24.385  41.614  26.039  1.00  0.00     0.078 C
HETATM   30  C16 UNL     1      23.774  42.476  27.119  1.00  0.00     0.014 C
HETATM   31  C17 UNL     1      22.443  43.052  26.763  1.00  0.00     0.001 C
HETATM   32  C18 UNL     1      21.979  42.744  25.373  1.00  0.00     0.000 C
HETATM   33  C19 UNL     1      21.226  41.409  25.418  1.00  0.00     0.000 C
HETATM   34  C20 UNL     1      22.150  40.458  26.173  1.00  0.00     0.001 C
HETATM   35  C21 UNL     1      23.489  40.541  25.523  1.00  0.00     0.014 C
ENDBRANCH  26  29
ENDBRANCH   1  25
TORSDOF 9
ENDMDL