MODEL 2
REMARK VINA RESULT: -8.862701847      1.123      1.555
REMARK  9 active torsions:
REMARK  status: ('A' for Active; 'I' for Inactive)
REMARK    1  A    between atoms: C5_5  and  C6_6
REMARK       I    between atoms: C6_6  and  N1_8
REMARK    2  A    between atoms: N1_8  and  C7_9
REMARK    3  A    between atoms: C7_9  and  C8_10
REMARK       I    between atoms: C8_10  and  N2_12
REMARK    4  A    between atoms: N2_12  and  C9_14
REMARK    5  A    between atoms: C9_14  and  C10_15
REMARK    6  A    between atoms: C10_15  and  C11_16
REMARK    7  A    between atoms: C11_16  and  C12_17
REMARK    8  A    between atoms: C16_24  and  C17_25
REMARK       I    between atoms: C17_25  and  N4_27
REMARK    9  A    between atoms: N4_27  and  C18_29
ROOT
HETATM    1  C1  UNL     1      33.780  46.399  36.380  1.00  0.00     0.040 C
HETATM    2  C2  UNL     1      32.348  46.475  35.819  1.00  0.00     0.183 C
HETATM    3  C3  UNL     1      31.503  46.909  37.002  1.00  0.00     0.033 C
HETATM    4  C4  UNL     1      30.021  46.819  36.721  1.00  0.00     0.020 C
HETATM    5  C5  UNL     1      29.681  45.552  35.919  1.00  0.00     0.133 C
HETATM    6  C16 UNL     1      30.877  44.666  35.992  1.00  0.00     0.291 C
HETATM    7  N5  UNL     1      31.985  45.209  35.297  1.00  0.00    -0.058 N
ATOM      8  H51 UNL     1      32.777  44.565  35.291  1.00  0.00     0.278 HD
ATOM      9  H52 UNL     1      31.812  45.252  34.293  1.00  0.00     0.278 HD
ENDROOT
BRANCH   5  10
HETATM   10  C6  UNL     1      29.408  46.090  34.522  1.00  0.00     0.298 C
HETATM   11  O1  UNL     1      29.000  47.241  34.362  1.00  0.00    -0.257 OA
HETATM   12  N1  UNL     1      29.661  45.180  33.521  1.00  0.00    -0.378 NA
BRANCH  12  13
HETATM   13  C7  UNL     1      29.904  44.295  32.506  1.00  0.00     0.260 C
BRANCH  13  14
HETATM   14  C8  UNL     1      28.847  43.328  32.099  1.00  0.00     0.270 C
HETATM   15  O2  UNL     1      28.437  42.393  32.799  1.00  0.00    -0.266 OA
HETATM   16  N2  UNL     1      28.302  43.528  30.809  1.00  0.00    -0.356 N
ATOM     17  H2  UNL     1      28.653  44.308  30.253  1.00  0.00     0.162 HD
BRANCH  16  18
HETATM   18  C9  UNL     1      27.298  42.708  30.251  1.00  0.00     0.123 C
BRANCH  18  19
HETATM   19  C10 UNL     1      26.772  43.110  28.929  1.00  0.00     0.022 C
BRANCH  19  20
HETATM   20  C11 UNL     1      27.156  42.320  27.737  1.00  0.00     0.034 C
BRANCH  20  21
HETATM   21  C12 UNL     1      28.578  42.239  27.352  1.00  0.00     0.186 C
HETATM   22  C13 UNL     1      28.726  42.196  25.831  1.00  0.00     0.034 C
HETATM   23  C14 UNL     1      28.909  40.764  25.491  1.00  0.00     0.029 C
HETATM   24  C15 UNL     1      28.715  40.010  26.777  1.00  0.00     0.233 C
HETATM   25  N3  UNL     1      29.168  40.950  27.757  1.00  0.00    -0.071 N
ATOM     26  H32 UNL     1      30.182  40.976  27.866  1.00  0.00     0.277 HD
ATOM     27  H31 UNL     1      28.954  40.682  28.717  1.00  0.00     0.277 HD
ENDBRANCH  20  21
ENDBRANCH  19  20
ENDBRANCH  18  19
ENDBRANCH  16  18
ENDBRANCH  13  14
ENDBRANCH  12  13
ENDBRANCH   5  10
BRANCH   6  28
HETATM   28  C17 UNL     1      30.605  43.228  35.709  1.00  0.00     0.249 C
HETATM   29  O3  UNL     1      31.183  42.560  34.831  1.00  0.00    -0.271 OA
HETATM   30  N4  UNL     1      29.628  42.527  36.479  1.00  0.00    -0.355 N
ATOM     31  H4  UNL     1      29.141  43.055  37.203  1.00  0.00     0.162 HD
BRANCH  30  32
HETATM   32  C18 UNL     1      29.272  41.146  36.324  1.00  0.00     0.084 C
HETATM   33  C19 UNL     1      27.879  41.029  35.848  1.00  0.00     0.025 C
HETATM   34  C20 UNL     1      27.206  40.010  36.708  1.00  0.00     0.002 C
HETATM   35  C21 UNL     1      27.993  40.070  38.028  1.00  0.00     0.002 C
HETATM   36  C22 UNL     1      29.387  40.388  37.604  1.00  0.00     0.025 C
ENDBRANCH  30  32
ENDBRANCH   6  28
TORSDOF 9
ENDMDL