MODEL 4
REMARK VINA RESULT: -8.890081523      3.922     10.064
REMARK  9 active torsions:
REMARK  status: ('A' for Active; 'I' for Inactive)
REMARK    1  A    between atoms: C2_2  and  C3_3
REMARK    2  A    between atoms: C5_5  and  C6_6
REMARK    3  A    between atoms: C6_6  and  N1_7
REMARK       I    between atoms: N1_7  and  C7_9
REMARK       I    between atoms: C7_9  and  N2_11
REMARK    4  A    between atoms: N2_11  and  C8_13
REMARK    5  A    between atoms: C8_13  and  C9_14
REMARK    6  A    between atoms: C8_13  and  C13_22
REMARK    7  A    between atoms: C9_14  and  C10_15
REMARK    8  A    between atoms: C10_15  and  C11_16
REMARK    9  A    between atoms: C11_16  and  N3_17
ROOT
HETATM    1  N1  UNL     1      28.882  44.399  31.373  1.00  0.00    -0.342 N
ATOM      2  H1  UNL     1      28.207  45.161  31.450  1.00  0.00     0.164 HD
HETATM    3  C7  UNL     1      29.879  44.269  32.370  1.00  0.00     0.316 C
HETATM    4  O1  UNL     1      30.713  43.334  32.280  1.00  0.00    -0.247 OA
HETATM    5  N2  UNL     1      29.956  45.164  33.458  1.00  0.00    -0.330 N
ATOM      6  H2  UNL     1      29.278  45.923  33.532  1.00  0.00     0.165 HD
ENDROOT
BRANCH   1   7
HETATM    7  C6  UNL     1      28.783  43.497  30.255  1.00  0.00     0.136 C
BRANCH   7   8
HETATM    8  C5  UNL     1      27.400  42.977  30.054  1.00  0.00     0.074 C
HETATM    9  C4  UNL     1      27.230  41.664  30.745  1.00  0.00     0.018 C
HETATM   10  C3  UNL     1      25.741  41.401  30.855  1.00  0.00    -0.014 C
HETATM   11  C21 UNL     1      25.141  40.702  29.693  1.00  0.00     0.010 C
HETATM   12  C20 UNL     1      25.946  40.658  28.444  1.00  0.00    -0.003 C
HETATM   13  C15 UNL     1      26.212  41.996  27.819  1.00  0.00     0.060 C
HETATM   14  C19 UNL     1      25.127  39.861  27.418  1.00  0.00     0.005 C
HETATM   15  C14 UNL     1      27.119  42.846  28.595  1.00  0.00     0.137 C
HETATM   16  C16 UNL     1      24.926  42.745  27.536  1.00  0.00     0.013 C
HETATM   17  O3  UNL     1      27.785  43.609  27.917  1.00  0.00    -0.297 OA
HETATM   18  C17 UNL     1      23.980  41.973  26.686  1.00  0.00     0.001 C
HETATM   19  C18 UNL     1      23.824  40.533  27.101  1.00  0.00     0.000 C
BRANCH  10  20
HETATM   20  C2  UNL     1      25.554  40.618  32.159  1.00  0.00     0.000 C
HETATM   21  C1  UNL     1      24.113  40.403  32.491  1.00  0.00     0.005 C
ENDBRANCH  10  20
ENDBRANCH   7   8
ENDBRANCH   1   7
BRANCH   5  22
HETATM   22  C8  UNL     1      30.998  45.021  34.489  1.00  0.00     0.175 C
BRANCH  22  23
HETATM   23  C9  UNL     1      31.159  46.370  35.110  1.00  0.00     0.036 C
BRANCH  23  24
HETATM   24  C10 UNL     1      31.920  46.408  36.398  1.00  0.00     0.022 C
BRANCH  24  25
HETATM   25  C11 UNL     1      33.083  47.403  36.315  1.00  0.00     0.122 C
BRANCH  25  26
HETATM   26  N3  UNL     1      34.272  46.652  36.661  1.00  0.00    -0.367 N
HETATM   27  C12 UNL     1      35.126  46.278  35.754  1.00  0.00     0.196 C
HETATM   28  N4  UNL     1      34.858  46.630  34.400  1.00  0.00    -0.067 NA
HETATM   29  N5  UNL     1      36.275  45.550  36.111  1.00  0.00    -0.067 NA
ATOM     30  H3  UNL     1      34.444  46.412  37.637  1.00  0.00     0.161 HD
ENDBRANCH  25  26
ENDBRANCH  24  25
ENDBRANCH  23  24
ENDBRANCH  22  23
BRANCH  22  31
HETATM   31  C13 UNL     1      30.499  44.053  35.474  1.00  0.00     0.254 C
HETATM   32  N6  UNL     1      29.434  44.323  36.404  1.00  0.00    -0.060 NA
HETATM   33  O2  UNL     1      31.035  42.897  35.522  1.00  0.00    -0.275 OA
ENDBRANCH  22  31
ENDBRANCH   5  22
TORSDOF 9
ENDMDL