MODEL 4
REMARK VINA RESULT: -8.390886134      2.347      7.907
REMARK  10 active torsions:
REMARK  status: ('A' for Active; 'I' for Inactive)
REMARK    1  A    between atoms: C2_2  and  N2_6
REMARK    2  A    between atoms: N2_6  and  C3_8
REMARK    3  A    between atoms: C3_8  and  C4_9
REMARK    4  A    between atoms: C4_9  and  N3_10
REMARK       I    between atoms: N3_10  and  C5_12
REMARK    5  A    between atoms: C5_12  and  C6_14
REMARK    6  A    between atoms: C6_14  and  C7_15
REMARK    7  A    between atoms: C6_14  and  N4_22
REMARK    8  A    between atoms: C7_15  and  C8_16
REMARK       I    between atoms: N4_22  and  C14_24
REMARK    9  A    between atoms: C14_24  and  C15_26
REMARK   10  A    between atoms: C15_26  and  C16_27
ROOT
HETATM    1  C6  UNL     1      27.250  41.829  31.563  1.00  0.00     0.177 C
ENDROOT
BRANCH   1   2
HETATM    2  C5  UNL     1      26.431  41.009  32.512  1.00  0.00     0.240 C
HETATM    3  N3  UNL     1      27.020  40.153  33.467  1.00  0.00    -0.358 N
ATOM      4  H3  UNL     1      28.040  40.112  33.482  1.00  0.00     0.162 HD
HETATM    5  O1  UNL     1      25.187  41.091  32.453  1.00  0.00    -0.271 OA
BRANCH   3   6
HETATM    6  C4  UNL     1      26.327  39.332  34.422  1.00  0.00     0.142 C
BRANCH   6   7
HETATM    7  C3  UNL     1      26.723  39.710  35.807  1.00  0.00     0.140 C
BRANCH   7   8
HETATM    8  N2  UNL     1      28.065  40.271  35.853  1.00  0.00    -0.379 N
ATOM      9  H2  UNL     1      28.262  41.113  35.313  1.00  0.00     0.160 HD
BRANCH   8  10
HETATM   10  C2  UNL     1      29.106  39.693  36.617  1.00  0.00     0.066 C
HETATM   11  C1  UNL     1      30.257  40.485  37.105  1.00  0.00     0.088 C
HETATM   12  N1  UNL     1      29.042  38.435  36.892  1.00  0.00    -0.389 N
ATOM     13  H12 UNL     1      29.793  38.018  37.442  1.00  0.00     0.157 HD
ATOM     14  H11 UNL     1      28.249  37.889  36.555  1.00  0.00     0.157 HD
ENDBRANCH   8  10
ENDBRANCH   7   8
ENDBRANCH   6   7
ENDBRANCH   3   6
ENDBRANCH   1   2
BRANCH   1  15
HETATM   15  C7  UNL     1      26.384  42.333  30.427  1.00  0.00     0.039 C
BRANCH  15  16
HETATM   16  C8  UNL     1      26.938  42.076  29.074  1.00  0.00    -0.012 C
HETATM   17  C9  UNL     1      27.839  40.851  29.176  1.00  0.00     0.005 C
HETATM   18  C10 UNL     1      28.283  40.415  27.816  1.00  0.00     0.000 C
HETATM   19  C11 UNL     1      28.875  41.516  26.993  1.00  0.00     0.000 C
HETATM   20  C12 UNL     1      28.171  42.827  27.117  1.00  0.00     0.000 C
HETATM   21  C13 UNL     1      27.809  43.186  28.543  1.00  0.00     0.005 C
ENDBRANCH  15  16
ENDBRANCH   1  15
BRANCH   1  22
HETATM   22  N4  UNL     1      27.749  42.986  32.272  1.00  0.00    -0.348 N
HETATM   23  C14 UNL     1      29.097  43.372  32.130  1.00  0.00     0.220 C
HETATM   24  O2  UNL     1      29.857  42.714  31.392  1.00  0.00    -0.274 OA
ATOM     25  H4  UNL     1      27.125  43.522  32.876  1.00  0.00     0.163 HD
BRANCH  23  26
HETATM   26  C15 UNL     1      29.645  44.553  32.843  1.00  0.00     0.128 C
BRANCH  26  27
HETATM   27  C16 UNL     1      30.903  44.178  33.592  1.00  0.00     0.093 C
HETATM   28  C17 UNL     1      30.642  43.437  34.863  1.00  0.00     0.026 C
HETATM   29  C18 UNL     1      29.849  44.187  35.886  1.00  0.00     0.002 C
HETATM   30  C19 UNL     1      30.731  45.040  36.765  1.00  0.00     0.001 C
HETATM   31  C20 UNL     1      30.302  46.491  36.760  1.00  0.00     0.009 C
HETATM   32  C21 UNL     1      30.462  47.117  35.394  1.00  0.00     0.103 C
HETATM   33  C22 UNL     1      31.559  46.495  34.642  1.00  0.00     0.217 C
HETATM   34  O3  UNL     1      32.659  47.134  34.713  1.00  0.00    -0.274 OA
HETATM   35  N5  UNL     1      31.752  45.347  33.829  1.00  0.00    -0.356 N
ATOM     36  H5  UNL     1      32.636  45.334  33.321  1.00  0.00     0.162 HD
ENDBRANCH  26  27
ENDBRANCH  23  26
ENDBRANCH   1  22
TORSDOF 10
ENDMDL