MODEL 4
REMARK VINA RESULT: -8.383082614      4.818     10.594
REMARK  10 active torsions:
REMARK  status: ('A' for Active; 'I' for Inactive)
REMARK    1  A    between atoms: O1_2  and  C2_3
REMARK    2  A    between atoms: C5_6  and  C6_7
REMARK    3  A    between atoms: C6_7  and  C7_8
REMARK    4  A    between atoms: C7_8  and  N1_9
REMARK       I    between atoms: C8_11  and  N3_13
REMARK    5  A    between atoms: N3_13  and  C9_15
REMARK    6  A    between atoms: C9_15  and  C10_16
REMARK    7  A    between atoms: C10_16  and  C11_17
REMARK    8  A    between atoms: C11_17  and  S1_18
REMARK    9  A    between atoms: S1_18  and  C12_19
REMARK   10  A    between atoms: C14_21  and  N4_22
ROOT
HETATM    1  N1  UNL     1      27.907  42.191  30.017  1.00  0.00    -0.364 N
ATOM      2  H1  UNL     1      27.324  41.357  29.936  1.00  0.00     0.162 HD
HETATM    3  C8  UNL     1      28.179  42.687  31.174  1.00  0.00     0.183 C
HETATM    4  N2  UNL     1      27.648  42.044  32.319  1.00  0.00    -0.064 NA
HETATM    5  N3  UNL     1      28.980  43.842  31.345  1.00  0.00    -0.365 N
ATOM      6  H3  UNL     1      29.250  44.351  30.504  1.00  0.00     0.162 HD
ENDROOT
BRANCH   5   7
HETATM    7  C9  UNL     1      29.442  44.356  32.593  1.00  0.00     0.123 C
BRANCH   7   8
HETATM    8  C10 UNL     1      30.771  43.742  32.975  1.00  0.00     0.030 C
BRANCH   8   9
HETATM    9  C11 UNL     1      31.249  44.285  34.302  1.00  0.00     0.082 C
BRANCH   9  10
HETATM   10  S1  UNL     1      29.850  44.610  35.414  1.00  0.00    -0.112 SA
BRANCH  10  11
HETATM   11  C12 UNL     1      29.248  43.062  36.123  1.00  0.00     0.072 A
HETATM   12  C13 UNL     1      29.604  42.713  37.421  1.00  0.00     0.066 A
HETATM   13  C14 UNL     1      29.168  41.545  38.007  1.00  0.00     0.036 A
HETATM   14  C15 UNL     1      28.358  40.744  37.230  1.00  0.00    -0.009 A
HETATM   15  C16 UNL     1      28.016  41.107  35.945  1.00  0.00     0.018 A
HETATM   16  C19 UNL     1      27.731  39.434  37.569  1.00  0.00     0.043 C
HETATM   17  N5  UNL     1      28.467  42.254  35.423  1.00  0.00    -0.354 N
HETATM   18  C17 UNL     1      27.143  40.051  35.375  1.00  0.00     0.058 C
ATOM     19  H5  UNL     1      28.206  42.510  34.471  1.00  0.00     0.166 HD
HETATM   20  C18 UNL     1      27.528  38.839  36.192  1.00  0.00     0.011 C
BRANCH  13  21
HETATM   21  N4  UNL     1      29.503  41.226  39.215  1.00  0.00    -0.399 N
ATOM     22  H42 UNL     1      29.981  41.877  39.838  1.00  0.00     0.156 HD
ATOM     23  H41 UNL     1      29.303  40.302  39.599  1.00  0.00     0.156 HD
ENDBRANCH  13  21
ENDBRANCH  10  11
ENDBRANCH   9  10
ENDBRANCH   8   9
ENDBRANCH   7   8
ENDBRANCH   5   7
BRANCH   1  24
HETATM   24  C7  UNL     1      28.438  42.833  28.833  1.00  0.00     0.128 C
BRANCH  24  25
HETATM   25  C6  UNL     1      27.707  42.538  27.583  1.00  0.00     0.076 C
BRANCH  25  26
HETATM   26  C5  UNL     1      28.444  41.904  26.497  1.00  0.00     0.010 A
HETATM   27  C4  UNL     1      28.532  42.410  25.297  1.00  0.00     0.028 A
HETATM   28  C3  UNL     1      29.294  41.725  24.222  1.00  0.00     0.040 A
HETATM   29  C2  UNL     1      29.893  40.577  24.498  1.00  0.00     0.083 A
HETATM   30  C20 UNL     1      29.770  40.045  25.856  1.00  0.00     0.124 A
HETATM   31  N6  UNL     1      29.101  40.660  26.772  1.00  0.00    -0.366 N
ATOM     32  H6  UNL     1      29.039  40.255  27.705  1.00  0.00     0.165 HD
BRANCH  29  33
HETATM   33  O1  UNL     1      30.631  39.871  23.537  1.00  0.00    -0.355 OA
HETATM   34  C1  UNL     1      31.315  38.712  23.999  1.00  0.00     0.210 C
ENDBRANCH  29  33
ENDBRANCH  25  26
ENDBRANCH  24  25
ENDBRANCH   1  24
TORSDOF 10
ENDMDL