MODEL 1
REMARK VINA RESULT: -7.900773591      0.000      0.000
REMARK  12 active torsions:
REMARK  status: ('A' for Active; 'I' for Inactive)
REMARK    1  A    between atoms: C2_2  and  C3_3
REMARK    2  A    between atoms: C8_10  and  C9_11
REMARK    3  A    between atoms: C9_11  and  C10_12
REMARK    4  A    between atoms: C10_12  and  C11_13
REMARK    5  A    between atoms: N2_16  and  C14_17
REMARK    6  A    between atoms: C14_17  and  C15_18
REMARK    7  A    between atoms: C15_18  and  N3_19
REMARK    8  A    between atoms: N3_19  and  C16_21
REMARK    9  A    between atoms: C19_26  and  N5_27
REMARK   10  A    between atoms: N5_27  and  C20_29
REMARK   11  A    between atoms: C20_29  and  C21_30
REMARK   12  A    between atoms: C21_30  and  N6_31
ROOT
HETATM    1  C15 UNL     1      29.107  43.045  31.271  1.00  0.00     0.182 C
ENDROOT
BRANCH   1   2
HETATM    2  C14 UNL     1      27.828  42.527  30.714  1.00  0.00     0.078 C
BRANCH   2   3
HETATM    3  N2  UNL     1      27.791  42.068  29.401  1.00  0.00    -0.391 N
HETATM    4  C13 UNL     1      26.851  41.073  29.081  1.00  0.00     0.122 C
HETATM    5  C12 UNL     1      26.970  40.901  27.543  1.00  0.00     0.026 C
HETATM    6  C11 UNL     1      27.401  42.276  27.079  1.00  0.00     0.005 C
HETATM    7  C22 UNL     1      27.893  42.991  28.327  1.00  0.00     0.126 C
BRANCH   6   8
HETATM    8  C10 UNL     1      28.633  42.144  26.159  1.00  0.00     0.011 C
BRANCH   8   9
HETATM    9  C9  UNL     1      28.468  41.032  25.200  1.00  0.00     0.041 C
BRANCH   9  10
HETATM   10  C8  UNL     1      29.642  40.285  24.781  1.00  0.00    -0.028 A
HETATM   11  C3  UNL     1      30.272  39.243  25.361  1.00  0.00    -0.028 A
HETATM   12  C4  UNL     1      31.361  38.922  24.530  1.00  0.00     0.012 A
HETATM   13  C5  UNL     1      32.358  37.829  24.758  1.00  0.00     0.068 C
HETATM   14  N1  UNL     1      31.342  39.770  23.501  1.00  0.00    -0.363 N
HETATM   15  C6  UNL     1      30.322  40.616  23.603  1.00  0.00     0.012 A
ATOM     16  H1  UNL     1      32.019  39.769  22.738  1.00  0.00     0.165 HD
HETATM   17  C7  UNL     1      29.952  41.726  22.643  1.00  0.00     0.068 C
BRANCH  11  18
HETATM   18  C2  UNL     1      30.037  38.478  26.595  1.00  0.00     0.036 C
HETATM   19  C1  UNL     1      28.910  37.499  26.316  1.00  0.00     0.010 C
ENDBRANCH  11  18
ENDBRANCH   9  10
ENDBRANCH   8   9
ENDBRANCH   6   8
ENDBRANCH   2   3
ENDBRANCH   1   2
BRANCH   1  20
HETATM   20  N3  UNL     1      29.076  44.321  31.887  1.00  0.00    -0.221 N
ATOM     21  H3  UNL     1      28.691  45.087  31.335  1.00  0.00     0.178 HD
BRANCH  20  22
HETATM   22  C16 UNL     1      29.481  44.607  33.063  1.00  0.00     0.679 A
HETATM   23  N4  UNL     1      29.993  45.821  33.337  1.00  0.00    -0.202 N
HETATM   24  C17 UNL     1      30.437  46.179  34.562  1.00  0.00     0.110 A
ATOM     25  H4  UNL     1      30.048  46.505  32.582  1.00  0.00     0.183 HD
HETATM   26  C18 UNL     1      30.370  45.273  35.585  1.00  0.00     0.066 A
HETATM   27  C19 UNL     1      29.851  44.034  35.312  1.00  0.00     0.118 A
HETATM   28  N7  UNL     1      29.418  43.713  34.083  1.00  0.00    -0.177 N
ATOM     29  H7  UNL     1      29.037  42.783  33.912  1.00  0.00     0.185 HD
BRANCH  27  30
HETATM   30  N5  UNL     1      29.772  43.161  36.241  1.00  0.00    -0.374 N
ATOM     31  H5  UNL     1      29.704  43.451  37.217  1.00  0.00     0.161 HD
BRANCH  30  32
HETATM   32  C20 UNL     1      29.778  41.758  35.896  1.00  0.00     0.148 C
BRANCH  32  33
HETATM   33  C21 UNL     1      29.945  40.996  37.214  1.00  0.00     0.249 C
BRANCH  33  34
HETATM   34  N6  UNL     1      29.240  41.798  38.216  1.00  0.00    -0.078 N
ATOM     35  H63 UNL     1      28.717  41.243  38.893  1.00  0.00     0.274 HD
ATOM     36  H62 UNL     1      29.859  42.253  38.888  1.00  0.00     0.274 HD
ATOM     37  H61 UNL     1      28.662  42.448  37.683  1.00  0.00     0.274 HD
ENDBRANCH  33  34
ENDBRANCH  32  33
ENDBRANCH  30  32
ENDBRANCH  27  30
ENDBRANCH  20  22
ENDBRANCH   1  20
TORSDOF 12
ENDMDL