MODEL 1
REMARK VINA RESULT: -7.428668970      0.000      0.000
REMARK  10 active torsions:
REMARK  status: ('A' for Active; 'I' for Inactive)
REMARK    1  A    between atoms: C2_2  and  C5_5
REMARK    2  A    between atoms: C6_6  and  C7_7
REMARK    3  A    between atoms: C7_7  and  C8_8
REMARK    4  A    between atoms: C8_8  and  C9_9
REMARK    5  A    between atoms: C9_9  and  C10_10
REMARK    6  A    between atoms: C10_10  and  C11_11
REMARK    7  A    between atoms: C11_11  and  C12_12
REMARK    8  A    between atoms: C14_19  and  C15_20
REMARK    9  A    between atoms: C15_20  and  C16_21
REMARK   10  A    between atoms: C16_21  and  N3_22
ROOT
HETATM    1  C10 UNL     1      27.959  39.807  36.714  1.00  0.00     0.098 C
HETATM    2  N2  UNL     1      26.704  39.290  37.237  1.00  0.00    -0.343 N
ATOM      3  H2  UNL     1      25.828  39.787  37.074  1.00  0.00     0.163 HD
HETATM    4  C13 UNL     1      26.722  38.088  37.972  1.00  0.00     0.241 C
HETATM    5  O2  UNL     1      26.046  37.943  39.015  1.00  0.00    -0.271 OA
HETATM    6  C14 UNL     1      27.559  36.958  37.504  1.00  0.00     0.176 C
HETATM    7  N4  UNL     1      28.710  37.405  36.781  1.00  0.00    -0.365 N
ATOM      8  H4  UNL     1      29.298  36.738  36.283  1.00  0.00     0.161 HD
HETATM    9  C22 UNL     1      29.021  38.788  36.770  1.00  0.00     0.100 C
HETATM   10  N5  UNL     1      30.276  39.179  36.810  1.00  0.00    -0.387 N
ATOM     11  H51 UNL     1      31.012  38.473  36.849  1.00  0.00     0.157 HD
ATOM     12  H52 UNL     1      30.500  40.174  36.801  1.00  0.00     0.157 HD
ENDROOT
BRANCH   1  13
HETATM   13  C9  UNL     1      28.283  41.016  37.558  1.00  0.00     0.040 C
BRANCH  13  14
HETATM   14  C8  UNL     1      28.490  42.243  36.731  1.00  0.00     0.015 C
BRANCH  14  15
HETATM   15  C7  UNL     1      29.953  42.438  36.366  1.00  0.00     0.094 C
BRANCH  15  16
HETATM   16  C6  UNL     1      30.082  43.815  35.885  1.00  0.00    -0.106 C
HETATM   17  C5  UNL     1      30.209  44.952  35.491  1.00  0.00    -0.098 C
BRANCH  17  18
HETATM   18  C2  UNL     1      30.380  46.323  34.997  1.00  0.00     0.013 C
HETATM   19  C1  UNL     1      30.708  47.254  36.170  1.00  0.00     0.028 C
HETATM   20  C3  UNL     1      29.131  46.791  34.294  1.00  0.00     0.028 C
HETATM   21  C4  UNL     1      31.505  46.378  33.972  1.00  0.00     0.028 C
ENDBRANCH  17  18
ENDBRANCH  15  16
ENDBRANCH  14  15
ENDBRANCH  13  14
ENDBRANCH   1  13
BRANCH   1  22
HETATM   22  C11 UNL     1      27.647  40.227  35.290  1.00  0.00     0.138 C
BRANCH  22  23
HETATM   23  C12 UNL     1      26.556  39.498  34.653  1.00  0.00     0.234 C
HETATM   24  N1  UNL     1      25.223  39.954  34.518  1.00  0.00    -0.062 NA
HETATM   25  O1  UNL     1      26.790  38.341  34.163  1.00  0.00    -0.277 OA
ENDBRANCH  22  23
ENDBRANCH   1  22
BRANCH   6  26
HETATM   26  C15 UNL     1      26.670  36.031  36.713  1.00  0.00     0.054 C
BRANCH  26  27
HETATM   27  C16 UNL     1      27.116  34.612  36.733  1.00  0.00     0.119 C
BRANCH  27  28
HETATM   28  N3  UNL     1      27.435  34.185  35.407  1.00  0.00    -0.412 N
HETATM   29  C17 UNL     1      27.252  32.795  35.170  1.00  0.00     0.117 C
HETATM   30  C18 UNL     1      26.003  32.557  34.356  1.00  0.00     0.019 C
HETATM   31  C19 UNL     1      26.101  33.187  32.984  1.00  0.00     0.003 C
HETATM   32  C20 UNL     1      26.962  34.428  33.006  1.00  0.00     0.019 C
HETATM   33  C21 UNL     1      27.015  35.061  34.373  1.00  0.00     0.117 C
ENDBRANCH  27  28
ENDBRANCH  26  27
ENDBRANCH   6  26
TORSDOF 10
ENDMDL