MODEL 4
REMARK VINA RESULT: -8.009183645      2.967      4.699
REMARK  9 active torsions:
REMARK  status: ('A' for Active; 'I' for Inactive)
REMARK       I    between atoms: C1_4  and  N2_5
REMARK       I    between atoms: C1_4  and  N4_18
REMARK    1  A    between atoms: N2_5  and  C2_7
REMARK    2  A    between atoms: C2_7  and  C3_8
REMARK    3  A    between atoms: C3_8  and  C4_9
REMARK    4  A    between atoms: C4_9  and  C5_10
REMARK    5  A    between atoms: C5_10  and  C6_11
REMARK    6  A    between atoms: C6_11  and  C7_12
REMARK    7  A    between atoms: C7_12  and  N3_13
REMARK    8  A    between atoms: N4_18  and  S1_20
REMARK    9  A    between atoms: S1_20  and  N5_23
REMARK       I    between atoms: N5_23  and  C12_25
REMARK       I    between atoms: C12_25  and  N6_27
ROOT
HETATM    1  N1  UNL     1      30.009  43.410  31.873  1.00  0.00    -0.234 N
ATOM      2  H11 UNL     1      30.894  43.881  32.063  1.00  0.00     0.174 HD
ATOM      3  H12 UNL     1      30.009  42.526  31.364  1.00  0.00     0.174 HD
HETATM    4  C1  UNL     1      28.907  43.923  32.263  1.00  0.00     0.682 C
HETATM    5  N2  UNL     1      27.682  43.271  31.999  1.00  0.00    -0.226 N
ATOM      6  H2  UNL     1      26.823  43.812  32.101  1.00  0.00     0.177 HD
HETATM    7  N4  UNL     1      28.906  45.148  32.969  1.00  0.00    -0.100 N
ATOM      8  H4  UNL     1      28.352  45.929  32.617  1.00  0.00     0.199 HD
ENDROOT
BRANCH   5   9
HETATM    9  C2  UNL     1      27.565  41.903  31.597  1.00  0.00     0.138 C
BRANCH   9  10
HETATM   10  C3  UNL     1      26.895  41.750  30.219  1.00  0.00     0.020 C
BRANCH  10  11
HETATM   11  C4  UNL     1      27.271  42.855  29.309  1.00  0.00     0.002 C
BRANCH  11  12
HETATM   12  C5  UNL     1      28.377  42.672  28.382  1.00  0.00     0.002 C
BRANCH  12  13
HETATM   13  C6  UNL     1      28.241  42.468  26.937  1.00  0.00     0.030 C
BRANCH  13  14
HETATM   14  C7  UNL     1      28.624  41.146  26.419  1.00  0.00     0.272 C
BRANCH  14  15
HETATM   15  N3  UNL     1      29.438  41.213  25.212  1.00  0.00     0.088 N
HETATM   16  C8  UNL     1      29.671  39.952  24.595  1.00  0.00     0.272 C
HETATM   17  C9  UNL     1      30.401  40.327  23.324  1.00  0.00     0.032 C
HETATM   18  C10 UNL     1      29.821  41.676  22.993  1.00  0.00     0.032 C
HETATM   19  C11 UNL     1      28.952  42.072  24.197  1.00  0.00     0.272 C
ENDBRANCH  14  15
ENDBRANCH  13  14
ENDBRANCH  12  13
ENDBRANCH  11  12
ENDBRANCH  10  11
ENDBRANCH   9  10
ENDBRANCH   5   9
BRANCH   7  20
HETATM   20  S1  UNL     1      29.814  45.343  34.396  1.00  0.00     0.340 S
HETATM   21  O1  UNL     1      31.309  45.235  34.131  1.00  0.00    -0.182 OA
HETATM   22  O2  UNL     1      29.600  46.700  35.010  1.00  0.00    -0.182 OA
BRANCH  20  23
HETATM   23  N5  UNL     1      29.422  44.074  35.512  1.00  0.00    -0.218 N
HETATM   24  C12 UNL     1      30.094  42.843  35.460  1.00  0.00     0.333 C
HETATM   25  O3  UNL     1      31.001  42.638  34.613  1.00  0.00    -0.246 OA
HETATM   26  N6  UNL     1      29.764  41.803  36.363  1.00  0.00    -0.333 N
HETATM   27  C13 UNL     1      30.476  40.529  36.314  1.00  0.00     0.127 C
HETATM   28  C17 UNL     1      28.722  41.898  37.361  1.00  0.00     0.127 C
HETATM   29  C14 UNL     1      30.997  40.202  37.672  1.00  0.00     0.020 C
HETATM   30  C15 UNL     1      30.032  40.432  38.789  1.00  0.00     0.003 C
HETATM   31  C16 UNL     1      29.405  41.825  38.721  1.00  0.00     0.020 C
ATOM     32  H5  UNL     1      28.695  44.224  36.212  1.00  0.00     0.185 HD
ENDBRANCH  20  23
ENDBRANCH   7  20
TORSDOF 9
ENDMDL