MODEL 1
REMARK VINA RESULT: -8.763759030      0.000      0.000
REMARK  10 active torsions:
REMARK  status: ('A' for Active; 'I' for Inactive)
REMARK    1  A    between atoms: C2_2  and  C3_3
REMARK    2  A    between atoms: C4_4  and  C5_5
REMARK    3  A    between atoms: C5_5  and  C6_6
REMARK    4  A    between atoms: C6_6  and  C7_7
REMARK    5  A    between atoms: C7_7  and  C8_8
REMARK    6  A    between atoms: C8_8  and  C9_9
REMARK    7  A    between atoms: C9_9  and  N1_10
REMARK    8  A    between atoms: C13_14  and  C14_15
REMARK    9  A    between atoms: C15_18  and  N3_19
REMARK   10  A    between atoms: N5_25  and  C17_27
ROOT
HETATM    1  C14 UNL     1      29.301  40.579  25.864  1.00  0.00     0.148 A
HETATM    2  N2  UNL     1      29.592  41.044  24.633  1.00  0.00    -0.175 N
ATOM      3  H2  UNL     1      29.142  41.894  24.293  1.00  0.00     0.186 HD
HETATM    4  C15 UNL     1      30.463  40.400  23.860  1.00  0.00     0.692 A
HETATM    5  N4  UNL     1      31.051  39.274  24.330  1.00  0.00    -0.023 N
ATOM      6  H4  UNL     1      31.719  38.784  23.734  1.00  0.00     0.203 HD
HETATM    7  C16 UNL     1      30.790  38.781  25.543  1.00  0.00     0.694 A
HETATM    8  N5  UNL     1      31.344  37.719  25.983  1.00  0.00    -0.221 N
ATOM      9  H5  UNL     1      31.113  37.382  26.917  1.00  0.00     0.178 HD
HETATM   10  N7  UNL     1      29.889  39.467  26.312  1.00  0.00    -0.175 N
ATOM     11  H7  UNL     1      29.662  39.121  27.244  1.00  0.00     0.186 HD
ENDROOT
BRANCH   1  12
HETATM   12  C13 UNL     1      28.345  41.289  26.707  1.00  0.00     0.025 A
HETATM   13  C12 UNL     1      26.993  41.247  26.318  1.00  0.00     0.018 A
HETATM   14  C11 UNL     1      26.082  41.915  27.108  1.00  0.00     0.018 A
HETATM   15  C10 UNL     1      26.488  42.599  28.240  1.00  0.00     0.090 A
HETATM   16  N1  UNL     1      27.754  42.652  28.623  1.00  0.00    -0.365 N
HETATM   17  C22 UNL     1      28.670  41.986  27.839  1.00  0.00     0.105 A
BRANCH  16  18
HETATM   18  C9  UNL     1      28.269  43.355  29.784  1.00  0.00     0.128 C
BRANCH  18  19
HETATM   19  C8  UNL     1      28.310  42.447  30.972  1.00  0.00     0.020 C
BRANCH  19  20
HETATM   20  C7  UNL     1      28.472  43.196  32.257  1.00  0.00     0.002 C
BRANCH  20  21
HETATM   21  C6  UNL     1      29.788  43.922  32.281  1.00  0.00     0.004 C
BRANCH  21  22
HETATM   22  C5  UNL     1      29.784  44.887  33.453  1.00  0.00     0.027 C
BRANCH  22  23
HETATM   23  C4  UNL     1      30.925  45.816  33.399  1.00  0.00    -0.031 C
HETATM   24  C3  UNL     1      31.241  46.689  34.310  1.00  0.00    -0.031 C
BRANCH  24  25
HETATM   25  C2  UNL     1      30.526  46.921  35.569  1.00  0.00     0.022 C
HETATM   26  C1  UNL     1      31.477  46.960  36.754  1.00  0.00     0.009 C
ENDBRANCH  24  25
ENDBRANCH  22  23
ENDBRANCH  21  22
ENDBRANCH  20  21
ENDBRANCH  19  20
ENDBRANCH  18  19
ENDBRANCH  16  18
ENDBRANCH   1  12
BRANCH   4  27
HETATM   27  N3  UNL     1      30.725  40.864  22.689  1.00  0.00    -0.234 N
ATOM     28  H32 UNL     1      30.209  40.560  21.863  1.00  0.00     0.174 HD
ATOM     29  H31 UNL     1      31.471  41.552  22.580  1.00  0.00     0.174 HD
ENDBRANCH   4  27
BRANCH   8  30
HETATM   30  C17 UNL     1      32.283  36.999  25.187  1.00  0.00     0.102 C
HETATM   31  C18 UNL     1      33.401  36.392  26.017  1.00  0.00     0.053 C
HETATM   32  C19 UNL     1      34.320  35.662  25.095  1.00  0.00     0.234 C
HETATM   33  N6  UNL     1      33.979  35.824  23.701  1.00  0.00    -0.075 N
HETATM   34  C20 UNL     1      32.625  35.399  23.405  1.00  0.00     0.234 C
ATOM     35  H62 UNL     1      34.138  36.784  23.394  1.00  0.00     0.277 HD
ATOM     36  H61 UNL     1      34.652  35.346  23.102  1.00  0.00     0.277 HD
HETATM   37  C21 UNL     1      31.649  35.808  24.457  1.00  0.00     0.053 C
ENDBRANCH   8  30
TORSDOF 10
ENDMDL