MODEL 4
REMARK VINA RESULT: -7.275504324      3.999      6.181
REMARK  13 active torsions:
REMARK  status: ('A' for Active; 'I' for Inactive)
REMARK    1  A    between atoms: C2_2  and  N1_3
REMARK    2  A    between atoms: C2_2  and  C3_7
REMARK    3  A    between atoms: C2_2  and  N2_17
REMARK    4  A    between atoms: C4_8  and  C5_9
REMARK    5  A    between atoms: C6_10  and  C7_11
REMARK    6  A    between atoms: N2_17  and  C13_20
REMARK    7  A    between atoms: C13_20  and  C14_21
REMARK    8  A    between atoms: N3_25  and  S1_26
REMARK    9  A    between atoms: S1_26  and  N4_27
REMARK   10  A    between atoms: S1_26  and  C18_31
REMARK   11  A    between atoms: C18_31  and  C19_32
REMARK   12  A    between atoms: C19_32  and  C20_33
REMARK   13  A    between atoms: C20_33  and  N5_34
ROOT
HETATM    1  N2  UNL     1      28.167  40.569  27.833  1.00  0.00    -0.036 N
ATOM      2  H21 UNL     1      28.005  39.591  28.076  1.00  0.00     0.280 HD
ATOM      3  H22 UNL     1      29.181  40.611  27.937  1.00  0.00     0.280 HD
ENDROOT
BRANCH   1   4
HETATM    4  C2  UNL     1      27.524  41.441  28.801  1.00  0.00     0.299 C
HETATM    5  C1  UNL     1      26.794  42.574  28.158  1.00  0.00     0.083 C
BRANCH   4   6
HETATM    6  N1  UNL     1      28.642  42.012  29.571  1.00  0.00    -0.041 N
ATOM      7  H13 UNL     1      29.526  41.531  29.404  1.00  0.00     0.277 HD
ATOM      8  H12 UNL     1      28.925  42.933  29.236  1.00  0.00     0.277 HD
ATOM      9  H11 UNL     1      28.370  42.013  30.554  1.00  0.00     0.277 HD
ENDBRANCH   4   6
BRANCH   4  10
HETATM   10  C3  UNL     1      26.695  40.674  29.727  1.00  0.00     0.041 C
HETATM   11  C4  UNL     1      25.466  40.299  29.505  1.00  0.00    -0.000 C
BRANCH  11  12
HETATM   12  C5  UNL     1      24.670  40.552  28.320  1.00  0.00    -0.004 C
HETATM   13  C6  UNL     1      23.349  40.575  28.332  1.00  0.00    -0.022 C
BRANCH  13  14
HETATM   14  C7  UNL     1      22.610  40.840  27.080  1.00  0.00     0.012 C
HETATM   15  C8  UNL     1      23.565  40.959  25.912  1.00  0.00     0.035 C
HETATM   16  C9  UNL     1      23.074  41.819  24.828  1.00  0.00    -0.030 C
HETATM   17  C10 UNL     1      22.440  42.953  25.125  1.00  0.00    -0.031 C
HETATM   18  C11 UNL     1      22.287  43.249  26.597  1.00  0.00     0.027 C
HETATM   19  C12 UNL     1      21.647  41.997  27.184  1.00  0.00     0.012 C
ENDBRANCH  13  14
ENDBRANCH  11  12
ENDBRANCH   4  10
ENDBRANCH   1   4
BRANCH   1  20
HETATM   20  C13 UNL     1      27.797  40.811  26.478  1.00  0.00     0.256 C
BRANCH  20  21
HETATM   21  C14 UNL     1      29.105  40.888  25.676  1.00  0.00     0.098 C
HETATM   22  C15 UNL     1      28.953  42.061  24.733  1.00  0.00     0.023 C
HETATM   23  C16 UNL     1      29.153  41.527  23.351  1.00  0.00     0.017 C
HETATM   24  C17 UNL     1      29.837  40.174  23.605  1.00  0.00     0.106 C
HETATM   25  N3  UNL     1      29.254  39.751  24.826  1.00  0.00    -0.222 NA
BRANCH  25  26
HETATM   26  S1  UNL     1      29.919  38.391  25.577  1.00  0.00     0.085 S
HETATM   27  O1  UNL     1      28.833  37.815  26.481  1.00  0.00    -0.234 OA
BRANCH  26  28
HETATM   28  N4  UNL     1      31.050  38.821  26.595  1.00  0.00    -0.349 N
ATOM     29  H42 UNL     1      31.257  39.789  26.840  1.00  0.00     0.166 HD
ATOM     30  H41 UNL     1      31.529  37.999  26.961  1.00  0.00     0.166 HD
ENDBRANCH  26  28
BRANCH  26  31
HETATM   31  C18 UNL     1      30.623  37.183  24.544  1.00  0.00     0.135 C
BRANCH  31  32
HETATM   32  C19 UNL     1      31.929  36.617  24.941  1.00  0.00     0.042 C
BRANCH  32  33
HETATM   33  C20 UNL     1      33.060  36.947  24.002  1.00  0.00     0.230 C
BRANCH  33  34
HETATM   34  N5  UNL     1      33.040  38.300  23.545  1.00  0.00    -0.079 N
ATOM     35  H53 UNL     1      32.573  38.370  22.641  1.00  0.00     0.274 HD
ATOM     36  H52 UNL     1      32.401  38.862  24.108  1.00  0.00     0.274 HD
ATOM     37  H51 UNL     1      33.965  38.728  23.510  1.00  0.00     0.274 HD
ENDBRANCH  33  34
ENDBRANCH  32  33
ENDBRANCH  31  32
ENDBRANCH  26  31
ENDBRANCH  25  26
ENDBRANCH  20  21
ENDBRANCH   1  20
TORSDOF 13
ENDMDL