MODEL 1
REMARK VINA RESULT: -7.623227402      0.000      0.000
REMARK  10 active torsions:
REMARK  status: ('A' for Active; 'I' for Inactive)
REMARK    1  A    between atoms: N3_8  and  C4_10
REMARK    2  A    between atoms: C7_13  and  N4_14
REMARK    3  A    between atoms: N4_14  and  S1_16
REMARK    4  A    between atoms: S1_16  and  C8_19
REMARK    5  A    between atoms: C12_25  and  N6_26
REMARK    6  A    between atoms: N6_26  and  C13_28
REMARK    7  A    between atoms: C13_28  and  C14_29
REMARK    8  A    between atoms: C14_29  and  C15_30
REMARK    9  A    between atoms: C15_30  and  C16_31
REMARK   10  A    between atoms: C16_31  and  C17_32
ROOT
HETATM    1  C1  UNL     1      26.796  41.763  32.230  1.00  0.00     0.048 C
HETATM    2  C2  UNL     1      27.219  41.844  30.985  1.00  0.00     0.083 A
HETATM    3  N1  UNL     1      26.588  40.974  30.021  1.00  0.00    -0.284 N
ATOM      4  H1  UNL     1      25.848  40.332  30.308  1.00  0.00     0.187 HD
HETATM    5  N2  UNL     1      27.006  41.023  28.690  1.00  0.00    -0.132 N
ATOM      6  H2  UNL     1      26.559  40.406  28.011  1.00  0.00     0.205 HD
HETATM    7  C3  UNL     1      28.030  41.900  28.246  1.00  0.00     0.694 A
HETATM    8  N3  UNL     1      28.370  41.904  27.026  1.00  0.00    -0.220 N
ATOM      9  H3  UNL     1      29.113  42.560  26.788  1.00  0.00     0.178 HD
HETATM   10  N5  UNL     1      28.659  42.758  29.170  1.00  0.00    -0.173 N
ATOM     11  H5  UNL     1      29.394  43.384  28.842  1.00  0.00     0.186 HD
HETATM   12  C12 UNL     1      28.285  42.777  30.596  1.00  0.00     0.148 A
ENDROOT
BRANCH   8  13
HETATM   13  C4  UNL     1      27.878  41.136  25.937  1.00  0.00     0.099 C
HETATM   14  C5  UNL     1      28.256  39.696  26.014  1.00  0.00     0.028 C
HETATM   15  C6  UNL     1      28.875  39.277  24.688  1.00  0.00     0.028 C
HETATM   16  C7  UNL     1      30.097  40.143  24.515  1.00  0.00     0.093 C
HETATM   17  C10 UNL     1      29.690  41.528  24.211  1.00  0.00     0.028 C
HETATM   18  C11 UNL     1      28.298  41.807  24.659  1.00  0.00     0.028 C
BRANCH  16  19
HETATM   19  N4  UNL     1      31.063  39.574  23.618  1.00  0.00    -0.315 N
ATOM     20  H4  UNL     1      31.223  39.935  22.677  1.00  0.00     0.172 HD
BRANCH  19  21
HETATM   21  S1  UNL     1      31.920  38.246  24.258  1.00  0.00     0.226 S
HETATM   22  O1  UNL     1      33.183  37.940  23.523  1.00  0.00    -0.206 OA
HETATM   23  O2  UNL     1      31.046  37.026  24.177  1.00  0.00    -0.206 OA
BRANCH  21  24
HETATM   24  C8  UNL     1      32.209  38.565  25.986  1.00  0.00     0.158 C
HETATM   25  C9  UNL     1      32.889  37.387  26.648  1.00  0.00     0.023 C
ENDBRANCH  21  24
ENDBRANCH  19  21
ENDBRANCH  16  19
ENDBRANCH   8  13
BRANCH  12  26
HETATM   26  N6  UNL     1      28.849  43.541  31.351  1.00  0.00    -0.354 N
ATOM     27  H6  UNL     1      28.222  44.346  31.351  1.00  0.00     0.166 HD
BRANCH  26  28
HETATM   28  C13 UNL     1      29.819  43.939  32.184  1.00  0.00     0.062 C
BRANCH  28  29
HETATM   29  C14 UNL     1      29.654  43.545  33.660  1.00  0.00     0.044 C
BRANCH  29  30
HETATM   30  C15 UNL     1      30.762  44.127  34.465  1.00  0.00     0.005 C
BRANCH  30  31
HETATM   31  C16 UNL     1      30.206  44.944  35.599  1.00  0.00     0.000 C
BRANCH  31  32
HETATM   32  C17 UNL     1      30.478  46.434  35.435  1.00  0.00    -0.005 C
HETATM   33  C18 UNL     1      31.437  46.908  36.524  1.00  0.00     0.005 C
ENDBRANCH  31  32
ENDBRANCH  30  31
ENDBRANCH  29  30
ENDBRANCH  28  29
ENDBRANCH  26  28
ENDBRANCH  12  26
TORSDOF 10
ENDMDL