MODEL 5
REMARK VINA RESULT: -7.108982944      2.975      9.770
REMARK  12 active torsions:
REMARK  status: ('A' for Active; 'I' for Inactive)
REMARK       I    between atoms: C1_2  and  N1_3
REMARK       I    between atoms: C1_2  and  N3_11
REMARK    1  A    between atoms: N1_3  and  C2_5
REMARK    2  A    between atoms: N3_11  and  C5_13
REMARK    3  A    between atoms: C5_13  and  C6_14
REMARK    4  A    between atoms: C6_14  and  C7_15
REMARK    5  A    between atoms: C7_15  and  C8_16
REMARK    6  A    between atoms: C8_16  and  N4_17
REMARK    7  A    between atoms: N4_17  and  C9_19
REMARK    8  A    between atoms: C9_19  and  N5_21
REMARK    9  A    between atoms: N5_21  and  C10_23
REMARK   10  A    between atoms: C10_23  and  C11_24
REMARK   11  A    between atoms: C11_24  and  C12_25
REMARK   12  A    between atoms: C12_25  and  N6_26
ROOT
HETATM    1  C8  UNL     1      27.405  41.125  28.470  1.00  0.00     0.122 C
ENDROOT
BRANCH   1   2
HETATM    2  C7  UNL     1      28.342  41.146  27.290  1.00  0.00     0.021 C
BRANCH   2   3
HETATM    3  C6  UNL     1      28.282  42.508  26.656  1.00  0.00     0.021 C
BRANCH   3   4
HETATM    4  C5  UNL     1      28.672  42.393  25.207  1.00  0.00     0.124 C
BRANCH   4   5
HETATM    5  N3  UNL     1      29.010  41.065  24.818  1.00  0.00    -0.343 N
HETATM    6  C1  UNL     1      29.979  40.745  23.836  1.00  0.00     0.322 C
HETATM    7  O1  UNL     1      30.594  41.666  23.263  1.00  0.00    -0.247 OA
HETATM    8  N1  UNL     1      30.282  39.405  23.478  1.00  0.00    -0.289 N
ATOM      9  H1  UNL     1      29.942  38.986  22.613  1.00  0.00     0.172 HD
ATOM     10  H3  UNL     1      28.523  40.295  25.276  1.00  0.00     0.164 HD
BRANCH   8  11
HETATM   11  C2  UNL     1      31.028  38.738  24.332  1.00  0.00     0.152 A
HETATM   12  N2  UNL     1      31.900  39.254  25.199  1.00  0.00    -0.346 N
HETATM   13  C3  UNL     1      32.559  38.445  25.977  1.00  0.00     0.097 A
ATOM     14  H2  UNL     1      32.046  40.262  25.252  1.00  0.00     0.167 HD
HETATM   15  C4  UNL     1      32.316  37.102  25.859  1.00  0.00     0.070 A
HETATM   16  S1  UNL     1      31.139  37.062  24.622  1.00  0.00    -0.064 SA
ENDBRANCH   8  11
ENDBRANCH   4   5
ENDBRANCH   3   4
ENDBRANCH   2   3
ENDBRANCH   1   2
BRANCH   1  17
HETATM   17  N4  UNL     1      28.168  41.232  29.693  1.00  0.00    -0.367 N
ATOM     18  H4  UNL     1      29.160  40.995  29.712  1.00  0.00     0.161 HD
BRANCH  17  19
HETATM   19  C9  UNL     1      27.504  41.676  30.866  1.00  0.00     0.167 C
HETATM   20  S2  UNL     1      26.405  40.731  31.615  1.00  0.00    -0.041 SA
BRANCH  19  21
HETATM   21  N5  UNL     1      27.783  42.951  31.411  1.00  0.00    -0.367 N
ATOM     22  H5  UNL     1      27.021  43.559  31.712  1.00  0.00     0.161 HD
BRANCH  21  23
HETATM   23  C10 UNL     1      29.148  43.384  31.538  1.00  0.00     0.123 C
BRANCH  23  24
HETATM   24  C11 UNL     1      29.382  44.285  32.730  1.00  0.00     0.039 C
BRANCH  24  25
HETATM   25  C12 UNL     1      30.627  43.862  33.436  1.00  0.00     0.123 C
BRANCH  25  26
HETATM   26  N6  UNL     1      31.012  44.824  34.439  1.00  0.00    -0.393 N
HETATM   27  C13 UNL     1      30.004  45.259  35.308  1.00  0.00     0.058 C
HETATM   28  C14 UNL     1      30.106  46.680  35.795  1.00  0.00     0.044 C
HETATM   29  C15 UNL     1      31.570  46.871  36.218  1.00  0.00     0.007 C
HETATM   30  C16 UNL     1      32.378  46.805  34.967  1.00  0.00     0.020 C
HETATM   31  C17 UNL     1      31.996  45.749  34.006  1.00  0.00     0.122 C
ENDBRANCH  25  26
ENDBRANCH  24  25
ENDBRANCH  23  24
ENDBRANCH  21  23
ENDBRANCH  19  21
ENDBRANCH  17  19
ENDBRANCH   1  17
TORSDOF 12
ENDMDL