MODEL 2
REMARK VINA RESULT: -7.883933360      1.075      1.423
REMARK  10 active torsions:
REMARK  status: ('A' for Active; 'I' for Inactive)
REMARK    1  A    between atoms: C2_2  and  C3_3
REMARK    2  A    between atoms: C3_3  and  N1_4
REMARK       I    between atoms: N1_4  and  C4_6
REMARK       I    between atoms: C4_6  and  N2_8
REMARK    3  A    between atoms: C8_17  and  N5_18
REMARK    4  A    between atoms: N5_18  and  C9_20
REMARK    5  A    between atoms: C9_20  and  C10_21
REMARK    6  A    between atoms: C10_21  and  C11_22
REMARK    7  A    between atoms: C11_22  and  N6_23
REMARK    8  A    between atoms: N6_23  and  C13_25
REMARK    9  A    between atoms: C13_25  and  C14_26
REMARK   10  A    between atoms: C14_26  and  C15_27
ROOT
HETATM    1  N1  UNL     1      29.055  45.130  33.119  1.00  0.00    -0.343 N
ATOM      2  H1  UNL     1      28.222  45.653  32.850  1.00  0.00     0.164 HD
HETATM    3  C4  UNL     1      29.599  44.178  32.238  1.00  0.00     0.321 C
HETATM    4  O1  UNL     1      30.652  43.517  32.597  1.00  0.00    -0.247 OA
HETATM    5  N2  UNL     1      29.024  43.940  30.985  1.00  0.00    -0.293 N
ATOM      6  H2  UNL     1      29.349  44.539  30.227  1.00  0.00     0.172 HD
HETATM    7  C5  UNL     1      28.148  43.074  30.670  1.00  0.00     0.138 A
HETATM    8  N3  UNL     1      27.647  42.919  29.399  1.00  0.00    -0.284 N
ATOM      9  H3  UNL     1      27.926  43.476  28.592  1.00  0.00     0.188 HD
HETATM   10  N4  UNL     1      26.763  41.959  29.372  1.00  0.00    -0.298 N
ATOM     11  H4  UNL     1      26.250  41.653  28.545  1.00  0.00     0.187 HD
HETATM   12  C6  UNL     1      26.634  41.437  30.605  1.00  0.00     0.067 A
HETATM   13  C7  UNL     1      25.852  40.427  31.135  1.00  0.00     0.080 A
HETATM   14  C8  UNL     1      25.908  40.083  32.493  1.00  0.00     0.102 A
HETATM   15  N7  UNL     1      26.765  40.786  33.251  1.00  0.00    -0.351 N
ATOM     16  H7  UNL     1      26.831  40.561  34.243  1.00  0.00     0.166 HD
HETATM   17  C19 UNL     1      27.541  41.773  32.768  1.00  0.00     0.107 A
HETATM   18  C20 UNL     1      27.501  42.127  31.435  1.00  0.00     0.053 A
ENDROOT
BRANCH  14  19
HETATM   19  N5  UNL     1      25.153  39.136  32.930  1.00  0.00    -0.376 N
ATOM     20  H5  UNL     1      24.387  38.781  32.359  1.00  0.00     0.161 HD
BRANCH  19  21
HETATM   21  C9  UNL     1      25.403  38.582  34.241  1.00  0.00     0.123 C
BRANCH  21  22
HETATM   22  C10 UNL     1      26.255  37.328  34.157  1.00  0.00     0.050 C
BRANCH  22  23
HETATM   23  C11 UNL     1      27.467  37.403  35.030  1.00  0.00     0.273 C
BRANCH  23  24
HETATM   24  N6  UNL     1      27.243  37.006  36.390  1.00  0.00     0.084 N
HETATM   25  C12 UNL     1      27.559  35.645  36.577  1.00  0.00     0.309 C
BRANCH  24  26
HETATM   26  C13 UNL     1      27.778  37.963  37.296  1.00  0.00     0.274 C
BRANCH  26  27
HETATM   27  C14 UNL     1      28.350  39.188  36.667  1.00  0.00     0.062 C
BRANCH  27  28
HETATM   28  C15 UNL     1      27.737  40.488  37.006  1.00  0.00     0.123 C
HETATM   29  C16 UNL     1      28.355  41.715  36.471  1.00  0.00     0.034 C
HETATM   30  C17 UNL     1      29.315  42.212  37.491  1.00  0.00     0.029 C
HETATM   31  C18 UNL     1      29.111  41.204  38.628  1.00  0.00     0.168 C
HETATM   32  O2  UNL     1      27.868  40.648  38.407  1.00  0.00    -0.386 OA
ENDBRANCH  27  28
ENDBRANCH  26  27
ENDBRANCH  24  26
ENDBRANCH  23  24
ENDBRANCH  22  23
ENDBRANCH  21  22
ENDBRANCH  19  21
ENDBRANCH  14  19
BRANCH   1  33
HETATM   33  C3  UNL     1      29.674  45.372  34.410  1.00  0.00     0.124 C
BRANCH  33  34
HETATM   34  C2  UNL     1      29.683  46.833  34.788  1.00  0.00     0.015 C
HETATM   35  C1  UNL     1      30.608  47.015  35.998  1.00  0.00     0.006 C
ENDBRANCH  33  34
ENDBRANCH   1  33
TORSDOF 10
ENDMDL