MODEL 3
REMARK VINA RESULT: -7.892094649      3.273      9.540
REMARK  10 active torsions:
REMARK  status: ('A' for Active; 'I' for Inactive)
REMARK    1  A    between atoms: C2_2  and  N1_3
REMARK       I    between atoms: N1_3  and  C3_5
REMARK       I    between atoms: C3_5  and  N2_7
REMARK    2  A    between atoms: N2_7  and  C4_9
REMARK    3  A    between atoms: C4_9  and  C5_10
REMARK    4  A    between atoms: C5_10  and  N3_11
REMARK    5  A    between atoms: C8_17  and  C9_18
REMARK    6  A    between atoms: C9_18  and  N4_19
REMARK    7  A    between atoms: N4_19  and  S1_21
REMARK    8  A    between atoms: S1_21  and  C10_24
REMARK    9  A    between atoms: C10_24  and  C11_25
REMARK   10  A    between atoms: C11_25  and  C12_26
ROOT
HETATM    1  C5  UNL     1      27.755  42.164  30.100  1.00  0.00     0.139 C
HETATM    2  C6  UNL     1      28.161  43.280  29.127  1.00  0.00     0.041 C
HETATM    3  C7  UNL     1      28.358  42.578  27.776  1.00  0.00     0.009 C
HETATM    4  C8  UNL     1      27.052  41.986  27.296  1.00  0.00     0.004 C
HETATM    5  C18 UNL     1      26.516  41.040  28.320  1.00  0.00     0.009 C
HETATM    6  C19 UNL     1      26.384  41.709  29.691  1.00  0.00     0.041 C
ENDROOT
BRANCH   4   7
HETATM    7  C9  UNL     1      27.329  41.237  26.014  1.00  0.00     0.136 C
BRANCH   7   8
HETATM    8  N4  UNL     1      28.250  41.883  25.161  1.00  0.00    -0.319 N
ATOM      9  H4  UNL     1      28.495  42.863  25.300  1.00  0.00     0.172 HD
BRANCH   8  10
HETATM   10  S1  UNL     1      28.932  40.991  23.909  1.00  0.00     0.227 S
HETATM   11  O2  UNL     1      30.260  41.617  23.543  1.00  0.00    -0.206 OA
HETATM   12  O3  UNL     1      28.067  41.259  22.670  1.00  0.00    -0.206 OA
BRANCH  10  13
HETATM   13  C10 UNL     1      29.000  39.272  24.097  1.00  0.00     0.172 C
BRANCH  13  14
HETATM   14  C11 UNL     1      30.143  38.659  24.785  1.00  0.00    -0.026 C
HETATM   15  C14 UNL     1      30.789  39.433  25.888  1.00  0.00     0.010 C
HETATM   16  C15 UNL     1      32.105  38.678  26.153  1.00  0.00     0.001 C
HETATM   17  C16 UNL     1      32.471  38.039  24.827  1.00  0.00     0.001 C
HETATM   18  C17 UNL     1      31.318  38.332  23.883  1.00  0.00     0.010 C
BRANCH  14  19
HETATM   19  C12 UNL     1      29.624  37.365  25.432  1.00  0.00     0.006 C
HETATM   20  C13 UNL     1      28.602  37.610  26.490  1.00  0.00     0.006 C
ENDBRANCH  14  19
ENDBRANCH  13  14
ENDBRANCH  10  13
ENDBRANCH   8  10
ENDBRANCH   7   8
ENDBRANCH   4   7
BRANCH   1  21
HETATM   21  C4  UNL     1      27.812  42.644  31.524  1.00  0.00     0.163 C
BRANCH  21  22
HETATM   22  N2  UNL     1      28.548  43.848  31.697  1.00  0.00    -0.341 N
HETATM   23  C3  UNL     1      29.499  43.938  32.752  1.00  0.00     0.316 C
HETATM   24  N1  UNL     1      30.268  45.102  32.988  1.00  0.00    -0.344 N
HETATM   25  O1  UNL     1      29.691  42.948  33.537  1.00  0.00    -0.247 OA
ATOM     26  H1  UNL     1      30.149  45.918  32.389  1.00  0.00     0.164 HD
ATOM     27  H2  UNL     1      28.397  44.639  31.070  1.00  0.00     0.164 HD
BRANCH  24  28
HETATM   28  C2  UNL     1      31.214  45.138  34.069  1.00  0.00     0.120 C
HETATM   29  C1  UNL     1      32.172  46.292  33.890  1.00  0.00     0.026 C
ENDBRANCH  24  28
ENDBRANCH  21  22
ENDBRANCH   1  21
BRANCH   1  30
HETATM   30  N3  UNL     1      28.651  41.026  29.987  1.00  0.00    -0.069 N
ATOM     31  H33 UNL     1      28.809  40.554  30.878  1.00  0.00     0.275 HD
ATOM     32  H32 UNL     1      28.233  40.238  29.492  1.00  0.00     0.275 HD
ATOM     33  H31 UNL     1      29.513  41.356  29.554  1.00  0.00     0.275 HD
ENDBRANCH   1  30
TORSDOF 10
ENDMDL