MODEL 4
REMARK VINA RESULT: -3.488408616      3.906      4.282
REMARK  2 active torsions:
REMARK  status: ('A' for Active; 'I' for Inactive)
REMARK    1  A    between atoms: C1_2  and  N1_3
REMARK    2  A    between atoms: N1_3  and  C2_5
ROOT
HETATM    1  N1  UNL     1      73.090  13.633  17.745  1.00  0.00    -0.364 N
ATOM      2  H1  UNL     1      73.393  13.573  18.718  1.00  0.00     0.162 HD
ENDROOT
BRANCH   1   3
HETATM    3  C1  UNL     1      74.028  13.946  16.752  1.00  0.00     0.348 C
HETATM    4  O1  UNL     1      74.133  15.121  16.313  1.00  0.00    -0.284 OA
ENDBRANCH   1   3
BRANCH   1   5
HETATM    5  C2  UNL     1      71.702  13.395  17.419  1.00  0.00     0.083 A
HETATM    6  C3  UNL     1      71.133  12.042  17.358  1.00  0.00     0.027 A
HETATM    7  C4  UNL     1      71.522  12.737  16.060  1.00  0.00     0.027 A
ENDBRANCH   1   5
TORSDOF 2
ENDMDL