MODEL 2
REMARK VINA RESULT: -3.671085855      1.000      1.087
REMARK  4 active torsions:
REMARK  status: ('A' for Active; 'I' for Inactive)
REMARK    1  A    between atoms: C2_2  and  C3_3
REMARK    2  A    between atoms: C3_3  and  N1_4
REMARK    3  A    between atoms: N1_4  and  N2_6
REMARK    4  A    between atoms: N2_6  and  O1_8
ROOT
HETATM    1  N1  UNL     1      71.614  16.412  15.105  1.00  0.00    -0.314 N
ATOM      2  H1  UNL     1      71.085  15.676  14.637  1.00  0.00     0.182 HD
ENDROOT
BRANCH   1   3
HETATM    3  C3  UNL     1      71.403  17.793  14.780  1.00  0.00     0.167 C
BRANCH   3   4
HETATM    4  C2  UNL     1      70.040  18.261  15.152  1.00  0.00    -0.016 C
HETATM    5  C1  UNL     1      69.185  18.608  14.197  1.00  0.00     0.008 C
ENDBRANCH   3   4
ENDBRANCH   1   3
BRANCH   1   6
HETATM    6  N2  UNL     1      72.565  16.106  16.081  1.00  0.00    -0.214 N
ATOM      7  H2  UNL     1      72.549  15.183  16.513  1.00  0.00     0.215 HD
BRANCH   6   8
HETATM    8  O1  UNL     1      73.433  16.926  16.439  1.00  0.00    -0.275 OA
ATOM      9  H1  UNL     1      74.216  16.660  16.908  1.00  0.00     0.246 HD
ENDBRANCH   6   8
ENDBRANCH   1   6
TORSDOF 4
ENDMDL