MODEL 2
REMARK VINA RESULT: -3.241335504      5.596      5.827
REMARK  3 active torsions:
REMARK  status: ('A' for Active; 'I' for Inactive)
REMARK    1  A    between atoms: O1_1  and  N1_3
REMARK    2  A    between atoms: N1_3  and  C1_5
REMARK    3  A    between atoms: C1_5  and  C2_6
ROOT
HETATM    1  C2  UNL     1      75.093  11.042  14.073  1.00  0.00     0.230 A
HETATM    2  C3  UNL     1      74.760  12.367  14.736  1.00  0.00     0.267 A
HETATM    3  N2  UNL     1      73.865  11.711  13.807  1.00  0.00    -0.066 N
ATOM      4  H21 UNL     1      72.889  11.420  13.872  1.00  0.00     0.277 HD
ATOM      5  H22 UNL     1      73.415  12.017  12.944  1.00  0.00     0.277 HD
ENDROOT
BRANCH   1   6
HETATM    6  C1  UNL     1      76.258  11.164  13.103  1.00  0.00     0.180 C
BRANCH   6   7
HETATM    7  N1  UNL     1      75.925  10.737  11.789  1.00  0.00    -0.303 N
ATOM      8  H1  UNL     1      76.239   9.827  11.453  1.00  0.00     0.187 HD
BRANCH   7   9
HETATM    9  O1  UNL     1      75.278  11.446  11.082  1.00  0.00    -0.294 OA
ATOM     10  H1  UNL     1      74.367  11.617  11.289  1.00  0.00     0.244 HD
ENDBRANCH   7   9
ENDBRANCH   6   7
ENDBRANCH   1   6
TORSDOF 3
ENDMDL