MODEL 4
REMARK VINA RESULT: -3.773600253      4.627      5.281
REMARK  2 active torsions:
REMARK  status: ('A' for Active; 'I' for Inactive)
REMARK    1  A    between atoms: C2_2  and  C3_3
REMARK    2  A    between atoms: C3_3  and  N1_4
ROOT
HETATM    1  N1  UNL     1      71.782  16.465  15.982  1.00  0.00    -0.229 N
HETATM    2  N2  UNL     1      72.799  15.720  16.378  1.00  0.00    -0.278 N
ATOM      3  H2  UNL     1      73.777  15.910  16.597  1.00  0.00     0.189 HD
HETATM    4  C4  UNL     1      72.038  14.610  16.376  1.00  0.00     0.217 A
HETATM    5  N3  UNL     1      71.027  15.401  15.975  1.00  0.00    -0.278 N
ATOM      6  H3  UNL     1      70.046  15.233  15.750  1.00  0.00     0.189 HD
ENDROOT
BRANCH   1   7
HETATM    7  C3  UNL     1      71.596  17.893  15.683  1.00  0.00     0.196 C
BRANCH   7   8
HETATM    8  C2  UNL     1      70.159  18.232  15.705  1.00  0.00    -0.014 C
HETATM    9  C1  UNL     1      69.558  18.560  14.581  1.00  0.00     0.008 C
ENDBRANCH   7   8
ENDBRANCH   1   7
TORSDOF 2
ENDMDL