MODEL 2
REMARK VINA RESULT: -3.912563074      2.470      2.996
REMARK  3 active torsions:
REMARK  status: ('A' for Active; 'I' for Inactive)
REMARK    1  A    between atoms: N2_4  and  C1_6
REMARK    2  A    between atoms: C1_6  and  C2_7
REMARK    3  A    between atoms: C4_9  and  N3_10
ROOT
HETATM    1  C2  UNL     1      73.067  12.458  16.576  1.00  0.00     0.037 A
HETATM    2  C3  UNL     1      72.272  13.383  17.508  1.00  0.00     0.041 A
HETATM    3  C4  UNL     1      71.623  12.601  16.415  1.00  0.00     0.189 A
ENDROOT
BRANCH   1   4
HETATM    4  C1  UNL     1      74.059  13.213  15.720  1.00  0.00     0.145 C
BRANCH   4   5
HETATM    5  N2  UNL     1      73.916  12.901  14.328  1.00  0.00    -0.343 N
HETATM    6  N1  UNL     1      73.915  11.741  13.880  1.00  0.00    -0.349 N
ATOM      7  H12 UNL     1      74.023  10.981  14.553  1.00  0.00     0.176 HD
ATOM      8  H11 UNL     1      73.813  11.519  12.889  1.00  0.00     0.176 HD
ATOM      9  H2  UNL     1      73.808  13.673  13.670  1.00  0.00     0.179 HD
ENDBRANCH   4   5
ENDBRANCH   1   4
BRANCH   3  10
HETATM   10  N3  UNL     1      70.819  11.458  16.867  1.00  0.00    -0.075 N
ATOM     11  H33 UNL     1      70.171  11.174  16.132  1.00  0.00     0.274 HD
ATOM     12  H32 UNL     1      71.403  10.623  16.926  1.00  0.00     0.274 HD
ATOM     13  H31 UNL     1      70.315  11.593  17.743  1.00  0.00     0.274 HD
ENDBRANCH   3  10
TORSDOF 3
ENDMDL