MODEL 5
REMARK VINA RESULT: -3.682474366      1.505      2.291
REMARK  2 active torsions:
REMARK  status: ('A' for Active; 'I' for Inactive)
REMARK    1  A    between atoms: C2_2  and  C3_3
REMARK    2  A    between atoms: C3_3  and  N1_4
ROOT
HETATM    1  N1  UNL     1      70.677  17.728  15.641  1.00  0.00     0.142 N
HETATM    2  C4  UNL     1      71.041  16.389  15.233  1.00  0.00     0.507 C
HETATM    3  N2  UNL     1      72.328  16.646  15.901  1.00  0.00    -0.022 N
ATOM      4  H21 UNL     1      73.190  16.200  15.589  1.00  0.00     0.281 HD
ATOM      5  H22 UNL     1      72.524  16.293  16.838  1.00  0.00     0.281 HD
HETATM    6  C5  UNL     1      72.069  18.048  15.658  1.00  0.00     0.507 C
ENDROOT
BRANCH   1   7
HETATM    7  C3  UNL     1      69.878  18.449  14.676  1.00  0.00     0.303 C
BRANCH   7   8
HETATM    8  C2  UNL     1      68.957  17.495  14.000  1.00  0.00    -0.007 C
HETATM    9  C1  UNL     1      67.852  17.960  13.458  1.00  0.00     0.008 C
ENDBRANCH   7   8
ENDBRANCH   1   7
TORSDOF 2
ENDMDL