MODEL 2
REMARK VINA RESULT: -3.359431989      1.470      1.583
REMARK  2 active torsions:
REMARK  status: ('A' for Active; 'I' for Inactive)
REMARK    1  A    between atoms: C1_4  and  N2_5
REMARK    2  A    between atoms: N2_5  and  N3_7
ROOT
HETATM    1  N2  UNL     1      75.160  13.349  14.562  1.00  0.00    -0.315 N
ATOM      2  H2  UNL     1      75.054  14.115  15.227  1.00  0.00     0.181 HD
ENDROOT
BRANCH   1   3
HETATM    3  C1  UNL     1      74.488  12.126  14.786  1.00  0.00     0.185 C
HETATM    4  N1  UNL     1      73.210  12.082  15.046  1.00  0.00    -0.395 N
ATOM      5  H12 UNL     1      72.697  12.963  15.085  1.00  0.00     0.156 HD
ATOM      6  H11 UNL     1      72.725  11.199  15.208  1.00  0.00     0.156 HD
ENDBRANCH   1   3
BRANCH   1   7
HETATM    7  N3  UNL     1      75.958  13.514  13.452  1.00  0.00    -0.228 NA
HETATM    8  C2  UNL     1      76.502  12.259  12.890  1.00  0.00     0.130 A
HETATM    9  C3  UNL     1      75.556  13.131  12.145  1.00  0.00     0.130 A
ENDBRANCH   1   7
TORSDOF 2
ENDMDL