MODEL 4
REMARK VINA RESULT: -3.683677534      1.764      1.977
REMARK  3 active torsions:
REMARK  status: ('A' for Active; 'I' for Inactive)
REMARK    1  A    between atoms: C2_2  and  O1_3
REMARK    2  A    between atoms: O1_3  and  C3_4
REMARK    3  A    between atoms: C5_6  and  N1_7
ROOT
HETATM    1  C3  UNL     1      72.547  13.175  15.779  1.00  0.00     0.160 A
HETATM    2  C4  UNL     1      73.212  12.582  16.956  1.00  0.00     0.070 A
HETATM    3  C5  UNL     1      71.703  12.727  16.913  1.00  0.00     0.215 A
ENDROOT
BRANCH   3   4
HETATM    4  N1  UNL     1      70.941  11.529  16.877  1.00  0.00    -0.072 N
ATOM      5  H13 UNL     1      70.199  11.657  16.190  1.00  0.00     0.274 HD
ATOM      6  H12 UNL     1      71.519  10.810  16.441  1.00  0.00     0.274 HD
ATOM      7  H11 UNL     1      70.520  11.118  17.710  1.00  0.00     0.274 HD
ENDBRANCH   3   4
BRANCH   1   8
HETATM    8  O1  UNL     1      72.638  14.571  15.562  1.00  0.00    -0.356 OA
BRANCH   8   9
HETATM    9  C2  UNL     1      71.982  15.495  16.358  1.00  0.00     0.125 C
HETATM   10  C1  UNL     1      72.667  16.551  16.800  1.00  0.00     0.037 C
ENDBRANCH   8   9
ENDBRANCH   1   8
TORSDOF 3
ENDMDL