MODEL 5
REMARK VINA RESULT: -3.347729203      5.204      5.670
REMARK  2 active torsions:
REMARK  status: ('A' for Active; 'I' for Inactive)
REMARK    1  A    between atoms: N1_2  and  C2_5
REMARK    2  A    between atoms: C2_5  and  C4_7
ROOT
HETATM    1  C1  UNL     1      74.722  13.678  16.608  1.00  0.00     0.267 C
HETATM    2  N1  UNL     1      73.657  14.339  15.912  1.00  0.00    -0.069 N
ATOM      3  H11 UNL     1      73.254  13.728  15.201  1.00  0.00     0.277 HD
ATOM      4  H12 UNL     1      74.019  15.079  15.311  1.00  0.00     0.277 HD
ENDROOT
BRANCH   2   5
HETATM    5  C2  UNL     1      72.631  14.848  16.795  1.00  0.00     0.242 C
HETATM    6  C3  UNL     1      71.311  14.241  16.302  1.00  0.00     0.047 C
BRANCH   5   7
HETATM    7  C4  UNL     1      72.550  16.326  16.769  1.00  0.00     0.263 C
HETATM    8  O1  UNL     1      73.473  17.028  16.420  1.00  0.00    -0.305 OA
ENDBRANCH   5   7
ENDBRANCH   2   5
TORSDOF 2
ENDMDL