MODEL 3
REMARK VINA RESULT: -3.962439047      1.897      2.743
REMARK  1 active torsions:
REMARK  status: ('A' for Active; 'I' for Inactive)
REMARK    1  A    between atoms: O1_1  and  C1_3
ROOT
HETATM    1  C1  UNL     1      13.875  16.237  16.991  1.00  0.00     0.173 C
HETATM    2  C2  UNL     1      12.792  15.703  17.879  1.00  0.00     0.266 C
HETATM    3  N1  UNL     1      11.560  16.347  17.539  1.00  0.00    -0.072 N
ATOM      4  H11 UNL     1      11.635  17.360  17.638  1.00  0.00     0.277 HD
ATOM      5  H12 UNL     1      10.843  16.166  18.242  1.00  0.00     0.277 HD
HETATM    6  C3  UNL     1      11.096  15.985  16.214  1.00  0.00     0.240 C
HETATM    7  C4  UNL     1      12.153  16.037  15.169  1.00  0.00     0.053 C
HETATM    8  C5  UNL     1      12.775  14.736  14.755  1.00  0.00     0.084 C
HETATM    9  S1  UNL     1      14.279  15.692  14.320  1.00  0.00    -0.143 SA
HETATM   10  C6  UNL     1      13.446  16.635  15.638  1.00  0.00     0.099 C
HETATM   11  S2  UNL     1      13.434  18.433  15.348  1.00  0.00    -0.071 SA
ENDROOT
BRANCH   1  12
HETATM   12  O1  UNL     1      14.951  15.336  16.967  1.00  0.00    -0.391 OA
ATOM     13  H1  UNL     1      14.662  14.485  17.276  1.00  0.00     0.210 HD
ENDBRANCH   1  12
TORSDOF 1
ENDMDL