MODEL 3
REMARK VINA RESULT: -5.154518823      1.473      3.563
REMARK  1 active torsions:
REMARK  status: ('A' for Active; 'I' for Inactive)
REMARK    1  A    between atoms: C2_2  and  O1_3
ROOT
HETATM    1  C1  UNL     1      13.529  16.222  15.317  1.00  0.00     0.104 C
HETATM    2  C2  UNL     1      13.014  16.198  16.759  1.00  0.00     0.298 C
HETATM    3  N1  UNL     1      12.335  14.947  16.938  1.00  0.00    -0.024 N
ATOM      4  H11 UNL     1      12.627  14.241  16.262  1.00  0.00     0.283 HD
ATOM      5  H12 UNL     1      11.351  14.992  16.674  1.00  0.00     0.283 HD
HETATM    6  C3  UNL     1      12.526  14.520  18.308  1.00  0.00     0.243 C
HETATM    7  C4  UNL     1      14.015  14.151  18.401  1.00  0.00     0.088 C
HETATM    8  C5  UNL     1      14.763  15.451  18.251  1.00  0.00     0.135 C
HETATM    9  C6  UNL     1      15.311  15.788  19.643  1.00  0.00     0.063 C
HETATM   10  C7  UNL     1      16.591  16.513  19.356  1.00  0.00     0.031 C
HETATM   11  C8  UNL     1      16.583  16.545  17.822  1.00  0.00     0.171 C
HETATM   12  O2  UNL     1      15.941  15.319  17.531  1.00  0.00    -0.361 OA
HETATM   13  N2  UNL     1      13.996  16.512  17.715  1.00  0.00    -0.338 N
ATOM     14  H2  UNL     1      14.150  17.475  18.014  1.00  0.00     0.161 HD
ENDROOT
BRANCH   2  15
HETATM   15  O1  UNL     1      12.018  17.203  16.806  1.00  0.00    -0.349 OA
ATOM     16  H1  UNL     1      11.528  17.098  15.998  1.00  0.00     0.214 HD
ENDBRANCH   2  15
TORSDOF 1
ENDMDL