MODEL 4
REMARK VINA RESULT: -4.612161876      2.651      3.612
REMARK  3 active torsions:
REMARK  status: ('A' for Active; 'I' for Inactive)
REMARK    1  A    between atoms: N1_1  and  S1_4
REMARK    2  A    between atoms: C6_10  and  O1_11
REMARK    3  A    between atoms: C7_13  and  N2_14
ROOT
HETATM    1  S1  UNL     1      12.996  17.407  14.644  1.00  0.00    -0.121 SA
HETATM    2  C1  UNL     1      13.961  16.072  14.292  1.00  0.00     0.108 A
HETATM    3  C2  UNL     1      13.800  16.289  15.768  1.00  0.00     0.056 A
HETATM    4  C3  UNL     1      14.910  16.897  16.567  1.00  0.00     0.024 C
HETATM    5  C4  UNL     1      15.465  16.006  17.628  1.00  0.00     0.004 C
HETATM    6  C5  UNL     1      14.444  15.327  18.473  1.00  0.00     0.034 C
HETATM    7  C6  UNL     1      13.022  15.527  17.966  1.00  0.00     0.150 C
HETATM    8  C7  UNL     1      13.037  15.230  16.489  1.00  0.00     0.232 C
ENDROOT
BRANCH   1   9
HETATM    9  N1  UNL     1      11.457  17.500  14.556  1.00  0.00    -0.382 NA
ATOM     10  H12 UNL     1      10.863  17.341  15.370  1.00  0.00     0.163 HD
ATOM     11  H11 UNL     1      10.783  16.753  14.718  1.00  0.00     0.163 HD
ENDBRANCH   1   9
BRANCH   8  12
HETATM   12  N2  UNL     1      11.696  15.078  15.940  1.00  0.00    -0.071 N
ATOM     13  H23 UNL     1      11.390  14.106  15.964  1.00  0.00     0.274 HD
ATOM     14  H22 UNL     1      10.991  15.479  16.558  1.00  0.00     0.274 HD
ATOM     15  H21 UNL     1      11.635  15.467  15.000  1.00  0.00     0.274 HD
ENDBRANCH   8  12
BRANCH   7  16
HETATM   16  O1  UNL     1      12.213  14.619  18.646  1.00  0.00    -0.393 OA
ATOM     17  H1  UNL     1      12.070  14.970  19.517  1.00  0.00     0.210 HD
ENDBRANCH   7  16
TORSDOF 3
ENDMDL