MODEL 3
REMARK VINA RESULT: -5.362899022      3.506      4.877
REMARK  3 active torsions:
REMARK  status: ('A' for Active; 'I' for Inactive)
REMARK    1  A    between atoms: C2_2  and  O1_3
REMARK    2  A    between atoms: C5_7  and  O2_8
REMARK    3  A    between atoms: C6_10  and  O3_11
ROOT
HETATM    1  C1  UNL     1      14.489  17.231  13.771  1.00  0.00     0.046 C
HETATM    2  C2  UNL     1      14.218  16.228  14.903  1.00  0.00     0.058 C
HETATM    3  C3  UNL     1      14.782  16.793  16.142  1.00  0.00     0.040 C
HETATM    4  C4  UNL     1      14.112  16.407  17.409  1.00  0.00     0.038 C
HETATM    5  C5  UNL     1      12.621  16.576  17.261  1.00  0.00     0.167 C
HETATM    6  C6  UNL     1      12.169  15.579  16.209  1.00  0.00     0.174 C
HETATM    7  C7  UNL     1      10.702  15.711  16.077  1.00  0.00     0.100 C
HETATM    8  N1  UNL     1       9.557  15.814  15.954  1.00  0.00    -0.194 NA
HETATM    9  C8  UNL     1      12.772  15.928  14.899  1.00  0.00     0.093 C
ENDROOT
BRANCH   6  10
HETATM   10  O3  UNL     1      12.476  14.318  16.660  1.00  0.00    -0.373 OA
ATOM     11  H3  UNL     1      13.421  14.251  16.722  1.00  0.00     0.212 HD
ENDBRANCH   6  10
BRANCH   5  12
HETATM   12  O2  UNL     1      12.323  17.837  16.784  1.00  0.00    -0.391 OA
ATOM     13  H2  UNL     1      12.287  17.834  15.835  1.00  0.00     0.210 HD
ENDBRANCH   5  12
BRANCH   2  14
HETATM   14  O1  UNL     1      14.930  15.065  14.531  1.00  0.00    -0.390 OA
ATOM     15  H1  UNL     1      14.742  14.437  15.218  1.00  0.00     0.210 HD
ENDBRANCH   2  14
TORSDOF 3
ENDMDL