MODEL 3
REMARK VINA RESULT: -5.128730945      1.489      3.585
REMARK  3 active torsions:
REMARK  status: ('A' for Active; 'I' for Inactive)
REMARK    1  A    between atoms: C3_4  and  C4_5
REMARK    2  A    between atoms: C4_5  and  O2_6
REMARK    3  A    between atoms: C6_9  and  O3_10
ROOT
HETATM    1  C1  UNL     1      14.118  14.069  18.567  1.00  0.00     0.040 C
HETATM    2  C2  UNL     1      13.215  15.135  18.125  1.00  0.00     0.125 C
HETATM    3  O1  UNL     1      12.241  14.748  17.213  1.00  0.00    -0.372 OA
HETATM    4  C3  UNL     1      12.153  15.696  16.225  1.00  0.00     0.088 C
HETATM    5  C5  UNL     1      13.354  15.513  15.318  1.00  0.00     0.073 C
HETATM    6  C6  UNL     1      14.518  15.922  16.229  1.00  0.00     0.128 C
HETATM    7  C7  UNL     1      13.863  16.339  17.510  1.00  0.00     0.050 C
HETATM    8  C8  UNL     1      12.558  16.950  16.970  1.00  0.00     0.027 C
HETATM    9  C9  UNL     1      12.758  18.136  16.140  1.00  0.00     0.014 C
ENDROOT
BRANCH   4  10
HETATM   10  C4  UNL     1      10.869  15.787  15.516  1.00  0.00     0.202 C
BRANCH  10  11
HETATM   11  O2  UNL     1       9.827  15.997  16.393  1.00  0.00    -0.398 OA
ATOM     12  H2  UNL     1       9.475  16.875  16.306  1.00  0.00     0.209 HD
ENDBRANCH  10  11
ENDBRANCH   4  10
BRANCH   6  13
HETATM   13  O3  UNL     1      15.288  16.917  15.653  1.00  0.00    -0.395 OA
ATOM     14  H3  UNL     1      15.459  17.623  16.266  1.00  0.00     0.210 HD
ENDBRANCH   6  13
TORSDOF 3
ENDMDL