MODEL 2
REMARK VINA RESULT: -4.741748347      3.233      3.778
REMARK  1 active torsions:
REMARK  status: ('A' for Active; 'I' for Inactive)
REMARK    1  A    between atoms: O1_1  and  C1_3
ROOT
HETATM    1  C1  UNL     1      15.661  15.523  18.608  1.00  0.00     0.130 C
HETATM    2  C2  UNL     1      16.335  16.438  17.580  1.00  0.00     0.108 C
HETATM    3  S1  UNL     1      14.943  16.658  16.401  1.00  0.00    -0.138 SA
HETATM    4  C3  UNL     1      13.591  16.092  17.513  1.00  0.00     0.097 C
HETATM    5  C4  UNL     1      12.420  17.004  17.469  1.00  0.00     0.041 C
HETATM    6  C5  UNL     1      11.305  16.575  16.585  1.00  0.00     0.020 C
HETATM    7  C6  UNL     1      11.262  15.116  16.282  1.00  0.00     0.130 C
HETATM    8  N1  UNL     1      12.602  14.592  16.052  1.00  0.00    -0.147 NA
HETATM    9  N2  UNL     1      13.286  14.718  17.271  1.00  0.00    -0.127 NA
HETATM   10  C7  UNL     1      14.337  16.205  18.847  1.00  0.00     0.072 C
ENDROOT
BRANCH   1  11
HETATM   11  O1  UNL     1      15.551  14.230  18.168  1.00  0.00    -0.395 OA
ATOM     12  H1  UNL     1      15.323  14.178  17.247  1.00  0.00     0.210 HD
ENDBRANCH   1  11
TORSDOF 1
ENDMDL