MODEL 4
REMARK VINA RESULT: -5.356206555      1.824      2.219
REMARK  1 active torsions:
REMARK  status: ('A' for Active; 'I' for Inactive)
REMARK    1  A    between atoms: O1_1  and  C1_3
ROOT
HETATM    1  C1  UNL     1      11.157  16.014  15.418  1.00  0.00     0.321 C
HETATM    2  C2  UNL     1      11.830  14.642  15.543  1.00  0.00     0.065 C
HETATM    3  C3  UNL     1      12.588  14.832  16.850  1.00  0.00     0.076 C
HETATM    4  C4  UNL     1      12.909  16.284  16.825  1.00  0.00     0.313 C
HETATM    5  C5  UNL     1      12.561  16.987  18.140  1.00  0.00     0.240 C
HETATM    6  O2  UNL     1      13.484  16.360  18.978  1.00  0.00    -0.350 OA
HETATM    7  C6  UNL     1      14.636  16.177  18.259  1.00  0.00     0.229 A
HETATM    8  C7  UNL     1      15.502  15.015  18.558  1.00  0.00     0.073 A
HETATM    9  C8  UNL     1      15.955  16.410  18.865  1.00  0.00     0.073 A
HETATM   10  N1  UNL     1      14.360  16.423  16.870  1.00  0.00    -0.006 N
ATOM     11  H11 UNL     1      14.721  17.304  16.505  1.00  0.00     0.284 HD
ATOM     12  H12 UNL     1      14.872  15.832  16.215  1.00  0.00     0.284 HD
HETATM   13  N2  UNL     1      12.308  16.889  15.694  1.00  0.00    -0.012 N
ATOM     14  H21 UNL     1      12.072  17.875  15.815  1.00  0.00     0.283 HD
ATOM     15  H22 UNL     1      12.935  17.029  14.903  1.00  0.00     0.283 HD
ENDROOT
BRANCH   1  16
HETATM   16  O1  UNL     1      10.211  16.105  16.442  1.00  0.00    -0.370 OA
ATOM     17  H1  UNL     1       9.546  15.450  16.269  1.00  0.00     0.212 HD
ENDBRANCH   1  16
TORSDOF 1
ENDMDL