MODEL 5
REMARK VINA RESULT: -4.527160802      1.328      1.879
REMARK  2 active torsions:
REMARK  status: ('A' for Active; 'I' for Inactive)
REMARK    1  A    between atoms: O1_1  and  C1_3
REMARK    2  A    between atoms: C7_11  and  O3_12
ROOT
HETATM    1  C1  UNL     1      12.451  14.843  15.889  1.00  0.00     0.177 C
HETATM    2  C2  UNL     1      11.519  15.952  16.345  1.00  0.00     0.153 C
HETATM    3  C3  UNL     1      12.180  16.826  17.391  1.00  0.00     0.037 C
HETATM    4  C4  UNL     1      12.624  18.003  16.563  1.00  0.00     0.036 C
HETATM    5  C5  UNL     1      12.428  17.530  15.167  1.00  0.00     0.139 C
HETATM    6  O2  UNL     1      11.220  16.810  15.266  1.00  0.00    -0.377 OA
HETATM    7  C6  UNL     1      13.489  16.656  14.622  1.00  0.00     0.119 C
HETATM    8  S1  UNL     1      15.063  16.737  15.435  1.00  0.00    -0.087 SA
HETATM    9  C7  UNL     1      12.991  15.206  14.537  1.00  0.00     0.166 C
ENDROOT
BRANCH   1  10
HETATM   10  O1  UNL     1      13.538  14.695  16.759  1.00  0.00    -0.390 OA
ATOM     11  H1  UNL     1      14.061  13.933  16.538  1.00  0.00     0.210 HD
ENDBRANCH   1  10
BRANCH   9  12
HETATM   12  O3  UNL     1      13.981  14.351  14.095  1.00  0.00    -0.392 OA
ATOM     13  H3  UNL     1      14.402  14.643  13.295  1.00  0.00     0.210 HD
ENDBRANCH   9  12
TORSDOF 2
ENDMDL