MODEL 4
REMARK VINA RESULT: -4.366082639      2.118      2.642
REMARK  2 active torsions:
REMARK  status: ('A' for Active; 'I' for Inactive)
REMARK    1  A    between atoms: C3_3  and  O1_4
REMARK    2  A    between atoms: C5_9  and  O2_11
ROOT
HETATM    1  C1  UNL     1      16.684  16.783  16.954  1.00  0.00     0.016 C
HETATM    2  C2  UNL     1      15.257  16.599  17.294  1.00  0.00     0.057 C
HETATM    3  C3  UNL     1      14.395  16.412  16.075  1.00  0.00     0.150 C
HETATM    4  C4  UNL     1      12.970  16.297  16.536  1.00  0.00     0.152 C
HETATM    5  S1  UNL     1      12.065  15.331  15.294  1.00  0.00    -0.078 SA
HETATM    6  S2  UNL     1      13.187  15.259  18.039  1.00  0.00    -0.112 SA
HETATM    7  C5  UNL     1      14.987  15.480  18.246  1.00  0.00     0.109 C
HETATM    8  C6  UNL     1      15.305  15.984  19.649  1.00  0.00     0.058 C
ENDROOT
BRANCH   7   9
HETATM    9  O2  UNL     1      15.694  14.337  18.027  1.00  0.00    -0.379 OA
ATOM     10  H2  UNL     1      15.364  13.560  18.462  1.00  0.00     0.211 HD
ENDBRANCH   7   9
BRANCH   3  11
HETATM   11  O1  UNL     1      14.720  15.330  15.310  1.00  0.00    -0.393 OA
ATOM     12  H1  UNL     1      15.147  15.540  14.487  1.00  0.00     0.210 HD
ENDBRANCH   3  11
TORSDOF 2
ENDMDL