MODEL 4
REMARK VINA RESULT: -4.459388365      2.338      3.727
REMARK  1 active torsions:
REMARK  status: ('A' for Active; 'I' for Inactive)
REMARK    1  A    between atoms: C7_13  and  O1_14
ROOT
HETATM    1  C1  UNL     1      10.547  15.407  16.078  1.00  0.00     0.014 C
HETATM    2  C2  UNL     1      11.980  15.032  15.963  1.00  0.00     0.032 C
HETATM    3  C3  UNL     1      12.574  14.688  17.295  1.00  0.00     0.084 C
HETATM    4  S1  UNL     1      13.125  16.401  17.571  1.00  0.00    -0.135 SA
HETATM    5  C4  UNL     1      12.964  16.162  15.771  1.00  0.00     0.107 C
HETATM    6  N1  UNL     1      12.404  17.289  15.120  1.00  0.00    -0.380 N
ATOM      7  H1  UNL     1      11.397  17.447  15.082  1.00  0.00     0.156 HD
HETATM    8  C5  UNL     1      13.335  18.191  14.523  1.00  0.00     0.351 C
HETATM    9  N2  UNL     1      14.695  18.013  14.953  1.00  0.00    -0.057 N
ATOM     10  H21 UNL     1      14.807  18.255  15.937  1.00  0.00     0.279 HD
ATOM     11  H22 UNL     1      15.309  18.717  14.544  1.00  0.00     0.279 HD
HETATM   12  C6  UNL     1      15.168  16.686  14.683  1.00  0.00     0.269 C
HETATM   13  C7  UNL     1      14.229  15.639  15.174  1.00  0.00     0.182 C
ENDROOT
BRANCH  13  14
HETATM   14  O1  UNL     1      13.950  14.657  14.200  1.00  0.00    -0.391 OA
ATOM     15  H1  UNL     1      14.745  14.398  13.748  1.00  0.00     0.210 HD
ENDBRANCH  13  14
TORSDOF 1
ENDMDL