MODEL 5
REMARK VINA RESULT: -5.110304322      2.244      5.368
REMARK  2 active torsions:
REMARK  status: ('A' for Active; 'I' for Inactive)
REMARK    1  A    between atoms: C1_2  and  N1_3
REMARK    2  A    between atoms: C2_5  and  C3_6
ROOT
HETATM    1  C3  UNL     1      29.004  23.526  69.008  1.00  0.00     0.024 C
HETATM    2  C4  UNL     1      30.082  24.584  68.985  1.00  0.00     0.010 C
HETATM    3  C5  UNL     1      30.686  24.537  67.593  1.00  0.00     0.001 C
HETATM    4  C6  UNL     1      29.899  23.463  66.854  1.00  0.00     0.001 C
HETATM    5  C7  UNL     1      28.552  23.436  67.592  1.00  0.00     0.010 C
ENDROOT
BRANCH   1   6
HETATM    6  C2  UNL     1      27.934  23.855  69.973  1.00  0.00     0.068 C
HETATM    7  N1  UNL     1      27.661  23.182  71.011  1.00  0.00    -0.348 N
ATOM      8  H1  UNL     1      28.204  22.344  71.221  1.00  0.00     0.167 HD
BRANCH   7   9
HETATM    9  C1  UNL     1      26.614  23.569  71.890  1.00  0.00     0.352 C
HETATM   10  O1  UNL     1      25.413  23.236  71.737  1.00  0.00    -0.283 OA
ENDBRANCH   7   9
ENDBRANCH   1   6
TORSDOF 2
ENDMDL