MODEL 4
REMARK VINA RESULT: -4.216274919      2.403      5.504
REMARK  3 active torsions:
REMARK  status: ('A' for Active; 'I' for Inactive)
REMARK    1  A    between atoms: N1_1  and  C1_5
REMARK    2  A    between atoms: C1_5  and  C2_6
REMARK    3  A    between atoms: C2_6  and  N2_7
ROOT
HETATM    1  N2  UNL     1      27.189  23.214  71.740  1.00  0.00    -0.365 N
HETATM    2  C3  UNL     1      27.211  24.072  72.782  1.00  0.00     0.090 A
HETATM    3  C4  UNL     1      27.222  23.609  74.079  1.00  0.00     0.017 A
HETATM    4  C5  UNL     1      27.209  22.244  74.308  1.00  0.00     0.003 A
HETATM    5  C6  UNL     1      27.186  21.380  73.215  1.00  0.00     0.017 A
HETATM    6  C7  UNL     1      27.177  21.885  71.933  1.00  0.00     0.090 A
ENDROOT
BRANCH   1   7
HETATM    7  C2  UNL     1      27.179  23.760  70.412  1.00  0.00     0.155 C
BRANCH   7   8
HETATM    8  C1  UNL     1      28.565  24.132  69.931  1.00  0.00     0.249 C
BRANCH   8   9
HETATM    9  N1  UNL     1      28.631  23.808  68.520  1.00  0.00    -0.078 N
ATOM     10  H13 UNL     1      29.584  23.646  68.191  1.00  0.00     0.274 HD
ATOM     11  H12 UNL     1      28.260  22.883  68.305  1.00  0.00     0.274 HD
ATOM     12  H11 UNL     1      28.156  24.556  68.016  1.00  0.00     0.274 HD
ENDBRANCH   8   9
ENDBRANCH   7   8
ENDBRANCH   1   7
TORSDOF 3
ENDMDL