MODEL 5
REMARK VINA RESULT: -4.578974532      3.565      6.008
REMARK  2 active torsions:
REMARK  status: ('A' for Active; 'I' for Inactive)
REMARK    1  A    between atoms: C2_2  and  O1_3
REMARK    2  A    between atoms: O1_3  and  C3_4
ROOT
HETATM    1  C3  UNL     1      26.839  22.500  72.123  1.00  0.00     0.165 C
HETATM    2  C4  UNL     1      25.485  22.960  71.627  1.00  0.00     0.039 C
HETATM    3  C5  UNL     1      24.528  22.622  72.737  1.00  0.00     0.022 C
HETATM    4  C6  UNL     1      24.878  23.395  73.977  1.00  0.00     0.119 C
HETATM    5  N1  UNL     1      26.235  23.312  74.388  1.00  0.00    -0.400 N
ATOM      6  H1  UNL     1      26.485  23.405  75.372  1.00  0.00     0.158 HD
HETATM    7  C7  UNL     1      27.228  23.099  73.419  1.00  0.00     0.087 C
ENDROOT
BRANCH   1   8
HETATM    8  O1  UNL     1      27.783  22.831  71.125  1.00  0.00    -0.353 OA
BRANCH   8   9
HETATM    9  C2  UNL     1      27.823  24.000  70.428  1.00  0.00     0.125 C
HETATM   10  C1  UNL     1      28.708  24.165  69.469  1.00  0.00     0.037 C
ENDBRANCH   8   9
ENDBRANCH   1   8
TORSDOF 2
ENDMDL