MODEL 4
REMARK VINA RESULT: -4.783277842      4.266      5.966
REMARK  1 active torsions:
REMARK  status: ('A' for Active; 'I' for Inactive)
REMARK    1  A    between atoms: N2_4  and  N3_6
ROOT
HETATM    1  N3  UNL     1      28.698  24.397  69.902  1.00  0.00    -0.295 N
ATOM      2  H3  UNL     1      29.188  24.796  70.703  1.00  0.00     0.187 HD
HETATM    3  C1  UNL     1      29.271  24.476  68.781  1.00  0.00     0.010 C
HETATM    4  C2  UNL     1      30.572  25.081  68.494  1.00  0.00     0.060 C
HETATM    5  C3  UNL     1      31.180  24.028  67.554  1.00  0.00     0.058 C
HETATM    6  C4  UNL     1      29.992  23.490  66.842  1.00  0.00    -0.015 C
HETATM    7  N4  UNL     1      30.028  22.735  65.819  1.00  0.00    -0.405 N
ATOM      8  H41 UNL     1      29.212  22.366  65.329  1.00  0.00     0.155 HD
ATOM      9  H42 UNL     1      30.879  22.405  65.363  1.00  0.00     0.155 HD
HETATM   10  C5  UNL     1      28.751  23.972  67.506  1.00  0.00     0.106 C
ENDROOT
BRANCH   1  11
HETATM   11  N2  UNL     1      27.468  23.818  70.142  1.00  0.00    -0.249 N
HETATM   12  N1  UNL     1      27.064  23.724  71.348  1.00  0.00    -0.331 N
ATOM     13  H12 UNL     1      27.649  24.074  72.106  1.00  0.00     0.178 HD
ATOM     14  H11 UNL     1      26.155  23.296  71.525  1.00  0.00     0.178 HD
ATOM     15  H2  UNL     1      26.895  23.472  69.372  1.00  0.00     0.207 HD
ENDBRANCH   1  11
TORSDOF 1
ENDMDL