MODEL 2
REMARK VINA RESULT: -4.724220617      0.746      1.255
REMARK  2 active torsions:
REMARK  status: ('A' for Active; 'I' for Inactive)
REMARK    1  A    between atoms: C2_3  and  C3_4
REMARK    2  A    between atoms: C3_4  and  N2_5
ROOT
HETATM    1  N1  UNL     1      27.323  23.686  72.567  1.00  0.00    -0.197 NA
HETATM    2  C1  UNL     1      27.523  23.707  71.421  1.00  0.00     0.060 C
HETATM    3  C2  UNL     1      27.758  23.718  69.982  1.00  0.00     0.144 C
ENDROOT
BRANCH   3   4
HETATM    4  C3  UNL     1      29.029  24.520  69.674  1.00  0.00     0.143 C
BRANCH   4   5
HETATM    5  N2  UNL     1      29.500  24.080  68.372  1.00  0.00    -0.351 N
HETATM    6  C4  UNL     1      30.673  24.469  67.806  1.00  0.00     0.108 A
HETATM    7  C5  UNL     1      30.808  23.865  66.573  1.00  0.00     0.106 A
HETATM    8  N3  UNL     1      29.708  23.110  66.403  1.00  0.00    -0.361 N
HETATM    9  C6  UNL     1      28.930  23.251  67.497  1.00  0.00     0.182 A
ATOM     10  H3  UNL     1      29.499  22.531  65.589  1.00  0.00     0.166 HD
ENDBRANCH   4   5
ENDBRANCH   3   4
TORSDOF 2
ENDMDL