MODEL 5
REMARK VINA RESULT: -4.301761710      1.086      1.749
REMARK  3 active torsions:
REMARK  status: ('A' for Active; 'I' for Inactive)
REMARK    1  A    between atoms: C2_2  and  C3_3
REMARK    2  A    between atoms: N1_5  and  C5_6
REMARK    3  A    between atoms: N2_7  and  N3_9
ROOT
HETATM    1  C5  UNL     1      28.166  24.297  70.384  1.00  0.00     0.196 C
HETATM    2  N2  UNL     1      28.154  23.593  69.311  1.00  0.00    -0.282 N
ATOM      3  H2  UNL     1      27.622  22.723  69.276  1.00  0.00     0.189 HD
ENDROOT
BRANCH   1   4
HETATM    4  N1  UNL     1      27.436  23.864  71.526  1.00  0.00    -0.375 N
HETATM    5  C4  UNL     1      27.415  24.303  72.906  1.00  0.00     0.133 A
HETATM    6  C3  UNL     1      26.465  23.169  73.247  1.00  0.00     0.043 A
HETATM    7  C6  UNL     1      26.444  22.839  71.774  1.00  0.00     0.133 A
BRANCH   6   8
HETATM    8  C2  UNL     1      27.155  22.173  74.109  1.00  0.00    -0.029 C
HETATM    9  C1  UNL     1      27.210  20.925  73.702  1.00  0.00     0.007 C
ENDBRANCH   6   8
ENDBRANCH   1   4
BRANCH   2  10
HETATM   10  N3  UNL     1      28.870  24.016  68.190  1.00  0.00    -0.248 N
HETATM   11  N4  UNL     1      30.018  23.528  67.922  1.00  0.00    -0.331 N
ATOM     12  H42 UNL     1      30.404  22.819  68.546  1.00  0.00     0.178 HD
ATOM     13  H41 UNL     1      30.541  23.837  67.102  1.00  0.00     0.178 HD
ATOM     14  H3  UNL     1      28.469  24.726  67.577  1.00  0.00     0.207 HD
ENDBRANCH   2  10
TORSDOF 3
ENDMDL