MODEL 2
REMARK VINA RESULT: -4.697157556      0.904      1.306
REMARK  2 active torsions:
REMARK  status: ('A' for Active; 'I' for Inactive)
REMARK    1  A    between atoms: N2_4  and  C2_5
REMARK    2  A    between atoms: C2_5  and  C3_6
ROOT
HETATM    1  C1  UNL     1      29.257  23.562  67.740  1.00  0.00     0.198 A
HETATM    2  N1  UNL     1      28.207  23.388  68.577  1.00  0.00    -0.293 N
ATOM      3  H1  UNL     1      27.392  22.806  68.377  1.00  0.00     0.188 HD
HETATM    4  N2  UNL     1      28.387  24.080  69.692  1.00  0.00    -0.286 N
HETATM    5  C6  UNL     1      29.574  24.695  69.539  1.00  0.00     0.201 A
HETATM    6  N3  UNL     1      30.116  24.384  68.346  1.00  0.00    -0.346 N
ATOM      7  H3  UNL     1      31.008  24.713  67.978  1.00  0.00     0.167 HD
ENDROOT
BRANCH   4   8
HETATM    8  C2  UNL     1      27.486  24.158  70.840  1.00  0.00     0.154 C
BRANCH   8   9
HETATM    9  C3  UNL     1      27.442  22.887  71.615  1.00  0.00     0.005 A
HETATM   10  C4  UNL     1      27.250  22.881  73.090  1.00  0.00     0.007 A
HETATM   11  C5  UNL     1      26.108  22.530  72.219  1.00  0.00     0.007 A
ENDBRANCH   8   9
ENDBRANCH   4   8
TORSDOF 2
ENDMDL