MODEL 3
REMARK VINA RESULT: -5.625674063      4.148      5.178
REMARK  1 active torsions:
REMARK  status: ('A' for Active; 'I' for Inactive)
REMARK    1  A    between atoms: N2_4  and  N3_6
ROOT
HETATM    1  N3  UNL     1      27.955  23.668  69.083  1.00  0.00    -0.295 N
ATOM      2  H3  UNL     1      27.248  23.067  68.661  1.00  0.00     0.187 HD
HETATM    3  C1  UNL     1      29.063  23.738  68.475  1.00  0.00     0.005 C
HETATM    4  C2  UNL     1      29.366  23.008  67.217  1.00  0.00     0.054 C
HETATM    5  C3  UNL     1      30.500  23.703  66.547  1.00  0.00     0.006 C
HETATM    6  C4  UNL     1      31.168  24.496  67.632  1.00  0.00     0.006 C
HETATM    7  C5  UNL     1      30.272  24.507  68.821  1.00  0.00     0.054 C
ENDROOT
BRANCH   1   8
HETATM    8  N2  UNL     1      27.592  24.306  70.245  1.00  0.00    -0.249 N
HETATM    9  N1  UNL     1      27.169  23.729  71.294  1.00  0.00    -0.331 N
ATOM     10  H12 UNL     1      27.100  22.712  71.254  1.00  0.00     0.178 HD
ATOM     11  H11 UNL     1      26.900  24.203  72.155  1.00  0.00     0.178 HD
ATOM     12  H2  UNL     1      27.668  25.324  70.267  1.00  0.00     0.207 HD
ENDBRANCH   1   8
TORSDOF 1
ENDMDL