MODEL 5
REMARK VINA RESULT: -4.544144604      0.895      1.507
REMARK  2 active torsions:
REMARK  status: ('A' for Active; 'I' for Inactive)
REMARK    1  A    between atoms: C2_2  and  N1_3
REMARK    2  A    between atoms: N1_3  and  N2_5
ROOT
HETATM    1  N2  UNL     1      27.982  23.738  68.590  1.00  0.00    -0.245 N
ATOM      2  H2  UNL     1      27.284  23.121  68.173  1.00  0.00     0.208 HD
HETATM    3  N3  UNL     1      28.975  24.026  67.892  1.00  0.00    -0.307 N
HETATM    4  C3  UNL     1      30.076  24.865  68.259  1.00  0.00     0.171 C
HETATM    5  C4  UNL     1      31.224  24.203  67.594  1.00  0.00    -0.008 C
HETATM    6  C5  UNL     1      30.740  23.461  66.608  1.00  0.00    -0.008 C
HETATM    7  C6  UNL     1      29.245  23.580  66.553  1.00  0.00     0.171 C
ENDROOT
BRANCH   1   8
HETATM    8  N1  UNL     1      27.744  24.180  69.877  1.00  0.00    -0.298 N
ATOM      9  H1  UNL     1      27.596  25.179  70.022  1.00  0.00     0.187 HD
BRANCH   8  10
HETATM   10  C2  UNL     1      27.695  23.329  71.005  1.00  0.00     0.098 C
HETATM   11  C1  UNL     1      26.795  23.497  71.946  1.00  0.00     0.031 C
ENDBRANCH   8  10
ENDBRANCH   1   8
TORSDOF 2
ENDMDL