MODEL 2
REMARK VINA RESULT: -6.863696969      2.606      9.688
REMARK  13 active torsions:
REMARK  status: ('A' for Active; 'I' for Inactive)
REMARK    1  A    between atoms: O1_2  and  N1_3
REMARK    2  A    between atoms: N1_3  and  C2_5
REMARK    3  A    between atoms: C3_8  and  N3_9
REMARK    4  A    between atoms: C6_19  and  N6_20
REMARK    5  A    between atoms: N6_20  and  C7_22
REMARK    6  A    between atoms: C7_22  and  C8_23
REMARK    7  A    between atoms: C8_23  and  N7_24
REMARK    8  A    between atoms: N7_24  and  C9_27
REMARK    9  A    between atoms: C9_27  and  C10_28
REMARK   10  A    between atoms: C10_28  and  N8_29
REMARK   11  A    between atoms: N8_29  and  C11_32
REMARK   12  A    between atoms: C11_32  and  C12_33
REMARK   13  A    between atoms: C12_33  and  O3_34
ROOT
HETATM    1  C2  UNL     1      -6.171  80.351  25.667  1.00  0.00     0.170 A
HETATM    2  N2  UNL     1      -5.946  81.076  24.559  1.00  0.00    -0.173 N
ATOM      3  H2  UNL     1      -6.646  81.745  24.243  1.00  0.00     0.186 HD
HETATM    4  C3  UNL     1      -4.805  80.927  23.861  1.00  0.00     0.678 A
HETATM    5  N4  UNL     1      -3.899  80.040  24.296  1.00  0.00    -0.184 N
ATOM      6  H4  UNL     1      -3.036  79.930  23.764  1.00  0.00     0.184 HD
HETATM    7  C4  UNL     1      -4.070  79.283  25.404  1.00  0.00     0.148 A
HETATM    8  C5  UNL     1      -3.142  78.376  25.848  1.00  0.00     0.289 A
HETATM    9  O2  UNL     1      -2.079  78.217  25.224  1.00  0.00    -0.265 OA
HETATM   10  N5  UNL     1      -3.355  77.645  26.956  1.00  0.00    -0.154 N
ATOM     11  H5  UNL     1      -2.653  76.975  27.270  1.00  0.00     0.187 HD
HETATM   12  C6  UNL     1      -4.487  77.797  27.646  1.00  0.00     0.681 A
HETATM   13  N9  UNL     1      -5.426  78.688  27.228  1.00  0.00    -0.185 N
ATOM     14  H9  UNL     1      -6.289  78.796  27.761  1.00  0.00     0.184 HD
HETATM   15  C13 UNL     1      -5.232  79.426  26.126  1.00  0.00     0.128 A
ENDROOT
BRANCH  12  16
HETATM   16  N6  UNL     1      -4.751  77.141  28.696  1.00  0.00    -0.224 N
ATOM     17  H6  UNL     1      -5.705  76.791  28.786  1.00  0.00     0.177 HD
BRANCH  16  18
HETATM   18  C7  UNL     1      -3.848  76.833  29.781  1.00  0.00     0.165 C
BRANCH  18  19
HETATM   19  C8  UNL     1      -3.906  75.339  29.994  1.00  0.00     0.252 C
BRANCH  19  20
HETATM   20  N7  UNL     1      -3.027  74.861  31.034  1.00  0.00    -0.072 N
ATOM     21  H72 UNL     1      -3.104  73.853  31.175  1.00  0.00     0.277 HD
ATOM     22  H71 UNL     1      -2.046  74.892  30.759  1.00  0.00     0.277 HD
BRANCH  20  23
HETATM   23  C9  UNL     1      -3.282  75.600  32.233  1.00  0.00     0.259 C
BRANCH  23  24
HETATM   24  C10 UNL     1      -2.070  75.665  33.145  1.00  0.00     0.259 C
BRANCH  24  25
HETATM   25  N8  UNL     1      -2.424  75.621  34.528  1.00  0.00    -0.072 N
ATOM     26  H82 UNL     1      -3.227  76.212  34.738  1.00  0.00     0.277 HD
ATOM     27  H81 UNL     1      -2.829  74.723  34.792  1.00  0.00     0.277 HD
BRANCH  25  28
HETATM   28  C11 UNL     1      -1.278  75.956  35.333  1.00  0.00     0.258 C
BRANCH  28  29
HETATM   29  C12 UNL     1      -1.490  75.610  36.784  1.00  0.00     0.191 C
BRANCH  29  30
HETATM   30  O3  UNL     1      -0.517  74.685  37.186  1.00  0.00    -0.399 OA
ATOM     31  H3  UNL     1      -0.890  74.099  37.834  1.00  0.00     0.209 HD
ENDBRANCH  29  30
ENDBRANCH  28  29
ENDBRANCH  25  28
ENDBRANCH  24  25
ENDBRANCH  23  24
ENDBRANCH  20  23
ENDBRANCH  19  20
ENDBRANCH  18  19
ENDBRANCH  16  18
ENDBRANCH  12  16
BRANCH   1  32
HETATM   32  N1  UNL     1      -7.249  80.458  26.367  1.00  0.00    -0.248 N
ATOM     33  H1  UNL     1      -8.119  80.033  26.048  1.00  0.00     0.196 HD
BRANCH  32  34
HETATM   34  O1  UNL     1      -7.204  81.159  27.560  1.00  0.00    -0.284 OA
HETATM   35  C1  UNL     1      -7.904  82.379  27.609  1.00  0.00     0.237 C
ENDBRANCH  32  34
ENDBRANCH   1  32
BRANCH   4  36
HETATM   36  N3  UNL     1      -4.600  81.642  22.782  1.00  0.00    -0.234 N
ATOM     37  H32 UNL     1      -4.368  82.634  22.835  1.00  0.00     0.174 HD
ATOM     38  H31 UNL     1      -4.672  81.207  21.862  1.00  0.00     0.174 HD
ENDBRANCH   4  36
TORSDOF 13
ENDMDL