MODEL 4
REMARK VINA RESULT: -6.929990133      2.802      4.194
REMARK  9 active torsions:
REMARK  status: ('A' for Active; 'I' for Inactive)
REMARK       I    between atoms: C2_2  and  N1_4
REMARK    1  A    between atoms: N1_4  and  C3_6
REMARK    2  A    between atoms: C5_10  and  C6_11
REMARK    3  A    between atoms: C6_11  and  N3_12
REMARK    4  A    between atoms: C7_19  and  C8_20
REMARK    5  A    between atoms: N5_22  and  C10_23
REMARK    6  A    between atoms: C10_23  and  C11_24
REMARK    7  A    between atoms: C11_24  and  C12_25
REMARK    8  A    between atoms: C12_25  and  C13_26
REMARK    9  A    between atoms: C13_26  and  N6_27
REMARK       I    between atoms: N6_27  and  C14_29
ROOT
HETATM    1  C3  UNL     1      -1.870  76.219  33.925  1.00  0.00     0.118 C
HETATM    2  C4  UNL     1      -3.225  76.493  33.501  1.00  0.00     0.059 C
HETATM    3  N2  UNL     1      -4.215  76.595  34.550  1.00  0.00    -0.361 N
ATOM      4  H2  UNL     1      -4.327  75.961  35.342  1.00  0.00     0.161 HD
HETATM    5  C5  UNL     1      -5.009  77.756  34.268  1.00  0.00     0.311 C
HETATM    6  N4  UNL     1      -4.968  77.795  32.809  1.00  0.00    -0.037 N
ATOM      7  H41 UNL     1      -5.311  78.667  32.404  1.00  0.00     0.281 HD
ATOM      8  H42 UNL     1      -5.648  77.186  32.355  1.00  0.00     0.281 HD
HETATM    9  C7  UNL     1      -3.561  77.485  32.474  1.00  0.00     0.291 C
ENDROOT
BRANCH   9  10
HETATM   10  C8  UNL     1      -3.639  76.910  31.093  1.00  0.00     0.081 A
HETATM   11  C9  UNL     1      -4.009  77.495  29.917  1.00  0.00     0.140 A
HETATM   12  N5  UNL     1      -3.920  76.575  28.947  1.00  0.00    -0.287 N
HETATM   13  N9  UNL     1      -3.502  75.456  29.529  1.00  0.00    -0.241 N
HETATM   14  N10 UNL     1      -3.329  75.639  30.818  1.00  0.00    -0.286 N
ATOM     15  H9  UNL     1      -3.337  74.575  29.041  1.00  0.00     0.208 HD
ATOM     16  H10 UNL     1      -3.015  74.938  31.489  1.00  0.00     0.188 HD
BRANCH  12  17
HETATM   17  C10 UNL     1      -4.222  76.762  27.563  1.00  0.00     0.150 C
BRANCH  17  18
HETATM   18  C11 UNL     1      -4.590  78.170  27.226  1.00  0.00     0.023 C
BRANCH  18  19
HETATM   19  C12 UNL     1      -4.062  78.627  25.908  1.00  0.00     0.021 C
BRANCH  19  20
HETATM   20  C13 UNL     1      -4.846  79.774  25.314  1.00  0.00     0.122 C
BRANCH  20  21
HETATM   21  N6  UNL     1      -4.200  80.314  24.137  1.00  0.00    -0.365 N
HETATM   22  C14 UNL     1      -4.790  81.402  23.438  1.00  0.00     0.181 C
HETATM   23  N7  UNL     1      -4.499  82.607  23.775  1.00  0.00    -0.374 N
HETATM   24  N8  UNL     1      -5.685  81.118  22.384  1.00  0.00    -0.064 NA
ATOM     25  H72 UNL     1      -3.852  82.813  24.537  1.00  0.00     0.158 HD
ATOM     26  H71 UNL     1      -4.922  83.388  23.273  1.00  0.00     0.158 HD
ATOM     27  H6  UNL     1      -3.321  79.914  23.809  1.00  0.00     0.162 HD
ENDBRANCH  20  21
ENDBRANCH  19  20
ENDBRANCH  18  19
ENDBRANCH  17  18
ENDBRANCH  12  17
ENDBRANCH   9  10
BRANCH   1  28
HETATM   28  N1  UNL     1      -1.128  77.020  34.799  1.00  0.00    -0.336 N
HETATM   29  C2  UNL     1       0.078  77.678  34.767  1.00  0.00     0.217 C
HETATM   30  C1  UNL     1       0.557  78.469  35.929  1.00  0.00     0.117 C
HETATM   31  O1  UNL     1       0.840  77.664  33.794  1.00  0.00    -0.274 OA
ATOM     32  H1  UNL     1      -1.606  77.148  35.691  1.00  0.00     0.168 HD
ENDBRANCH   1  28
BRANCH   5  33
HETATM   33  C6  UNL     1      -6.427  77.581  34.766  1.00  0.00     0.283 C
BRANCH  33  34
HETATM   34  N3  UNL     1      -6.467  76.968  36.074  1.00  0.00    -0.076 N
ATOM     35  H33 UNL     1      -7.256  76.327  36.159  1.00  0.00     0.274 HD
ATOM     36  H32 UNL     1      -5.704  76.302  36.194  1.00  0.00     0.274 HD
ATOM     37  H31 UNL     1      -6.473  77.663  36.820  1.00  0.00     0.274 HD
ENDBRANCH  33  34
ENDBRANCH   5  33
TORSDOF 9
ENDMDL