MODEL 4
REMARK VINA RESULT: -7.288817327      4.924      8.267
REMARK  11 active torsions:
REMARK  status: ('A' for Active; 'I' for Inactive)
REMARK    1  A    between atoms: C2_2  and  C3_3
REMARK    2  A    between atoms: C3_3  and  C4_4
REMARK    3  A    between atoms: C4_4  and  N1_5
REMARK    4  A    between atoms: N1_5  and  C5_7
REMARK    5  A    between atoms: C5_7  and  C6_8
REMARK    6  A    between atoms: C6_8  and  C7_9
REMARK    7  A    between atoms: C7_9  and  N2_10
REMARK    8  A    between atoms: C9_15  and  N4_16
REMARK    9  A    between atoms: N4_16  and  C10_18
REMARK   10  A    between atoms: C10_18  and  C11_19
REMARK   11  A    between atoms: C14_34  and  N10_35
ROOT
HETATM    1  N2  UNL     1      -4.086  76.923  35.825  1.00  0.00    -0.205 N
ATOM      2  H2  UNL     1      -4.823  76.578  35.210  1.00  0.00     0.183 HD
HETATM    3  C8  UNL     1      -2.983  76.714  35.302  1.00  0.00     0.698 C
HETATM    4  N3  UNL     1      -2.968  76.099  34.076  1.00  0.00    -0.022 N
ATOM      5  H3  UNL     1      -3.787  75.523  33.882  1.00  0.00     0.203 HD
HETATM    6  C9  UNL     1      -2.053  76.125  33.080  1.00  0.00     0.694 C
HETATM    7  N8  UNL     1      -0.846  76.742  33.071  1.00  0.00    -0.173 N
ATOM      8  H8  UNL     1      -0.229  76.548  32.282  1.00  0.00     0.186 HD
HETATM    9  C13 UNL     1      -0.383  77.605  34.033  1.00  0.00     0.159 C
HETATM   10  N9  UNL     1       0.465  78.483  33.606  1.00  0.00    -0.382 N
ATOM     11  H91 UNL     1       0.809  79.124  34.321  1.00  0.00     0.157 HD
ATOM     12  H92 UNL     1       0.720  78.469  32.618  1.00  0.00     0.157 HD
HETATM   13  C14 UNL     1      -0.727  77.623  35.364  1.00  0.00     0.159 C
HETATM   14  N11 UNL     1      -1.841  77.079  35.916  1.00  0.00    -0.173 N
ATOM     15  H11 UNL     1      -1.810  76.926  36.924  1.00  0.00     0.186 HD
ENDROOT
BRANCH   6  16
HETATM   16  N4  UNL     1      -2.349  75.497  32.000  1.00  0.00    -0.218 N
ATOM     17  H4  UNL     1      -1.568  75.060  31.509  1.00  0.00     0.178 HD
BRANCH  16  18
HETATM   18  C10 UNL     1      -3.623  75.337  31.407  1.00  0.00     0.216 C
BRANCH  18  19
HETATM   19  C11 UNL     1      -3.757  76.016  30.078  1.00  0.00     0.118 A
HETATM   20  N5  UNL     1      -3.472  75.434  28.905  1.00  0.00    -0.283 N
HETATM   21  N6  UNL     1      -3.696  76.315  27.945  1.00  0.00    -0.250 N
ATOM     22  H5  UNL     1      -3.140  74.479  28.776  1.00  0.00     0.188 HD
HETATM   23  C12 UNL     1      -4.126  77.468  28.486  1.00  0.00     0.340 A
ATOM     24  H6  UNL     1      -3.564  76.146  26.947  1.00  0.00     0.192 HD
HETATM   25  O1  UNL     1      -4.443  78.543  27.869  1.00  0.00    -0.245 OA
HETATM   26  N7  UNL     1      -4.155  77.259  29.811  1.00  0.00    -0.294 N
ATOM     27  H7  UNL     1      -4.439  77.947  30.508  1.00  0.00     0.172 HD
ENDBRANCH  18  19
ENDBRANCH  16  18
ENDBRANCH   6  16
BRANCH   1  28
HETATM   28  C7  UNL     1      -4.655  77.467  36.962  1.00  0.00     0.080 C
BRANCH  28  29
HETATM   29  C6  UNL     1      -4.488  76.766  38.267  1.00  0.00     0.065 C
BRANCH  29  30
HETATM   30  C5  UNL     1      -3.700  77.660  39.266  1.00  0.00     0.124 C
BRANCH  30  31
HETATM   31  N1  UNL     1      -3.460  78.920  38.731  1.00  0.00    -0.402 N
ATOM     32  H1  UNL     1      -4.227  79.348  38.211  1.00  0.00     0.158 HD
BRANCH  31  33
HETATM   33  C4  UNL     1      -2.299  79.651  38.828  1.00  0.00     0.055 C
BRANCH  33  34
HETATM   34  C3  UNL     1      -1.927  80.625  37.780  1.00  0.00     0.044 C
BRANCH  34  35
HETATM   35  C2  UNL     1      -1.804  82.047  38.179  1.00  0.00     0.001 C
HETATM   36  C1  UNL     1      -0.388  82.534  37.796  1.00  0.00     0.005 C
ENDBRANCH  34  35
ENDBRANCH  33  34
ENDBRANCH  31  33
ENDBRANCH  30  31
ENDBRANCH  29  30
ENDBRANCH  28  29
ENDBRANCH   1  28
BRANCH  13  37
HETATM   37  N10 UNL     1       0.113  78.218  36.136  1.00  0.00    -0.382 N
ATOM     38 2H10 UNL     1       1.011  78.507  35.748  1.00  0.00     0.157 HD
ATOM     39 1H10 UNL     1      -0.204  78.355  37.097  1.00  0.00     0.157 HD
ENDBRANCH  13  37
TORSDOF 11
ENDMDL