MODEL 1
REMARK VINA RESULT: -7.261279467      0.000      0.000
REMARK  12 active torsions:
REMARK  status: ('A' for Active; 'I' for Inactive)
REMARK    1  A    between atoms: N2_3  and  C2_4
REMARK    2  A    between atoms: N2_3  and  C11_28
REMARK    3  A    between atoms: C2_4  and  C3_5
REMARK    4  A    between atoms: C3_5  and  C4_6
REMARK    5  A    between atoms: C4_6  and  O1_7
REMARK    6  A    between atoms: C4_6  and  N3_9
REMARK    7  A    between atoms: N3_9  and  C5_12
REMARK    8  A    between atoms: C5_12  and  C6_13
REMARK    9  A    between atoms: C6_13  and  C7_14
REMARK   10  A    between atoms: C9_18  and  N5_19
REMARK   11  A    between atoms: C10_24  and  N7_25
REMARK   12  A    between atoms: C11_28  and  C12_29
ROOT
HETATM    1  N1  UNL     1      -4.939  79.152  34.993  1.00  0.00    -0.172 NA
HETATM    2  C1  UNL     1      -4.413  78.419  34.231  1.00  0.00     0.179 C
HETATM    3  N2  UNL     1      -3.807  77.507  33.332  1.00  0.00    -0.318 N
ENDROOT
BRANCH   3   4
HETATM    4  C2  UNL     1      -4.707  76.714  32.548  1.00  0.00     0.139 C
BRANCH   4   5
HETATM    5  C3  UNL     1      -4.411  76.709  31.069  1.00  0.00     0.081 C
BRANCH   5   6
HETATM    6  C4  UNL     1      -3.797  75.429  30.602  1.00  0.00     0.320 C
BRANCH   6   7
HETATM    7  O1  UNL     1      -4.513  74.309  31.025  1.00  0.00    -0.370 OA
ATOM      8  H1  UNL     1      -3.951  73.562  31.198  1.00  0.00     0.212 HD
ENDBRANCH   6   7
BRANCH   6   9
HETATM    9  N3  UNL     1      -3.652  75.444  29.159  1.00  0.00    -0.049 N
ATOM     10  H32 UNL     1      -2.707  75.186  28.873  1.00  0.00     0.280 HD
ATOM     11  H31 UNL     1      -4.162  74.676  28.723  1.00  0.00     0.280 HD
BRANCH   9  12
HETATM   12  C5  UNL     1      -4.046  76.729  28.605  1.00  0.00     0.240 C
BRANCH  12  13
HETATM   13  C6  UNL     1      -3.177  77.163  27.447  1.00  0.00     0.071 C
BRANCH  13  14
HETATM   14  C7  UNL     1      -3.836  78.170  26.581  1.00  0.00     0.004 A
HETATM   15  C8  UNL     1      -5.065  78.613  26.967  1.00  0.00     0.117 A
HETATM   16  N4  UNL     1      -5.741  79.549  26.281  1.00  0.00    -0.202 N
HETATM   17  C9  UNL     1      -5.159  80.042  25.183  1.00  0.00     0.677 A
ATOM     18  H4  UNL     1      -6.660  79.871  26.585  1.00  0.00     0.183 HD
HETATM   19  N6  UNL     1      -3.931  79.623  24.764  1.00  0.00    -0.177 N
HETATM   20  C10 UNL     1      -3.254  78.686  25.450  1.00  0.00     0.122 A
ATOM     21  H6  UNL     1      -3.522  80.025  23.920  1.00  0.00     0.185 HD
BRANCH  17  22
HETATM   22  N5  UNL     1      -5.723  80.964  24.441  1.00  0.00    -0.234 N
ATOM     23  H52 UNL     1      -5.473  81.926  24.672  1.00  0.00     0.174 HD
ATOM     24  H51 UNL     1      -6.374  80.739  23.689  1.00  0.00     0.174 HD
ENDBRANCH  17  22
BRANCH  20  25
HETATM   25  N7  UNL     1      -2.117  78.269  25.048  1.00  0.00    -0.385 N
ATOM     26  H72 UNL     1      -1.255  78.574  25.501  1.00  0.00     0.157 HD
ATOM     27  H71 UNL     1      -2.041  77.638  24.250  1.00  0.00     0.157 HD
ENDBRANCH  20  25
ENDBRANCH  13  14
ENDBRANCH  12  13
ENDBRANCH   9  12
ENDBRANCH   6   9
ENDBRANCH   5   6
ENDBRANCH   4   5
ENDBRANCH   3   4
BRANCH   3  28
HETATM   28  C11 UNL     1      -2.382  77.383  33.319  1.00  0.00     0.161 C
BRANCH  28  29
HETATM   29  C12 UNL     1      -1.841  77.163  34.686  1.00  0.00     0.120 C
HETATM   30  C13 UNL     1      -0.400  77.579  34.850  1.00  0.00     0.149 C
HETATM   31  N8  UNL     1       0.002  76.776  36.016  1.00  0.00    -0.363 N
HETATM   32  C14 UNL     1      -0.808  75.761  36.149  1.00  0.00     0.184 C
ATOM     33  H8  UNL     1       0.792  76.981  36.626  1.00  0.00     0.162 HD
HETATM   34  N9  UNL     1      -0.703  74.792  37.168  1.00  0.00    -0.064 NA
HETATM   35  N10 UNL     1      -1.786  75.796  35.121  1.00  0.00    -0.357 N
ATOM     36  H10 UNL     1      -2.336  75.013  34.766  1.00  0.00     0.162 HD
ENDBRANCH  28  29
ENDBRANCH   3  28
TORSDOF 12
ENDMDL