MODEL 4
REMARK VINA RESULT: -6.817355447      1.660      3.078
REMARK  15 active torsions:
REMARK  status: ('A' for Active; 'I' for Inactive)
REMARK    1  A    between atoms: C2_2  and  C3_3
REMARK    2  A    between atoms: C3_3  and  N1_4
REMARK    3  A    between atoms: N1_4  and  C4_5
REMARK    4  A    between atoms: N1_4  and  C7_12
REMARK    5  A    between atoms: C4_5  and  C5_6
REMARK    6  A    between atoms: C5_6  and  C6_7
REMARK    7  A    between atoms: C6_7  and  N2_8
REMARK    8  A    between atoms: C7_12  and  C8_13
REMARK    9  A    between atoms: C8_13  and  N3_14
REMARK   10  A    between atoms: N3_14  and  C9_16
REMARK   11  A    between atoms: C10_19  and  N5_20
REMARK   12  A    between atoms: C11_25  and  N7_26
REMARK   13  A    between atoms: N7_26  and  C12_28
REMARK   14  A    between atoms: C13_32  and  O1_33
REMARK   15  A    between atoms: C14_35  and  O2_36
ROOT
HETATM    1  C9  UNL     1      -2.072  76.481  32.163  1.00  0.00     0.707 A
HETATM    2  N4  UNL     1      -2.283  75.176  32.387  1.00  0.00    -0.022 N
ATOM      3  H4  UNL     1      -1.774  74.712  33.139  1.00  0.00     0.203 HD
HETATM    4  C10 UNL     1      -3.156  74.458  31.638  1.00  0.00     0.705 A
HETATM    5  N6  UNL     1      -3.827  75.070  30.647  1.00  0.00    -0.022 N
ATOM      6  H6  UNL     1      -4.484  74.531  30.082  1.00  0.00     0.203 HD
HETATM    7  C11 UNL     1      -3.651  76.373  30.383  1.00  0.00     0.709 A
HETATM    8  N9  UNL     1      -2.779  77.049  31.145  1.00  0.00    -0.021 N
ATOM      9  H9  UNL     1      -2.637  78.041  30.953  1.00  0.00     0.203 HD
ENDROOT
BRANCH   1  10
HETATM   10  N3  UNL     1      -1.255  77.181  32.847  1.00  0.00    -0.220 N
ATOM     11  H3  UNL     1      -0.871  78.000  32.375  1.00  0.00     0.178 HD
BRANCH  10  12
HETATM   12  C8  UNL     1      -0.806  76.970  34.186  1.00  0.00     0.182 C
BRANCH  12  13
HETATM   13  C7  UNL     1      -1.733  77.642  35.171  1.00  0.00     0.083 C
BRANCH  13  14
HETATM   14  N1  UNL     1      -2.669  76.817  35.824  1.00  0.00    -0.372 N
BRANCH  14  15
HETATM   15  C3  UNL     1      -2.183  76.271  37.030  1.00  0.00     0.062 C
BRANCH  15  16
HETATM   16  C2  UNL     1      -1.340  77.232  37.847  1.00  0.00     0.040 C
HETATM   17  C1  UNL     1      -2.120  77.957  38.901  1.00  0.00     0.010 C
ENDBRANCH  15  16
ENDBRANCH  14  15
BRANCH  14  18
HETATM   18  C4  UNL     1      -4.012  77.276  35.802  1.00  0.00     0.128 C
BRANCH  18  19
HETATM   19  C5  UNL     1      -4.301  78.241  34.679  1.00  0.00     0.047 C
BRANCH  19  20
HETATM   20  C6  UNL     1      -5.341  77.701  33.724  1.00  0.00     0.231 C
BRANCH  20  21
HETATM   21  N2  UNL     1      -5.354  76.254  33.753  1.00  0.00    -0.079 N
ATOM     22  H23 UNL     1      -6.176  75.873  33.284  1.00  0.00     0.274 HD
ATOM     23  H22 UNL     1      -4.636  75.856  33.148  1.00  0.00     0.274 HD
ATOM     24  H21 UNL     1      -5.273  75.914  34.711  1.00  0.00     0.274 HD
ENDBRANCH  20  21
ENDBRANCH  19  20
ENDBRANCH  18  19
ENDBRANCH  14  18
ENDBRANCH  13  14
ENDBRANCH  12  13
ENDBRANCH  10  12
ENDBRANCH   1  10
BRANCH   4  25
HETATM   25  N5  UNL     1      -3.356  73.183  31.866  1.00  0.00    -0.234 N
ATOM     26  H52 UNL     1      -4.234  72.877  32.287  1.00  0.00     0.174 HD
ATOM     27  H51 UNL     1      -2.648  72.487  31.633  1.00  0.00     0.174 HD
ENDBRANCH   4  25
BRANCH   7  28
HETATM   28  N7  UNL     1      -4.291  76.958  29.428  1.00  0.00    -0.193 N
ATOM     29  H7  UNL     1      -5.049  77.591  29.684  1.00  0.00     0.180 HD
BRANCH  28  30
HETATM   30  C12 UNL     1      -4.017  76.783  28.043  1.00  0.00     0.335 C
HETATM   31  N8  UNL     1      -2.617  76.682  27.683  1.00  0.00    -0.022 N
HETATM   32  C13 UNL     1      -2.896  77.508  26.527  1.00  0.00     0.354 C
ATOM     33  H82 UNL     1      -1.888  76.944  28.347  1.00  0.00     0.282 HD
ATOM     34  H81 UNL     1      -2.171  75.771  27.577  1.00  0.00     0.282 HD
HETATM   35  C14 UNL     1      -4.062  78.100  27.280  1.00  0.00     0.225 C
BRANCH  32  36
HETATM   36  O1  UNL     1      -1.877  78.413  26.239  1.00  0.00    -0.368 OA
ATOM     37  H1  UNL     1      -2.028  79.277  26.604  1.00  0.00     0.212 HD
ENDBRANCH  32  36
BRANCH  35  38
HETATM   38  O2  UNL     1      -5.195  78.303  26.509  1.00  0.00    -0.387 OA
ATOM     39  H2  UNL     1      -5.152  77.963  25.623  1.00  0.00     0.210 HD
ENDBRANCH  35  38
ENDBRANCH  28  30
ENDBRANCH   7  28
TORSDOF 15
ENDMDL