MODEL 1
REMARK VINA RESULT: -6.914307652      0.000      0.000
REMARK  13 active torsions:
REMARK  status: ('A' for Active; 'I' for Inactive)
REMARK    1  A    between atoms: N1_1  and  C1_4
REMARK    2  A    between atoms: C2_7  and  N3_8
REMARK    3  A    between atoms: N4_11  and  C3_12
REMARK    4  A    between atoms: C4_14  and  C5_15
REMARK    5  A    between atoms: C5_15  and  N5_16
REMARK    6  A    between atoms: N5_16  and  C6_19
REMARK    7  A    between atoms: C6_19  and  C7_20
REMARK    8  A    between atoms: C8_21  and  C9_22
REMARK    9  A    between atoms: C10_23  and  C11_24
REMARK   10  A    between atoms: C11_24  and  C12_25
REMARK   11  A    between atoms: C12_25  and  N6_26
REMARK   12  A    between atoms: C13_30  and  O2_31
REMARK   13  A    between atoms: C14_33  and  O3_34
ROOT
HETATM    1  C3  UNL     1      -2.949  75.962  33.344  1.00  0.00     0.282 C
HETATM    2  O1  UNL     1      -3.704  76.825  34.117  1.00  0.00    -0.353 OA
HETATM    3  C4  UNL     1      -2.924  77.148  35.224  1.00  0.00     0.181 C
HETATM    4  C13 UNL     1      -1.540  77.310  34.649  1.00  0.00     0.181 C
HETATM    5  C14 UNL     1      -1.515  76.224  33.606  1.00  0.00     0.199 C
ENDROOT
BRANCH   1   6
HETATM    6  N4  UNL     1      -3.304  76.081  31.928  1.00  0.00    -0.102 N
HETATM    7  C2  UNL     1      -3.555  77.291  31.413  1.00  0.00     0.699 A
HETATM    8  N2  UNL     1      -3.877  77.374  30.111  1.00  0.00    -0.022 N
HETATM    9  C1  UNL     1      -3.946  76.263  29.349  1.00  0.00     0.694 A
ATOM     10  H2  UNL     1      -4.072  78.285  29.696  1.00  0.00     0.203 HD
HETATM   11  N7  UNL     1      -3.685  75.056  29.901  1.00  0.00    -0.140 N
HETATM   12  C15 UNL     1      -3.361  74.954  31.199  1.00  0.00     0.357 A
ATOM     13  H7  UNL     1      -3.735  74.216  29.325  1.00  0.00     0.189 HD
HETATM   14  O4  UNL     1      -3.113  73.824  31.737  1.00  0.00    -0.245 OA
BRANCH   7  15
HETATM   15  N3  UNL     1      -3.481  78.350  32.169  1.00  0.00    -0.234 N
ATOM     16  H32 UNL     1      -3.573  79.278  31.757  1.00  0.00     0.174 HD
ATOM     17  H31 UNL     1      -3.335  78.281  33.175  1.00  0.00     0.174 HD
ENDBRANCH   7  15
BRANCH   9  18
HETATM   18  N1  UNL     1      -4.255  76.350  28.103  1.00  0.00    -0.234 N
ATOM     19  H12 UNL     1      -5.183  76.673  27.826  1.00  0.00     0.174 HD
ATOM     20  H11 UNL     1      -3.576  76.096  27.386  1.00  0.00     0.174 HD
ENDBRANCH   9  18
ENDBRANCH   1   6
BRANCH   5  21
HETATM   21  O3  UNL     1      -0.831  76.724  32.498  1.00  0.00    -0.388 OA
ATOM     22  H3  UNL     1      -0.047  76.232  32.283  1.00  0.00     0.210 HD
ENDBRANCH   5  21
BRANCH   3  23
HETATM   23  C5  UNL     1      -3.406  78.420  35.893  1.00  0.00     0.267 C
BRANCH  23  24
HETATM   24  N5  UNL     1      -3.167  78.291  37.294  1.00  0.00    -0.070 N
ATOM     25  H52 UNL     1      -4.011  78.518  37.819  1.00  0.00     0.277 HD
ATOM     26  H51 UNL     1      -3.061  77.308  37.546  1.00  0.00     0.277 HD
BRANCH  24  27
HETATM   27  C6  UNL     1      -2.057  79.052  37.784  1.00  0.00     0.259 C
BRANCH  27  28
HETATM   28  C7  UNL     1      -2.343  80.485  37.828  1.00  0.00     0.000 C
HETATM   29  C8  UNL     1      -1.446  81.394  38.137  1.00  0.00    -0.003 C
BRANCH  29  30
HETATM   30  C9  UNL     1      -1.869  82.784  38.138  1.00  0.00    -0.004 C
HETATM   31  C10 UNL     1      -1.050  83.790  37.963  1.00  0.00    -0.025 C
BRANCH  31  32
HETATM   32  C11 UNL     1       0.395  83.649  37.743  1.00  0.00     0.054 C
BRANCH  32  33
HETATM   33  C12 UNL     1       1.096  84.427  38.849  1.00  0.00     0.233 C
BRANCH  33  34
HETATM   34  N6  UNL     1       2.517  84.206  38.690  1.00  0.00    -0.079 N
ATOM     35  H63 UNL     1       2.755  83.225  38.545  1.00  0.00     0.274 HD
ATOM     36  H62 UNL     1       2.881  84.562  37.807  1.00  0.00     0.274 HD
ATOM     37  H61 UNL     1       2.978  84.612  39.505  1.00  0.00     0.274 HD
ENDBRANCH  33  34
ENDBRANCH  32  33
ENDBRANCH  31  32
ENDBRANCH  29  30
ENDBRANCH  27  28
ENDBRANCH  24  27
ENDBRANCH  23  24
ENDBRANCH   3  23
BRANCH   4  38
HETATM   38  O2  UNL     1      -0.550  77.136  35.613  1.00  0.00    -0.390 OA
ATOM     39  H2  UNL     1       0.066  77.859  35.627  1.00  0.00     0.210 HD
ENDBRANCH   4  38
TORSDOF 13
ENDMDL