MODEL 5
REMARK VINA RESULT: -6.596433815      3.246      8.493
REMARK  13 active torsions:
REMARK  status: ('A' for Active; 'I' for Inactive)
REMARK    1  A    between atoms: N1_1  and  C1_4
REMARK    2  A    between atoms: N3_8  and  C3_10
REMARK    3  A    between atoms: C3_10  and  C4_11
REMARK    4  A    between atoms: C4_11  and  C5_12
REMARK    5  A    between atoms: C5_12  and  C6_13
REMARK    6  A    between atoms: C6_13  and  N4_14
REMARK    7  A    between atoms: N4_14  and  C7_16
REMARK    8  A    between atoms: C7_16  and  C8_17
REMARK    9  A    between atoms: C8_17  and  N5_18
REMARK   10  A    between atoms: N7_26  and  C11_27
REMARK   11  A    between atoms: C11_27  and  C12_28
REMARK   12  A    between atoms: C13_31  and  N9_32
REMARK   13  A    between atoms: N9_32  and  N10_33
ROOT
HETATM    1  C1  UNL     1      -1.614  75.943  35.458  1.00  0.00     0.678 A
HETATM    2  N2  UNL     1      -2.285  76.998  35.930  1.00  0.00    -0.175 N
ATOM      3  H2  UNL     1      -2.071  77.320  36.874  1.00  0.00     0.186 HD
HETATM    4  C2  UNL     1      -3.226  77.660  35.234  1.00  0.00     0.146 A
HETATM    5  N3  UNL     1      -3.870  78.675  35.697  1.00  0.00    -0.374 N
ATOM      6  H3  UNL     1      -4.578  79.147  35.134  1.00  0.00     0.161 HD
HETATM    7  C9  UNL     1      -3.484  77.181  33.950  1.00  0.00     0.110 A
HETATM    8  N6  UNL     1      -4.395  77.759  33.171  1.00  0.00    -0.347 N
ATOM      9  H6  UNL     1      -4.913  78.565  33.520  1.00  0.00     0.167 HD
HETATM   10  C10 UNL     1      -4.643  77.301  31.933  1.00  0.00     0.186 A
HETATM   11  N7  UNL     1      -3.995  76.247  31.419  1.00  0.00    -0.306 N
HETATM   12  C13 UNL     1      -3.042  75.591  32.151  1.00  0.00     0.236 A
HETATM   13  C14 UNL     1      -2.811  76.100  33.439  1.00  0.00     0.140 A
HETATM   14  N11 UNL     1      -1.879  75.494  34.210  1.00  0.00    -0.185 N
ATOM     15  H11 UNL     1      -1.370  74.689  33.846  1.00  0.00     0.184 HD
ENDROOT
BRANCH   5  16
HETATM   16  C3  UNL     1      -3.565  79.125  37.029  1.00  0.00     0.121 C
BRANCH  16  17
HETATM   17  C4  UNL     1      -4.076  80.500  37.319  1.00  0.00     0.021 C
BRANCH  17  18
HETATM   18  C5  UNL     1      -3.153  81.319  38.164  1.00  0.00     0.021 C
BRANCH  18  19
HETATM   19  C6  UNL     1      -1.744  80.692  38.086  1.00  0.00     0.113 C
BRANCH  19  20
HETATM   20  N4  UNL     1      -0.872  81.636  37.493  1.00  0.00    -0.420 N
ATOM     21  H4  UNL     1      -0.251  81.357  36.735  1.00  0.00     0.153 HD
BRANCH  20  22
HETATM   22  C7  UNL     1      -0.871  82.973  37.963  1.00  0.00     0.141 C
BRANCH  22  23
HETATM   23  C8  UNL     1       0.450  83.668  38.066  1.00  0.00     0.248 C
BRANCH  23  24
HETATM   24  N5  UNL     1       1.464  83.129  37.231  1.00  0.00    -0.078 N
ATOM     25  H53 UNL     1       1.750  83.815  36.532  1.00  0.00     0.274 HD
ATOM     26  H52 UNL     1       2.337  83.032  37.749  1.00  0.00     0.274 HD
ATOM     27  H51 UNL     1       1.216  82.248  36.783  1.00  0.00     0.274 HD
ENDBRANCH  23  24
ENDBRANCH  22  23
ENDBRANCH  20  22
ENDBRANCH  19  20
ENDBRANCH  18  19
ENDBRANCH  17  18
ENDBRANCH  16  17
ENDBRANCH   5  16
BRANCH   1  28
HETATM   28  N1  UNL     1      -0.702  75.312  36.145  1.00  0.00    -0.234 N
ATOM     29  H12 UNL     1      -0.995  74.496  36.682  1.00  0.00     0.174 HD
ATOM     30  H11 UNL     1       0.277  75.598  36.166  1.00  0.00     0.174 HD
ENDBRANCH   1  28
BRANCH  12  31
HETATM   31  N9  UNL     1      -2.455  74.661  31.726  1.00  0.00    -0.312 NA
BRANCH  31  32
HETATM   32  N10 UNL     1      -1.968  73.610  31.138  1.00  0.00    -0.278 N
ATOM     33 2H10 UNL     1      -2.923  73.385  30.860  1.00  0.00     0.191 HD
ATOM     34 1H10 UNL     1      -1.445  72.836  30.728  1.00  0.00     0.191 HD
ENDBRANCH  31  32
ENDBRANCH  12  31
BRANCH  11  35
HETATM   35  C11 UNL     1      -4.280  75.784  30.096  1.00  0.00     0.231 C
BRANCH  35  36
HETATM   36  C12 UNL     1      -3.800  76.712  29.056  1.00  0.00     0.249 C
HETATM   37  N8  UNL     1      -4.601  77.761  28.551  1.00  0.00    -0.061 NA
HETATM   38  O1  UNL     1      -2.627  76.588  28.580  1.00  0.00    -0.275 OA
ENDBRANCH  35  36
ENDBRANCH  11  35
TORSDOF 13
ENDMDL