MODEL 2
REMARK VINA RESULT: -6.617185998      1.012      1.441
REMARK  13 active torsions:
REMARK  status: ('A' for Active; 'I' for Inactive)
REMARK    1  A    between atoms: N1_1  and  C1_4
REMARK    2  A    between atoms: C2_7  and  N3_8
REMARK    3  A    between atoms: N4_14  and  C5_15
REMARK    4  A    between atoms: C5_15  and  C6_16
REMARK    5  A    between atoms: C6_16  and  N5_17
REMARK    6  A    between atoms: C6_16  and  C7_21
REMARK    7  A    between atoms: C7_21  and  C8_22
REMARK    8  A    between atoms: C8_22  and  C9_23
REMARK    9  A    between atoms: C9_23  and  N6_24
REMARK   10  A    between atoms: N6_24  and  C10_26
REMARK   11  A    between atoms: C10_26  and  C11_27
REMARK   12  A    between atoms: C11_27  and  C12_28
REMARK   13  A    between atoms: C12_28  and  N7_29
ROOT
HETATM    1  C1  UNL     1      -4.665  80.353  24.342  1.00  0.00     0.679 A
HETATM    2  N2  UNL     1      -5.775  80.371  25.049  1.00  0.00    -0.176 N
ATOM      3  H2  UNL     1      -6.518  80.993  24.732  1.00  0.00     0.186 HD
HETATM    4  C2  UNL     1      -6.021  79.622  26.179  1.00  0.00     0.134 A
HETATM    5  C3  UNL     1      -5.010  78.787  26.595  1.00  0.00     0.121 A
HETATM    6  C4  UNL     1      -5.112  77.984  27.705  1.00  0.00     0.269 A
HETATM    7  O1  UNL     1      -6.167  77.995  28.385  1.00  0.00    -0.267 OA
HETATM    8  N4  UNL     1      -4.080  77.174  28.079  1.00  0.00    -0.263 N
HETATM    9  C13 UNL     1      -2.966  77.185  27.333  1.00  0.00     0.331 A
HETATM   10  O2  UNL     1      -1.993  76.451  27.646  1.00  0.00    -0.246 OA
HETATM   11  N8  UNL     1      -2.844  77.960  26.245  1.00  0.00    -0.293 N
ATOM     12  H8  UNL     1      -1.974  77.928  25.714  1.00  0.00     0.172 HD
HETATM   13  C14 UNL     1      -3.833  78.784  25.826  1.00  0.00     0.144 A
HETATM   14  N9  UNL     1      -3.675  79.547  24.734  1.00  0.00    -0.176 N
ATOM     15  H9  UNL     1      -2.803  79.511  24.206  1.00  0.00     0.186 HD
ENDROOT
BRANCH   8  16
HETATM   16  C5  UNL     1      -4.180  76.338  29.235  1.00  0.00     0.169 C
BRANCH  16  17
HETATM   17  C6  UNL     1      -4.035  77.041  30.532  1.00  0.00     0.202 C
BRANCH  17  18
HETATM   18  N5  UNL     1      -5.236  77.100  31.315  1.00  0.00    -0.073 N
ATOM     19  H53 UNL     1      -5.604  76.161  31.472  1.00  0.00     0.274 HD
ATOM     20  H52 UNL     1      -5.020  77.366  32.277  1.00  0.00     0.274 HD
ATOM     21  H51 UNL     1      -5.962  77.706  30.934  1.00  0.00     0.274 HD
ENDBRANCH  17  18
BRANCH  17  22
HETATM   22  C7  UNL     1      -2.845  76.490  31.274  1.00  0.00     0.036 C
BRANCH  22  23
HETATM   23  C8  UNL     1      -2.372  77.494  32.262  1.00  0.00     0.022 C
BRANCH  23  24
HETATM   24  C9  UNL     1      -1.383  76.908  33.274  1.00  0.00     0.118 C
BRANCH  24  25
HETATM   25  N6  UNL     1      -0.219  77.702  33.202  1.00  0.00    -0.402 N
ATOM     26  H6  UNL     1       0.121  78.003  32.289  1.00  0.00     0.158 HD
BRANCH  25  27
HETATM   27  C10 UNL     1       0.478  78.086  34.347  1.00  0.00     0.057 C
BRANCH  27  28
HETATM   28  C11 UNL     1       0.382  77.313  35.593  1.00  0.00     0.071 C
BRANCH  28  29
HETATM   29  C12 UNL     1      -0.365  77.856  36.746  1.00  0.00     0.234 C
BRANCH  29  30
HETATM   30  N7  UNL     1      -0.741  76.871  37.744  1.00  0.00    -0.079 N
ATOM     31  H73 UNL     1      -0.961  75.981  37.297  1.00  0.00     0.274 HD
ATOM     32  H72 UNL     1       0.072  76.596  38.294  1.00  0.00     0.274 HD
ATOM     33  H71 UNL     1      -1.505  77.156  38.358  1.00  0.00     0.274 HD
ENDBRANCH  29  30
ENDBRANCH  28  29
ENDBRANCH  27  28
ENDBRANCH  25  27
ENDBRANCH  24  25
ENDBRANCH  23  24
ENDBRANCH  22  23
ENDBRANCH  17  22
ENDBRANCH  16  17
ENDBRANCH   8  16
BRANCH   4  34
HETATM   34  N3  UNL     1      -7.102  79.722  26.762  1.00  0.00    -0.384 N
ATOM     35  H32 UNL     1      -7.913  79.144  26.544  1.00  0.00     0.157 HD
ATOM     36  H31 UNL     1      -7.219  80.410  27.506  1.00  0.00     0.157 HD
ENDBRANCH   4  34
BRANCH   1  37
HETATM   37  N1  UNL     1      -4.518  81.110  23.267  1.00  0.00    -0.234 N
ATOM     38  H12 UNL     1      -5.119  81.923  23.128  1.00  0.00     0.174 HD
ATOM     39  H11 UNL     1      -3.813  80.901  22.562  1.00  0.00     0.174 HD
ENDBRANCH   1  37
TORSDOF 13
ENDMDL