MODEL 3
REMARK VINA RESULT: -7.123979054      6.409      9.936
REMARK  13 active torsions:
REMARK  status: ('A' for Active; 'I' for Inactive)
REMARK    1  A    between atoms: O1_2  and  C2_3
REMARK    2  A    between atoms: C3_6  and  N2_7
REMARK    3  A    between atoms: C4_12  and  N4_13
REMARK    4  A    between atoms: N4_13  and  C5_15
REMARK    5  A    between atoms: C5_15  and  C6_16
REMARK    6  A    between atoms: C6_16  and  C7_17
REMARK    7  A    between atoms: C7_17  and  N5_18
REMARK    8  A    between atoms: N5_18  and  C9_20
REMARK    9  A    between atoms: C9_20  and  C10_21
REMARK   10  A    between atoms: C10_21  and  C11_22
REMARK   11  A    between atoms: C11_22  and  N6_23
REMARK   12  A    between atoms: N6_23  and  C12_25
REMARK   13  A    between atoms: C13_30  and  N9_31
ROOT
HETATM    1  C7  UNL     1      -4.466  78.319  36.315  1.00  0.00     0.273 C
ENDROOT
BRANCH   1   2
HETATM    2  C6  UNL     1      -4.462  78.450  34.831  1.00  0.00     0.050 C
BRANCH   2   3
HETATM    3  C5  UNL     1      -5.741  77.900  34.193  1.00  0.00     0.140 C
BRANCH   3   4
HETATM    4  N4  UNL     1      -5.472  76.510  33.901  1.00  0.00    -0.225 N
ATOM      5  H4  UNL     1      -5.767  75.800  34.572  1.00  0.00     0.177 HD
BRANCH   4   6
HETATM    6  C4  UNL     1      -4.884  76.143  32.846  1.00  0.00     0.695 A
HETATM    7  N3  UNL     1      -4.313  74.934  32.736  1.00  0.00    -0.022 N
HETATM    8  C3  UNL     1      -3.682  74.547  31.596  1.00  0.00     0.693 A
ATOM      9  H3  UNL     1      -4.353  74.290  33.526  1.00  0.00     0.203 HD
HETATM   10  N1  UNL     1      -3.647  75.417  30.575  1.00  0.00    -0.154 N
HETATM   11  C2  UNL     1      -4.217  76.641  30.667  1.00  0.00     0.252 A
ATOM     12  H1  UNL     1      -3.179  75.150  29.708  1.00  0.00     0.188 HD
HETATM   13  N11 UNL     1      -4.834  77.002  31.801  1.00  0.00    -0.154 N
ATOM     14  H11 UNL     1      -5.266  77.922  31.876  1.00  0.00     0.188 HD
BRANCH   8  15
HETATM   15  N2  UNL     1      -3.128  73.391  31.469  1.00  0.00    -0.234 N
ATOM     16  H22 UNL     1      -3.313  72.779  30.675  1.00  0.00     0.174 HD
ATOM     17  H21 UNL     1      -2.476  73.062  32.181  1.00  0.00     0.174 HD
ENDBRANCH   8  15
BRANCH  11  18
HETATM   18  O1  UNL     1      -4.191  77.552  29.624  1.00  0.00    -0.326 OA
HETATM   19  C1  UNL     1      -4.211  77.129  28.288  1.00  0.00     0.213 C
ENDBRANCH  11  18
ENDBRANCH   4   6
ENDBRANCH   3   4
ENDBRANCH   2   3
ENDBRANCH   1   2
BRANCH   1  20
HETATM   20  N5  UNL     1      -3.210  78.580  36.942  1.00  0.00     0.084 N
HETATM   21  C8  UNL     1      -3.037  79.924  37.390  1.00  0.00     0.309 C
BRANCH  20  22
HETATM   22  C9  UNL     1      -3.001  77.610  37.979  1.00  0.00     0.273 C
BRANCH  22  23
HETATM   23  C10 UNL     1      -3.153  76.182  37.514  1.00  0.00     0.050 C
BRANCH  23  24
HETATM   24  C11 UNL     1      -1.882  75.795  36.823  1.00  0.00     0.140 C
BRANCH  24  25
HETATM   25  N6  UNL     1      -2.007  75.661  35.401  1.00  0.00    -0.224 N
ATOM     26  H6  UNL     1      -2.623  74.959  34.991  1.00  0.00     0.177 HD
BRANCH  25  27
HETATM   27  C12 UNL     1      -1.317  76.453  34.656  1.00  0.00     0.707 A
HETATM   28  N7  UNL     1      -1.421  76.655  33.329  1.00  0.00    -0.117 N
HETATM   29  N8  UNL     1      -0.537  77.542  32.930  1.00  0.00    -0.118 N
ATOM     30  H7  UNL     1      -2.091  76.186  32.719  1.00  0.00     0.206 HD
HETATM   31  C13 UNL     1       0.153  77.925  34.006  1.00  0.00     0.705 A
ATOM     32  H8  UNL     1      -0.403  77.876  31.976  1.00  0.00     0.206 HD
HETATM   33  N10 UNL     1      -0.330  77.249  35.079  1.00  0.00    -0.020 N
ATOM     34  H10 UNL     1       0.002  77.334  36.040  1.00  0.00     0.203 HD
BRANCH  31  35
HETATM   35  N9  UNL     1       1.119  78.793  34.012  1.00  0.00    -0.233 N
ATOM     36  H92 UNL     1       1.446  79.342  33.216  1.00  0.00     0.174 HD
ATOM     37  H91 UNL     1       1.683  79.045  34.823  1.00  0.00     0.174 HD
ENDBRANCH  31  35
ENDBRANCH  25  27
ENDBRANCH  24  25
ENDBRANCH  23  24
ENDBRANCH  22  23
ENDBRANCH  20  22
ENDBRANCH   1  20
TORSDOF 13
ENDMDL