MODEL 5
REMARK VINA RESULT: -5.599802926      2.964      5.788
REMARK  14 active torsions:
REMARK  status: ('A' for Active; 'I' for Inactive)
REMARK    1  A    between atoms: C3_3  and  C4_4
REMARK    2  A    between atoms: C4_4  and  N1_5
REMARK    3  A    between atoms: C5_6  and  N2_7
REMARK    4  A    between atoms: N2_7  and  C6_9
REMARK    5  A    between atoms: C6_9  and  C7_10
REMARK    6  A    between atoms: C7_10  and  C8_11
REMARK    7  A    between atoms: C8_11  and  N3_12
REMARK    8  A    between atoms: N3_12  and  C9_15
REMARK    9  A    between atoms: C9_15  and  C10_16
REMARK   10  A    between atoms: C10_16  and  N4_17
REMARK   11  A    between atoms: C12_27  and  C13_28
REMARK   12  A    between atoms: C13_28  and  O1_29
REMARK   13  A    between atoms: C14_31  and  O2_32
REMARK   14  A    between atoms: C15_34  and  O3_35
ROOT
HETATM    1  N1  UNL     1      -2.833  77.691  35.940  1.00  0.00    -0.204 N
HETATM    2  C5  UNL     1      -3.264  77.023  34.771  1.00  0.00     0.674 C
HETATM    3  N5  UNL     1      -4.563  76.993  34.712  1.00  0.00    -0.195 N
ATOM      4  H5  UNL     1      -5.089  76.560  33.954  1.00  0.00     0.180 HD
HETATM    5  C11 UNL     1      -5.171  77.645  35.851  1.00  0.00     0.326 C
HETATM    6  N6  UNL     1      -6.315  76.921  36.229  1.00  0.00    -0.043 N
ATOM      7  H61 UNL     1      -6.301  75.991  35.812  1.00  0.00     0.280 HD
ATOM      8  H62 UNL     1      -7.144  77.304  35.775  1.00  0.00     0.280 HD
HETATM    9  C12 UNL     1      -6.514  76.832  37.629  1.00  0.00     0.242 C
HETATM   10  C14 UNL     1      -5.352  76.119  38.239  1.00  0.00     0.181 C
HETATM   11  C15 UNL     1      -4.016  76.707  37.883  1.00  0.00     0.176 C
HETATM   12  C16 UNL     1      -4.024  77.713  36.807  1.00  0.00     0.184 C
ENDROOT
BRANCH   2  13
HETATM   13  N2  UNL     1      -2.506  76.432  33.726  1.00  0.00    -0.226 N
ATOM     14  H2  UNL     1      -2.224  75.455  33.800  1.00  0.00     0.177 HD
BRANCH  13  15
HETATM   15  C6  UNL     1      -2.133  77.191  32.566  1.00  0.00     0.139 C
BRANCH  15  16
HETATM   16  C7  UNL     1      -3.136  77.094  31.429  1.00  0.00     0.048 C
BRANCH  16  17
HETATM   17  C8  UNL     1      -3.553  75.639  31.355  1.00  0.00     0.234 C
BRANCH  17  18
HETATM   18  N3  UNL     1      -3.507  75.173  30.011  1.00  0.00    -0.073 N
ATOM     19  H32 UNL     1      -2.562  74.873  29.768  1.00  0.00     0.277 HD
ATOM     20  H31 UNL     1      -3.998  74.283  29.923  1.00  0.00     0.277 HD
BRANCH  18  21
HETATM   21  C9  UNL     1      -3.998  76.117  29.050  1.00  0.00     0.259 C
BRANCH  21  22
HETATM   22  C10 UNL     1      -3.041  76.213  27.884  1.00  0.00     0.257 C
BRANCH  22  23
HETATM   23  N4  UNL     1      -2.331  74.962  27.761  1.00  0.00    -0.078 N
ATOM     24  H43 UNL     1      -2.901  74.161  28.036  1.00  0.00     0.274 HD
ATOM     25  H42 UNL     1      -2.174  74.696  26.789  1.00  0.00     0.274 HD
ATOM     26  H41 UNL     1      -1.463  75.023  28.292  1.00  0.00     0.274 HD
ENDBRANCH  22  23
ENDBRANCH  21  22
ENDBRANCH  18  21
ENDBRANCH  17  18
ENDBRANCH  16  17
ENDBRANCH  15  16
ENDBRANCH  13  15
ENDBRANCH   2  13
BRANCH   1  27
HETATM   27  C4  UNL     1      -1.521  78.218  36.192  1.00  0.00     0.169 C
BRANCH  27  28
HETATM   28  C3  UNL     1      -0.426  77.257  36.245  1.00  0.00    -0.011 C
HETATM   29  C2  UNL     1       0.665  77.320  35.499  1.00  0.00    -0.033 C
HETATM   30  C1  UNL     1       0.980  78.353  34.492  1.00  0.00     0.036 C
ENDBRANCH  27  28
ENDBRANCH   1  27
BRANCH  11  31
HETATM   31  O3  UNL     1      -3.166  75.622  37.655  1.00  0.00    -0.391 OA
ATOM     32  H3  UNL     1      -3.653  75.018  37.108  1.00  0.00     0.210 HD
ENDBRANCH  11  31
BRANCH  10  33
HETATM   33  O2  UNL     1      -5.563  76.046  39.614  1.00  0.00    -0.391 OA
ATOM     34  H2  UNL     1      -4.811  75.617  40.005  1.00  0.00     0.210 HD
ENDBRANCH  10  33
BRANCH   9  35
HETATM   35  C13 UNL     1      -6.909  78.109  38.304  1.00  0.00     0.199 C
BRANCH  35  36
HETATM   36  O1  UNL     1      -7.956  77.847  39.218  1.00  0.00    -0.399 OA
ATOM     37  H1  UNL     1      -8.213  78.659  39.639  1.00  0.00     0.209 HD
ENDBRANCH  35  36
ENDBRANCH   9  35
TORSDOF 14
ENDMDL