MODEL 4
REMARK VINA RESULT: -7.730305744      1.710      4.911
REMARK  5 active torsions:
REMARK  status: ('A' for Active; 'I' for Inactive)
REMARK    1  A    between atoms: C4_4  and  C5_5
REMARK    2  A    between atoms: C5_5  and  S1_6
REMARK    3  A    between atoms: S1_6  and  C6_7
REMARK    4  A    between atoms: C6_7  and  C7_8
REMARK    5  A    between atoms: C6_7  and  C13_14
ROOT
HETATM    1  C6  UNL     1      30.445  18.482  48.301  1.00  0.00     0.113 C
ENDROOT
BRANCH   1   2
HETATM    2  S1  UNL     1      29.291  19.894  48.457  1.00  0.00    -0.150 SA
BRANCH   2   3
HETATM    3  C5  UNL     1      30.259  21.407  48.376  1.00  0.00     0.113 C
BRANCH   3   4
HETATM    4  C4  UNL     1      30.191  22.049  47.026  1.00  0.00    -0.049 A
HETATM    5  C3  UNL     1      31.237  22.728  46.446  1.00  0.00     0.008 A
HETATM    6  C2  UNL     1      31.122  23.306  45.190  1.00  0.00     0.001 A
HETATM    7  C1  UNL     1      29.952  23.224  44.466  1.00  0.00     0.000 A
HETATM    8  C20 UNL     1      28.899  22.545  45.039  1.00  0.00     0.001 A
HETATM    9  C19 UNL     1      29.006  21.971  46.284  1.00  0.00     0.008 A
ENDBRANCH   3   4
ENDBRANCH   2   3
ENDBRANCH   1   2
BRANCH   1  10
HETATM   10  C7  UNL     1      31.485  18.695  49.345  1.00  0.00    -0.040 A
HETATM   11  C8  UNL     1      31.153  18.596  50.660  1.00  0.00     0.009 A
HETATM   12  C9  UNL     1      32.097  18.798  51.650  1.00  0.00     0.001 A
HETATM   13  C10 UNL     1      33.400  19.102  51.356  1.00  0.00     0.000 A
HETATM   14  C11 UNL     1      33.741  19.201  50.022  1.00  0.00     0.001 A
HETATM   15  C12 UNL     1      32.794  19.000  49.023  1.00  0.00     0.009 A
ENDBRANCH   1  10
BRANCH   1  16
HETATM   16  C13 UNL     1      30.975  18.375  46.939  1.00  0.00    -0.040 A
HETATM   17  C14 UNL     1      30.482  19.066  45.858  1.00  0.00     0.009 A
HETATM   18  C15 UNL     1      31.049  18.897  44.623  1.00  0.00     0.001 A
HETATM   19  C16 UNL     1      32.111  18.050  44.407  1.00  0.00     0.000 A
HETATM   20  C17 UNL     1      32.630  17.338  45.491  1.00  0.00     0.001 A
HETATM   21  C18 UNL     1      32.049  17.519  46.724  1.00  0.00     0.009 A
ENDBRANCH   1  16
TORSDOF 5
ENDMDL