MODEL 2
REMARK VINA RESULT: -10.599070469      0.054      1.010
REMARK  5 active torsions:
REMARK  status: ('A' for Active; 'I' for Inactive)
REMARK    1  A    between atoms: C2_2  and  C3_3
REMARK    2  A    between atoms: C6_6  and  C7_7
REMARK    3  A    between atoms: C10_10  and  N1_11
REMARK    4  A    between atoms: N1_11  and  C11_13
REMARK    5  A    between atoms: C11_13  and  C12_14
ROOT
HETATM    1  C7  UNL     1      33.106  18.652  51.277  1.00  0.00    -0.026 A
HETATM    2  C8  UNL     1      31.808  18.489  51.650  1.00  0.00     0.014 A
HETATM    3  C9  UNL     1      30.779  18.690  50.724  1.00  0.00     0.030 A
HETATM    4  C10 UNL     1      31.053  19.058  49.425  1.00  0.00     0.028 A
HETATM    5  C18 UNL     1      32.367  19.224  49.048  1.00  0.00     0.030 A
HETATM    6  C19 UNL     1      33.393  19.022  49.971  1.00  0.00     0.014 A
ENDROOT
BRANCH   4   7
HETATM    7  N1  UNL     1      29.996  19.267  48.464  1.00  0.00    -0.386 N
ATOM      8  H1  UNL     1      29.757  18.513  47.820  1.00  0.00     0.160 HD
BRANCH   7   9
HETATM    9  C11 UNL     1      29.278  20.496  48.387  1.00  0.00     0.158 C
BRANCH   9  10
HETATM   10  C12 UNL     1      29.658  21.402  47.303  1.00  0.00    -0.041 A
HETATM   11  C13 UNL     1      28.699  21.688  46.319  1.00  0.00     0.009 A
HETATM   12  C14 UNL     1      28.981  22.534  45.271  1.00  0.00     0.001 A
HETATM   13  C15 UNL     1      30.211  23.140  45.131  1.00  0.00     0.000 A
HETATM   14  C16 UNL     1      31.162  22.867  46.090  1.00  0.00     0.001 A
HETATM   15  C17 UNL     1      30.870  22.017  47.139  1.00  0.00     0.009 A
ENDBRANCH   9  10
ENDBRANCH   7   9
ENDBRANCH   4   7
BRANCH   1  16
HETATM   16  C6  UNL     1      34.249  18.462  52.178  1.00  0.00    -0.026 A
HETATM   17  C5  UNL     1      35.491  18.077  51.696  1.00  0.00     0.013 A
HETATM   18  C4  UNL     1      36.581  17.887  52.484  1.00  0.00     0.008 A
HETATM   19  C3  UNL     1      36.471  18.084  53.856  1.00  0.00    -0.059 A
HETATM   20  C21 UNL     1      35.247  18.468  54.374  1.00  0.00     0.008 A
HETATM   21  C20 UNL     1      34.158  18.652  53.541  1.00  0.00     0.013 A
BRANCH  19  22
HETATM   22  C2  UNL     1      37.582  17.906  54.789  1.00  0.00     0.034 C
HETATM   23  C1  UNL     1      37.996  16.478  54.993  1.00  0.00     0.010 C
ENDBRANCH  19  22
ENDBRANCH   1  16
TORSDOF 5
ENDMDL