MODEL 5
REMARK VINA RESULT: -8.058075946      0.730      4.484
REMARK  5 active torsions:
REMARK  status: ('A' for Active; 'I' for Inactive)
REMARK    1  A    between atoms: C2_2  and  N1_3
REMARK    2  A    between atoms: N1_3  and  C3_5
REMARK    3  A    between atoms: C3_5  and  C4_6
REMARK    4  A    between atoms: C3_5  and  C10_12
REMARK    5  A    between atoms: C3_5  and  C16_18
ROOT
HETATM    1  C3  UNL     1      30.278  20.282  46.238  1.00  0.00     0.109 C
ENDROOT
BRANCH   1   2
HETATM    2  N1  UNL     1      28.847  20.252  46.187  1.00  0.00    -0.402 N
ATOM      3  H1  UNL     1      28.372  19.689  45.481  1.00  0.00     0.154 HD
BRANCH   2   4
HETATM    4  C2  UNL     1      28.102  20.995  47.109  1.00  0.00     0.111 C
HETATM    5  C1  UNL     1      27.301  22.025  46.280  1.00  0.00     0.026 C
ENDBRANCH   2   4
ENDBRANCH   1   2
BRANCH   1   6
HETATM    6  C4  UNL     1      30.837  19.749  47.492  1.00  0.00    -0.021 A
HETATM    7  C5  UNL     1      32.182  19.823  47.787  1.00  0.00     0.010 A
HETATM    8  C6  UNL     1      32.717  19.327  48.951  1.00  0.00     0.001 A
HETATM    9  C7  UNL     1      31.852  18.735  49.846  1.00  0.00     0.000 A
HETATM   10  C8  UNL     1      30.503  18.631  49.609  1.00  0.00     0.001 A
HETATM   11  C9  UNL     1      30.021  19.149  48.417  1.00  0.00     0.010 A
ENDBRANCH   1   6
BRANCH   1  12
HETATM   12  C10 UNL     1      30.733  19.464  45.086  1.00  0.00    -0.021 A
HETATM   13  C11 UNL     1      29.919  19.400  43.981  1.00  0.00     0.010 A
HETATM   14  C12 UNL     1      30.276  18.655  42.863  1.00  0.00     0.001 A
HETATM   15  C13 UNL     1      31.451  17.973  42.849  1.00  0.00     0.000 A
HETATM   16  C14 UNL     1      32.280  18.026  43.947  1.00  0.00     0.001 A
HETATM   17  C15 UNL     1      31.913  18.778  45.068  1.00  0.00     0.010 A
ENDBRANCH   1  12
BRANCH   1  18
HETATM   18  C16 UNL     1      30.718  21.699  46.093  1.00  0.00    -0.021 A
HETATM   19  C17 UNL     1      31.377  22.343  47.119  1.00  0.00     0.010 A
HETATM   20  C18 UNL     1      31.792  23.643  46.996  1.00  0.00     0.001 A
HETATM   21  C19 UNL     1      31.546  24.321  45.825  1.00  0.00     0.000 A
HETATM   22  C20 UNL     1      30.897  23.721  44.786  1.00  0.00     0.001 A
HETATM   23  C21 UNL     1      30.491  22.399  44.952  1.00  0.00     0.010 A
ENDBRANCH   1  18
TORSDOF 5
ENDMDL