MODEL 5
REMARK VINA RESULT: -7.767574970      0.783      1.127
REMARK  6 active torsions:
REMARK  status: ('A' for Active; 'I' for Inactive)
REMARK    1  A    between atoms: C2_2  and  C3_3
REMARK    2  A    between atoms: C3_3  and  C4_4
REMARK    3  A    between atoms: C4_4  and  C5_5
REMARK    4  A    between atoms: C5_5  and  C6_6
REMARK    5  A    between atoms: C6_6  and  N1_7
REMARK    6  A    between atoms: N1_7  and  C7_8
ROOT
HETATM    1  C7  UNL     1      30.031  19.646  46.813  1.00  0.00     0.125 A
HETATM    2  C8  UNL     1      30.611  19.331  48.048  1.00  0.00     0.032 A
HETATM    3  C9  UNL     1      30.051  19.734  49.237  1.00  0.00     0.017 A
HETATM    4  C10 UNL     1      30.615  19.431  50.482  1.00  0.00     0.001 A
HETATM    5  C11 UNL     1      31.780  18.699  50.540  1.00  0.00     0.002 A
HETATM    6  C12 UNL     1      32.349  18.290  49.355  1.00  0.00     0.030 A
HETATM    7  C13 UNL     1      31.775  18.599  48.114  1.00  0.00     0.046 A
HETATM    8  N2  UNL     1      32.347  18.190  46.967  1.00  0.00    -0.355 N
ATOM      9  H2  UNL     1      33.210  17.648  47.026  1.00  0.00     0.166 HD
HETATM   10  C14 UNL     1      31.849  18.454  45.759  1.00  0.00     0.046 A
HETATM   11  C15 UNL     1      32.477  18.008  44.586  1.00  0.00     0.030 A
HETATM   12  C16 UNL     1      31.970  18.274  43.332  1.00  0.00     0.002 A
HETATM   13  C17 UNL     1      30.801  19.008  43.238  1.00  0.00     0.001 A
HETATM   14  C18 UNL     1      30.194  19.440  44.404  1.00  0.00     0.017 A
HETATM   15  C19 UNL     1      30.698  19.175  45.651  1.00  0.00     0.032 A
ENDROOT
BRANCH   1  16
HETATM   16  N1  UNL     1      29.015  20.281  46.691  1.00  0.00    -0.446 NA
BRANCH  16  17
HETATM   17  C6  UNL     1      27.714  20.576  46.543  1.00  0.00     0.218 C
BRANCH  17  18
HETATM   18  C5  UNL     1      27.451  22.090  46.537  1.00  0.00     0.033 C
BRANCH  18  19
HETATM   19  C4  UNL     1      28.140  22.706  45.360  1.00  0.00     0.002 C
BRANCH  19  20
HETATM   20  C3  UNL     1      29.511  23.210  45.669  1.00  0.00    -0.000 C
BRANCH  20  21
HETATM   21  C2  UNL     1      30.406  22.950  44.471  1.00  0.00    -0.005 C
HETATM   22  C1  UNL     1      29.514  22.533  43.306  1.00  0.00     0.005 C
ENDBRANCH  20  21
ENDBRANCH  19  20
ENDBRANCH  18  19
ENDBRANCH  17  18
ENDBRANCH  16  17
ENDBRANCH   1  16
TORSDOF 6
ENDMDL