MODEL 1
REMARK VINA RESULT: -10.459329676      0.000      0.000
REMARK  5 active torsions:
REMARK  status: ('A' for Active; 'I' for Inactive)
REMARK    1  A    between atoms: C2_2  and  C3_3
REMARK    2  A    between atoms: C6_6  and  C7_7
REMARK    3  A    between atoms: C7_7  and  N1_8
REMARK    4  A    between atoms: N1_8  and  C8_10
REMARK    5  A    between atoms: C11_13  and  C12_14
ROOT
HETATM    1  C8  UNL     1      32.146  18.966  49.399  1.00  0.00     0.028 A
HETATM    2  C9  UNL     1      32.310  18.491  48.108  1.00  0.00     0.030 A
HETATM    3  C10 UNL     1      31.787  19.203  47.052  1.00  0.00     0.014 A
HETATM    4  C11 UNL     1      31.100  20.381  47.226  1.00  0.00    -0.026 A
HETATM    5  C18 UNL     1      30.955  20.826  48.524  1.00  0.00     0.014 A
HETATM    6  C19 UNL     1      31.464  20.140  49.603  1.00  0.00     0.030 A
ENDROOT
BRANCH   1   7
HETATM    7  N1  UNL     1      32.663  18.272  50.518  1.00  0.00    -0.386 N
ATOM      8  H1  UNL     1      33.060  17.343  50.377  1.00  0.00     0.160 HD
BRANCH   7   9
HETATM    9  C7  UNL     1      32.651  18.826  51.859  1.00  0.00     0.158 C
BRANCH   9  10
HETATM   10  C6  UNL     1      33.962  18.596  52.539  1.00  0.00    -0.041 A
HETATM   11  C5  UNL     1      34.074  18.640  53.913  1.00  0.00     0.009 A
HETATM   12  C4  UNL     1      35.286  18.426  54.503  1.00  0.00     0.007 A
HETATM   13  C3  UNL     1      36.420  18.161  53.744  1.00  0.00    -0.059 A
HETATM   14  C21 UNL     1      36.337  18.110  52.369  1.00  0.00     0.007 A
HETATM   15  C20 UNL     1      35.107  18.328  51.785  1.00  0.00     0.009 A
BRANCH  13  16
HETATM   16  C2  UNL     1      37.749  17.924  54.353  1.00  0.00     0.034 C
HETATM   17  C1  UNL     1      37.890  16.529  54.898  1.00  0.00     0.010 C
ENDBRANCH  13  16
ENDBRANCH   9  10
ENDBRANCH   7   9
ENDBRANCH   1   7
BRANCH   4  18
HETATM   18  C12 UNL     1      30.557  21.111  46.081  1.00  0.00    -0.026 A
HETATM   19  C13 UNL     1      30.014  20.433  45.011  1.00  0.00     0.012 A
HETATM   20  C14 UNL     1      29.489  21.092  43.907  1.00  0.00     0.001 A
HETATM   21  C15 UNL     1      29.533  22.475  43.925  1.00  0.00     0.000 A
HETATM   22  C16 UNL     1      30.067  23.173  44.976  1.00  0.00     0.001 A
HETATM   23  C17 UNL     1      30.580  22.489  46.056  1.00  0.00     0.012 A
ENDBRANCH   4  18
TORSDOF 5
ENDMDL