MODEL 1
REMARK VINA RESULT: -10.190925242      0.000      0.000
REMARK  4 active torsions:
REMARK  status: ('A' for Active; 'I' for Inactive)
REMARK    1  A    between atoms: C2_2  and  C3_3
REMARK    2  A    between atoms: C3_3  and  C4_4
REMARK    3  A    between atoms: C4_4  and  C5_5
REMARK    4  A    between atoms: C5_5  and  C6_6
ROOT
HETATM    1  C6  UNL     1      32.346  19.356  49.432  1.00  0.00    -0.056 A
HETATM    2  C7  UNL     1      31.232  18.676  49.884  1.00  0.00     0.033 A
HETATM    3  C8  UNL     1      29.984  18.857  49.280  1.00  0.00     0.047 A
HETATM    4  N1  UNL     1      28.826  18.164  49.734  1.00  0.00    -0.102 NA
HETATM    5  C9  UNL     1      29.910  19.737  48.219  1.00  0.00     0.038 A
HETATM    6  C10 UNL     1      30.990  20.439  47.731  1.00  0.00    -0.023 A
HETATM    7  C11 UNL     1      30.914  21.358  46.623  1.00  0.00    -0.015 A
HETATM    8  C12 UNL     1      31.332  22.668  46.849  1.00  0.00     0.013 A
HETATM    9  C13 UNL     1      31.261  23.626  45.859  1.00  0.00     0.002 A
HETATM   10  C14 UNL     1      30.771  23.319  44.608  1.00  0.00     0.012 A
HETATM   11  C15 UNL     1      30.358  22.020  44.384  1.00  0.00    -0.025 A
HETATM   12  C16 UNL     1      29.878  21.693  43.146  1.00  0.00     0.012 A
HETATM   13  C17 UNL     1      29.450  20.421  42.818  1.00  0.00     0.001 A
HETATM   14  C18 UNL     1      29.525  19.468  43.809  1.00  0.00     0.001 A
HETATM   15  C19 UNL     1      30.003  19.769  45.064  1.00  0.00     0.013 A
HETATM   16  C20 UNL     1      30.426  21.049  45.375  1.00  0.00    -0.015 A
HETATM   17  C21 UNL     1      32.217  20.221  48.373  1.00  0.00     0.019 A
ENDROOT
BRANCH   1  18
HETATM   18  C5  UNL     1      33.648  19.151  50.081  1.00  0.00     0.038 C
BRANCH  18  19
HETATM   19  C4  UNL     1      33.531  18.514  51.452  1.00  0.00     0.005 C
BRANCH  19  20
HETATM   20  C3  UNL     1      33.697  19.649  52.463  1.00  0.00    -0.000 C
BRANCH  20  21
HETATM   21  C2  UNL     1      35.057  19.573  53.132  1.00  0.00    -0.005 C
HETATM   22  C1  UNL     1      34.857  18.866  54.457  1.00  0.00     0.005 C
ENDBRANCH  20  21
ENDBRANCH  19  20
ENDBRANCH  18  19
ENDBRANCH   1  18
TORSDOF 4
ENDMDL