MODEL 4
REMARK VINA RESULT: -7.907045412      0.666      4.087
REMARK  5 active torsions:
REMARK  status: ('A' for Active; 'I' for Inactive)
REMARK    1  A    between atoms: C2_2  and  N1_3
REMARK    2  A    between atoms: C2_2  and  C9_11
REMARK    3  A    between atoms: N1_3  and  C3_5
REMARK    4  A    between atoms: C9_11  and  C10_12
REMARK    5  A    between atoms: C9_11  and  C16_18
ROOT
HETATM    1  C9  UNL     1      30.379  20.430  46.889  1.00  0.00     0.074 C
ENDROOT
BRANCH   1   2
HETATM    2  C2  UNL     1      29.010  20.108  47.412  1.00  0.00     0.090 C
HETATM    3  C1  UNL     1      27.877  20.805  46.750  1.00  0.00     0.033 C
BRANCH   2   4
HETATM    4  N1  UNL     1      28.928  20.354  48.846  1.00  0.00    -0.385 N
ATOM      5  H1  UNL     1      28.146  20.896  49.212  1.00  0.00     0.160 HD
BRANCH   4   6
HETATM    6  C3  UNL     1      29.902  19.863  49.741  1.00  0.00     0.028 A
HETATM    7  C4  UNL     1      31.190  20.374  49.779  1.00  0.00     0.029 A
HETATM    8  C5  UNL     1      32.156  19.894  50.635  1.00  0.00     0.002 A
HETATM    9  C6  UNL     1      31.879  18.873  51.500  1.00  0.00     0.000 A
HETATM   10  C7  UNL     1      30.601  18.356  51.473  1.00  0.00     0.002 A
HETATM   11  C8  UNL     1      29.612  18.836  50.607  1.00  0.00     0.029 A
ENDBRANCH   4   6
ENDBRANCH   2   4
ENDBRANCH   1   2
BRANCH   1  12
HETATM   12  C10 UNL     1      31.000  19.279  46.238  1.00  0.00    -0.048 A
HETATM   13  C11 UNL     1      30.849  19.070  44.891  1.00  0.00     0.008 A
HETATM   14  C12 UNL     1      31.447  17.975  44.251  1.00  0.00     0.001 A
HETATM   15  C13 UNL     1      32.208  17.075  44.978  1.00  0.00     0.000 A
HETATM   16  C14 UNL     1      32.357  17.287  46.325  1.00  0.00     0.001 A
HETATM   17  C15 UNL     1      31.777  18.357  46.960  1.00  0.00     0.008 A
ENDBRANCH   1  12
BRANCH   1  18
HETATM   18  C16 UNL     1      30.507  21.713  46.190  1.00  0.00    -0.048 A
HETATM   19  C17 UNL     1      29.814  22.117  45.074  1.00  0.00     0.008 A
HETATM   20  C18 UNL     1      29.975  23.344  44.455  1.00  0.00     0.001 A
HETATM   21  C19 UNL     1      30.868  24.234  44.960  1.00  0.00     0.000 A
HETATM   22  C20 UNL     1      31.591  23.887  46.078  1.00  0.00     0.001 A
HETATM   23  C21 UNL     1      31.418  22.666  46.676  1.00  0.00     0.008 A
ENDBRANCH   1  18
TORSDOF 5
ENDMDL