MODEL 4
REMARK VINA RESULT: -10.443315468      0.039      1.424
REMARK  5 active torsions:
REMARK  status: ('A' for Active; 'I' for Inactive)
REMARK    1  A    between atoms: C2_2  and  C3_3
REMARK    2  A    between atoms: C2_2  and  C10_12
REMARK    3  A    between atoms: C3_3  and  N1_4
REMARK    4  A    between atoms: N1_4  and  C4_6
REMARK    5  A    between atoms: C13_15  and  C14_16
ROOT
HETATM    1  C10 UNL     1      31.279  18.802  49.520  1.00  0.00    -0.053 A
HETATM    2  C11 UNL     1      31.009  18.543  50.849  1.00  0.00     0.008 A
HETATM    3  C12 UNL     1      32.041  18.463  51.791  1.00  0.00     0.013 A
HETATM    4  C13 UNL     1      33.357  18.643  51.397  1.00  0.00    -0.026 A
HETATM    5  C20 UNL     1      33.630  18.899  50.086  1.00  0.00     0.013 A
HETATM    6  C21 UNL     1      32.599  18.974  49.179  1.00  0.00     0.008 A
ENDROOT
BRANCH   1   7
HETATM    7  C2  UNL     1      30.196  18.882  48.556  1.00  0.00     0.032 C
HETATM    8  C1  UNL     1      29.257  20.005  48.998  1.00  0.00     0.017 C
BRANCH   7   9
HETATM    9  C3  UNL     1      30.611  19.125  47.139  1.00  0.00     0.129 C
BRANCH   9  10
HETATM   10  N1  UNL     1      29.683  19.991  46.438  1.00  0.00    -0.389 N
ATOM     11  H1  UNL     1      28.725  19.688  46.269  1.00  0.00     0.159 HD
BRANCH  10  12
HETATM   12  C4  UNL     1      30.120  21.266  45.986  1.00  0.00     0.027 A
HETATM   13  C5  UNL     1      31.082  21.950  46.697  1.00  0.00     0.029 A
HETATM   14  C6  UNL     1      31.518  23.199  46.265  1.00  0.00     0.002 A
HETATM   15  C7  UNL     1      31.007  23.783  45.126  1.00  0.00     0.000 A
HETATM   16  C8  UNL     1      30.046  23.102  44.414  1.00  0.00     0.002 A
HETATM   17  C9  UNL     1      29.617  21.857  44.853  1.00  0.00     0.029 A
ENDBRANCH  10  12
ENDBRANCH   9  10
ENDBRANCH   7   9
ENDBRANCH   1   7
BRANCH   4  18
HETATM   18  C14 UNL     1      34.432  18.559  52.380  1.00  0.00    -0.026 A
HETATM   19  C15 UNL     1      35.674  18.077  52.002  1.00  0.00     0.012 A
HETATM   20  C16 UNL     1      36.714  17.984  52.906  1.00  0.00     0.001 A
HETATM   21  C17 UNL     1      36.558  18.367  54.221  1.00  0.00     0.000 A
HETATM   22  C18 UNL     1      35.321  18.849  54.596  1.00  0.00     0.001 A
HETATM   23  C19 UNL     1      34.275  18.943  53.692  1.00  0.00     0.012 A
ENDBRANCH   4  18
TORSDOF 5
ENDMDL