MODEL 3
REMARK VINA RESULT: -9.654873362      0.925      1.271
REMARK  5 active torsions:
REMARK  status: ('A' for Active; 'I' for Inactive)
REMARK    1  A    between atoms: C2_2  and  C3_3
REMARK    2  A    between atoms: C7_7  and  N1_8
REMARK    3  A    between atoms: N1_8  and  C8_10
REMARK    4  A    between atoms: C8_10  and  C9_11
REMARK    5  A    between atoms: C14_16  and  C15_17
ROOT
HETATM    1  C9  UNL     1      31.512  18.823  49.583  1.00  0.00    -0.029 A
HETATM    2  C10 UNL     1      30.190  18.821  49.205  1.00  0.00     0.010 A
HETATM    3  C11 UNL     1      29.159  18.646  50.130  1.00  0.00     0.001 A
HETATM    4  C12 UNL     1      29.395  18.467  51.469  1.00  0.00     0.001 A
HETATM    5  C13 UNL     1      30.711  18.470  51.854  1.00  0.00     0.013 A
HETATM    6  C14 UNL     1      31.751  18.643  50.947  1.00  0.00    -0.018 A
ENDROOT
BRANCH   1   7
HETATM    7  C8  UNL     1      32.653  18.978  48.666  1.00  0.00     0.159 C
BRANCH   7   8
HETATM    8  N1  UNL     1      32.388  19.863  47.586  1.00  0.00    -0.386 N
ATOM      9  H1  UNL     1      32.589  20.859  47.666  1.00  0.00     0.160 HD
BRANCH   8  10
HETATM   10  C7  UNL     1      31.828  19.318  46.373  1.00  0.00     0.028 A
HETATM   11  C6  UNL     1      32.102  18.018  46.008  1.00  0.00     0.029 A
HETATM   12  C5  UNL     1      31.560  17.504  44.845  1.00  0.00     0.003 A
HETATM   13  C4  UNL     1      30.744  18.259  44.028  1.00  0.00     0.007 A
HETATM   14  C3  UNL     1      30.461  19.560  44.379  1.00  0.00    -0.056 A
HETATM   15  C21 UNL     1      31.008  20.060  45.542  1.00  0.00     0.036 A
BRANCH  14  16
HETATM   16  C2  UNL     1      29.602  20.462  43.585  1.00  0.00     0.034 C
HETATM   17  C1  UNL     1      29.892  21.915  43.820  1.00  0.00     0.010 C
ENDBRANCH  14  16
ENDBRANCH   8  10
ENDBRANCH   7   8
ENDBRANCH   1   7
BRANCH   6  18
HETATM   18  C15 UNL     1      33.108  18.655  51.478  1.00  0.00    -0.025 A
HETATM   19  C16 UNL     1      33.985  17.619  51.385  1.00  0.00     0.012 A
HETATM   20  C17 UNL     1      35.255  17.672  51.924  1.00  0.00     0.001 A
HETATM   21  C18 UNL     1      35.685  18.798  52.585  1.00  0.00     0.000 A
HETATM   22  C19 UNL     1      34.813  19.858  52.688  1.00  0.00     0.001 A
HETATM   23  C20 UNL     1      33.559  19.792  52.152  1.00  0.00     0.012 A
ENDBRANCH   6  18
TORSDOF 5
ENDMDL