MODEL 4
REMARK VINA RESULT: -7.646844938      1.757      3.496
REMARK  5 active torsions:
REMARK  status: ('A' for Active; 'I' for Inactive)
REMARK    1  A    between atoms: C2_2  and  C3_3
REMARK    2  A    between atoms: C6_6  and  C7_7
REMARK    3  A    between atoms: C7_7  and  N1_8
REMARK    4  A    between atoms: N1_8  and  C8_10
REMARK    5  A    between atoms: C14_16  and  C15_17
ROOT
HETATM    1  C3  UNL     1      32.226  19.798  50.222  1.00  0.00    -0.058 A
HETATM    2  C4  UNL     1      32.569  18.536  49.792  1.00  0.00     0.007 A
HETATM    3  C5  UNL     1      32.106  18.005  48.604  1.00  0.00     0.010 A
HETATM    4  C6  UNL     1      31.256  18.717  47.758  1.00  0.00    -0.029 A
HETATM    5  C14 UNL     1      30.910  19.976  48.184  1.00  0.00    -0.018 A
HETATM    6  C21 UNL     1      31.389  20.506  49.397  1.00  0.00     0.020 A
ENDROOT
BRANCH   4   7
HETATM    7  C7  UNL     1      30.760  18.135  46.487  1.00  0.00     0.159 C
BRANCH   7   8
HETATM    8  N1  UNL     1      31.523  18.476  45.328  1.00  0.00    -0.386 N
ATOM      9  H1  UNL     1      32.475  18.127  45.217  1.00  0.00     0.160 HD
BRANCH   8  10
HETATM   10  C8  UNL     1      30.936  19.313  44.323  1.00  0.00     0.028 A
HETATM   11  C9  UNL     1      29.567  19.308  44.098  1.00  0.00     0.029 A
HETATM   12  C10 UNL     1      28.940  20.095  43.158  1.00  0.00     0.002 A
HETATM   13  C11 UNL     1      29.721  20.939  42.397  1.00  0.00     0.000 A
HETATM   14  C12 UNL     1      31.086  20.991  42.573  1.00  0.00     0.002 A
HETATM   15  C13 UNL     1      31.683  20.176  43.537  1.00  0.00     0.029 A
ENDBRANCH   8  10
ENDBRANCH   7   8
ENDBRANCH   4   7
BRANCH   5  16
HETATM   16  C15 UNL     1      30.010  20.810  47.404  1.00  0.00    -0.025 A
HETATM   17  C16 UNL     1      28.649  20.646  47.364  1.00  0.00     0.012 A
HETATM   18  C17 UNL     1      27.810  21.452  46.585  1.00  0.00     0.001 A
HETATM   19  C18 UNL     1      28.377  22.456  45.824  1.00  0.00     0.000 A
HETATM   20  C19 UNL     1      29.741  22.657  45.836  1.00  0.00     0.001 A
HETATM   21  C20 UNL     1      30.518  21.843  46.613  1.00  0.00     0.012 A
ENDBRANCH   5  16
BRANCH   1  22
HETATM   22  C2  UNL     1      32.724  20.365  51.496  1.00  0.00     0.034 C
HETATM   23  C1  UNL     1      32.973  19.309  52.546  1.00  0.00     0.010 C
ENDBRANCH   1  22
TORSDOF 5
ENDMDL