MODEL 4
REMARK VINA RESULT: -7.403657379      1.924      4.646
REMARK  9 active torsions:
REMARK  status: ('A' for Active; 'I' for Inactive)
REMARK    1  A    between atoms: C2_2  and  C3_3
REMARK    2  A    between atoms: C3_3  and  C4_4
REMARK    3  A    between atoms: C4_4  and  C5_5
REMARK    4  A    between atoms: C5_5  and  C6_6
REMARK    5  A    between atoms: C6_6  and  C7_8
REMARK    6  A    between atoms: C14_16  and  O3_17
REMARK    7  A    between atoms: O3_17  and  C15_18
REMARK    8  A    between atoms: C21_25  and  O5_26
REMARK    9  A    between atoms: O5_26  and  C22_27
ROOT
HETATM    1  C7  UNL     1       0.646  -6.084  -7.837  1.00  0.00    -0.009 C
HETATM    2  C8  UNL     1       0.869  -7.340  -8.201  1.00  0.00    -0.064 C
HETATM    3  C9  UNL     1       1.977  -8.071  -7.577  1.00  0.00     0.045 C
HETATM    4  C10 UNL     1       0.166  -8.221  -9.211  1.00  0.00    -0.005 C
HETATM    5  C11 UNL     1       1.204  -8.606 -10.250  1.00  0.00     0.021 C
HETATM    6  C12 UNL     1      -0.779  -7.218  -9.889  1.00  0.00     0.075 C
HETATM    7  C13 UNL     1      -1.413  -7.736 -11.086  1.00  0.00     0.162 C
HETATM    8  O2  UNL     1      -1.385  -7.185 -12.158  1.00  0.00    -0.295 OA
HETATM    9  C14 UNL     1      -2.112  -9.016 -10.892  1.00  0.00     0.210 C
HETATM   10  C17 UNL     1      -2.122  -9.252  -9.413  1.00  0.00    -0.002 C
HETATM   11  C18 UNL     1      -2.901 -10.481  -9.201  1.00  0.00     0.019 C
HETATM   12  C19 UNL     1      -2.782  -8.000  -8.783  1.00  0.00     0.004 C
HETATM   13  C20 UNL     1      -3.178  -8.607  -7.418  1.00  0.00     0.038 C
HETATM   14  C21 UNL     1      -2.011  -9.072  -6.630  1.00  0.00     0.132 C
HETATM   15  C24 UNL     1      -0.896  -9.738  -7.405  1.00  0.00     0.039 C
HETATM   16  C25 UNL     1      -0.708  -9.306  -8.790  1.00  0.00     0.013 C
HETATM   17  C26 UNL     1      -1.731  -7.016  -8.720  1.00  0.00     0.003 C
HETATM   18  C27 UNL     1      -1.788  -5.586  -8.576  1.00  0.00     0.010 C
HETATM   19  C28 UNL     1      -0.372  -5.112  -8.378  1.00  0.00     0.043 C
ENDROOT
BRANCH   1  20
HETATM   20  C6  UNL     1       1.528  -5.529  -6.829  1.00  0.00     0.155 C
HETATM   21  O1  UNL     1       1.633  -5.988  -5.687  1.00  0.00    -0.293 OA
BRANCH  20  22
HETATM   22  C5  UNL     1       2.372  -4.323  -7.186  1.00  0.00     0.083 C
BRANCH  22  23
HETATM   23  C4  UNL     1       3.802  -4.485  -6.775  1.00  0.00     0.008 C
BRANCH  23  24
HETATM   24  C3  UNL     1       4.646  -5.344  -7.644  1.00  0.00     0.000 C
BRANCH  24  25
HETATM   25  C2  UNL     1       5.477  -6.230  -6.716  1.00  0.00    -0.005 C
HETATM   26  C1  UNL     1       5.169  -5.949  -5.278  1.00  0.00     0.005 C
ENDBRANCH  24  25
ENDBRANCH  23  24
ENDBRANCH  22  23
ENDBRANCH  20  22
ENDBRANCH   1  20
BRANCH   9  27
HETATM   27  O3  UNL     1      -1.656 -10.057 -11.678  1.00  0.00    -0.308 OA
BRANCH  27  28
HETATM   28  C15 UNL     1      -2.451 -10.663 -12.639  1.00  0.00     0.255 C
HETATM   29  C16 UNL     1      -3.294  -9.816 -13.501  1.00  0.00     0.126 C
HETATM   30  O4  UNL     1      -2.414 -11.912 -12.729  1.00  0.00    -0.266 OA
ENDBRANCH  27  28
ENDBRANCH   9  27
BRANCH  14  31
HETATM   31  O5  UNL     1      -2.452 -10.001  -5.650  1.00  0.00    -0.316 OA
BRANCH  31  32
HETATM   32  C22 UNL     1      -2.682 -11.337  -5.877  1.00  0.00     0.255 C
HETATM   33  C23 UNL     1      -4.033 -11.878  -6.223  1.00  0.00     0.126 C
HETATM   34  O6  UNL     1      -1.673 -12.091  -5.772  1.00  0.00    -0.266 OA
ENDBRANCH  31  32
ENDBRANCH  14  31
TORSDOF 9
ENDMDL