MODEL 3
REMARK VINA RESULT: -8.012832345      1.204      1.892
REMARK  8 active torsions:
REMARK  status: ('A' for Active; 'I' for Inactive)
REMARK    1  A    between atoms: O1_2  and  C2_3
REMARK       I    between atoms: C2_3  and  N1_5
REMARK    2  A    between atoms: N1_5  and  C4_7
REMARK    3  A    between atoms: C4_7  and  C5_8
REMARK    4  A    between atoms: C5_8  and  C6_9
REMARK    5  A    between atoms: C6_9  and  C7_10
REMARK    6  A    between atoms: C7_10  and  C8_11
REMARK    7  A    between atoms: C8_11  and  C9_12
REMARK    8  A    between atoms: C16_20  and  N2_22
ROOT
HETATM    1  C9  UNL     1      -1.324  -7.284  -8.716  1.00  0.00    -0.002 C
HETATM    2  C10 UNL     1      -2.813  -7.184  -8.461  1.00  0.00     0.083 C
HETATM    3  C11 UNL     1      -2.961  -7.838  -7.163  1.00  0.00     0.132 C
HETATM    4  O3  UNL     1      -3.801  -7.534  -6.322  1.00  0.00    -0.298 OA
HETATM    5  C12 UNL     1      -1.923  -8.902  -7.085  1.00  0.00     0.065 C
HETATM    6  C13 UNL     1      -0.761  -8.290  -7.786  1.00  0.00     0.005 C
HETATM    7  C14 UNL     1       0.002  -9.402  -8.473  1.00  0.00     0.042 C
HETATM    8  C15 UNL     1      -0.862 -10.056  -9.521  1.00  0.00    -0.051 C
HETATM    9  C16 UNL     1      -0.418 -10.123 -10.738  1.00  0.00     0.036 C
HETATM   10  C17 UNL     1       0.925  -9.560 -11.094  1.00  0.00     0.070 C
HETATM   11  C20 UNL     1      -2.143 -10.548  -9.014  1.00  0.00     0.021 C
HETATM   12  C21 UNL     1      -2.335 -12.042  -9.081  1.00  0.00     0.010 C
HETATM   13  C22 UNL     1      -3.806 -12.312  -8.919  1.00  0.00     0.009 C
HETATM   14  C23 UNL     1      -4.432 -11.681  -7.741  1.00  0.00    -0.047 C
HETATM   15  C24 UNL     1      -4.489 -12.722  -6.618  1.00  0.00     0.015 C
HETATM   16  C25 UNL     1      -5.905 -11.427  -8.104  1.00  0.00     0.015 C
HETATM   17  C26 UNL     1      -3.821 -10.425  -7.243  1.00  0.00     0.015 C
HETATM   18  C27 UNL     1      -2.375 -10.226  -7.565  1.00  0.00     0.006 C
ENDROOT
BRANCH   1  19
HETATM   19  C8  UNL     1      -0.736  -5.905  -8.561  1.00  0.00     0.005 C
BRANCH  19  20
HETATM   20  C7  UNL     1       0.336  -5.822  -7.534  1.00  0.00     0.000 C
BRANCH  20  21
HETATM   21  C6  UNL     1       1.007  -4.482  -7.563  1.00  0.00     0.002 C
BRANCH  21  22
HETATM   22  C5  UNL     1       2.266  -4.386  -6.773  1.00  0.00     0.020 C
BRANCH  22  23
HETATM   23  C4  UNL     1       2.532  -5.642  -6.018  1.00  0.00     0.127 C
BRANCH  23  24
HETATM   24  N1  UNL     1       3.843  -6.179  -6.098  1.00  0.00    -0.332 N
HETATM   25  C2  UNL     1       4.231  -7.100  -7.107  1.00  0.00     0.361 C
HETATM   26  O2  UNL     1       5.409  -7.570  -7.148  1.00  0.00    -0.238 OA
HETATM   27  C3  UNL     1       4.830  -5.790  -5.115  1.00  0.00     0.155 C
BRANCH  25  28
HETATM   28  O1  UNL     1       3.361  -7.536  -8.097  1.00  0.00    -0.309 OA
HETATM   29  C1  UNL     1       3.725  -8.618  -8.917  1.00  0.00     0.215 C
ENDBRANCH  25  28
ENDBRANCH  23  24
ENDBRANCH  22  23
ENDBRANCH  21  22
ENDBRANCH  20  21
ENDBRANCH  19  20
ENDBRANCH   1  19
BRANCH   9  30
HETATM   30  N2  UNL     1      -1.127 -10.708 -11.825  1.00  0.00    -0.232 N
HETATM   31  N3  UNL     1      -0.968 -11.899 -12.369  1.00  0.00    -0.220 N
HETATM   32  N4  UNL     1      -1.826 -12.065 -13.359  1.00  0.00    -0.226 N
ATOM     33  H3  UNL     1      -0.282 -12.591 -12.068  1.00  0.00     0.210 HD
HETATM   34  N5  UNL     1      -2.550 -10.970 -13.458  1.00  0.00    -0.272 N
ATOM     35  H4  UNL     1      -1.913 -12.896 -13.944  1.00  0.00     0.210 HD
HETATM   36  C18 UNL     1      -2.118 -10.131 -12.510  1.00  0.00     0.116 A
ATOM     37  H5  UNL     1      -3.297 -10.794 -14.130  1.00  0.00     0.190 HD
HETATM   38  C19 UNL     1      -2.648  -8.771 -12.254  1.00  0.00     0.092 C
ENDBRANCH   9  30
TORSDOF 8
ENDMDL