MODEL 2
REMARK VINA RESULT: -7.552916910      3.017      8.037
REMARK  8 active torsions:
REMARK  status: ('A' for Active; 'I' for Inactive)
REMARK    1  A    between atoms: C8_8  and  O1_9
REMARK    2  A    between atoms: O1_9  and  C9_10
REMARK    3  A    between atoms: C9_10  and  C10_12
REMARK    4  A    between atoms: C10_12  and  S1_13
REMARK    5  A    between atoms: S1_13  and  C11_14
REMARK    6  A    between atoms: C11_14  and  C12_15
REMARK    7  A    between atoms: C12_15  and  O3_18
REMARK    8  A    between atoms: O3_18  and  N1_19
ROOT
HETATM    1  C1  UNL     1      -1.306  -4.904 -10.309  1.00  0.00     0.014 C
HETATM    2  C2  UNL     1      -1.639  -5.432  -9.149  1.00  0.00    -0.085 C
HETATM    3  C3  UNL     1      -2.976  -5.937  -8.765  1.00  0.00     0.034 C
HETATM    4  C4  UNL     1      -2.614  -7.105  -7.840  1.00  0.00     0.010 C
HETATM    5  C5  UNL     1      -1.172  -7.088  -7.597  1.00  0.00     0.003 C
HETATM    6  C6  UNL     1      -0.797  -5.663  -7.940  1.00  0.00     0.021 C
HETATM    7  C7  UNL     1       0.628  -5.470  -8.308  1.00  0.00     0.042 C
HETATM    8  C8  UNL     1       1.522  -5.790  -7.136  1.00  0.00     0.135 C
HETATM    9  C18 UNL     1       1.512  -7.188  -6.699  1.00  0.00     0.065 C
HETATM   10  C19 UNL     1       1.030  -8.241  -7.601  1.00  0.00     0.135 C
HETATM   11  O4  UNL     1       1.924  -8.573  -8.645  1.00  0.00    -0.350 OA
HETATM   12  C20 UNL     1       1.436  -9.768  -9.174  1.00  0.00     0.158 C
HETATM   13  C21 UNL     1       1.461  -9.680 -10.693  1.00  0.00     0.078 C
HETATM   14  C22 UNL     1       2.535 -10.802  -8.844  1.00  0.00     0.078 C
HETATM   15  O5  UNL     1       0.301 -10.246  -8.649  1.00  0.00    -0.345 OA
HETATM   16  C23 UNL     1      -0.805  -9.431  -8.529  1.00  0.00     0.063 C
HETATM   17  C24 UNL     1      -1.574  -9.950  -7.311  1.00  0.00     0.046 C
HETATM   18  C25 UNL     1      -1.589  -9.557  -9.802  1.00  0.00     0.046 C
HETATM   19  C26 UNL     1      -0.291  -8.014  -8.290  1.00  0.00     0.053 C
ENDROOT
BRANCH   8  20
HETATM   20  O1  UNL     1       2.796  -5.252  -7.437  1.00  0.00    -0.315 OA
BRANCH  20  21
HETATM   21  C9  UNL     1       3.589  -4.653  -6.487  1.00  0.00     0.268 C
HETATM   22  O2  UNL     1       3.999  -3.476  -6.736  1.00  0.00    -0.264 OA
BRANCH  21  23
HETATM   23  C10 UNL     1       3.994  -5.271  -5.216  1.00  0.00     0.184 C
BRANCH  23  24
HETATM   24  S1  UNL     1       5.647  -5.980  -5.314  1.00  0.00    -0.156 SA
BRANCH  24  25
HETATM   25  C11 UNL     1       6.065  -6.573  -6.955  1.00  0.00     0.114 C
BRANCH  25  26
HETATM   26  C12 UNL     1       6.454  -8.039  -6.831  1.00  0.00     0.090 C
HETATM   27  C13 UNL     1       6.663  -8.425  -5.383  1.00  0.00     0.049 C
HETATM   28  C14 UNL     1       5.380  -8.953  -7.381  1.00  0.00     0.049 C
BRANCH  26  29
HETATM   29  O3  UNL     1       7.678  -8.212  -7.507  1.00  0.00    -0.269 OA
BRANCH  29  30
HETATM   30  N1  UNL     1       7.934  -9.275  -8.331  1.00  0.00    -0.275 N
HETATM   31  C15 UNL     1       8.766 -10.169  -7.949  1.00  0.00     0.002 C
HETATM   32  C16 UNL     1       9.438 -10.066  -6.651  1.00  0.00     0.065 C
HETATM   33  C17 UNL     1       9.050 -11.324  -8.830  1.00  0.00     0.065 C
ATOM     34  H1  UNL     1       7.469  -9.353  -9.235  1.00  0.00     0.193 HD
ENDBRANCH  29  30
ENDBRANCH  26  29
ENDBRANCH  25  26
ENDBRANCH  24  25
ENDBRANCH  23  24
ENDBRANCH  21  23
ENDBRANCH  20  21
ENDBRANCH   8  20
TORSDOF 8
ENDMDL