MODEL 1
REMARK VINA RESULT: -7.852214911      0.000      0.000
REMARK  7 active torsions:
REMARK  status: ('A' for Active; 'I' for Inactive)
REMARK    1  A    between atoms: C4_4  and  C5_5
REMARK    2  A    between atoms: C5_5  and  C6_6
REMARK    3  A    between atoms: C21_26  and  O6_27
REMARK    4  A    between atoms: O6_27  and  C22_28
REMARK    5  A    between atoms: C22_28  and  C23_30
REMARK    6  A    between atoms: C23_30  and  C24_31
REMARK    7  A    between atoms: C24_31  and  C25_32
ROOT
HETATM    1  C6  UNL     1      -1.178  -8.186  -8.760  1.00  0.00    -0.000 C
HETATM    2  C7  UNL     1      -1.987  -7.104  -8.002  1.00  0.00     0.019 C
HETATM    3  C8  UNL     1      -0.458  -7.385  -9.793  1.00  0.00     0.013 C
HETATM    4  C9  UNL     1      -1.255  -6.497 -10.700  1.00  0.00     0.011 C
HETATM    5  C10 UNL     1      -1.733  -7.290 -11.844  1.00  0.00    -0.034 A
HETATM    6  C11 UNL     1      -0.633  -7.742 -12.722  1.00  0.00     0.016 C
HETATM    7  C12 UNL     1      -3.009  -7.452 -12.479  1.00  0.00    -0.003 A
HETATM    8  C13 UNL     1      -3.185  -8.400 -13.662  1.00  0.00     0.011 C
HETATM    9  C14 UNL     1      -2.819  -8.085 -11.216  1.00  0.00     0.031 A
HETATM   10  C15 UNL     1      -2.280  -9.314 -10.725  1.00  0.00     0.179 C
HETATM   11  O1  UNL     1      -1.013  -9.713 -11.232  1.00  0.00    -0.308 OA
HETATM   12  C16 UNL     1      -0.294 -10.441 -10.307  1.00  0.00     0.329 C
HETATM   13  O2  UNL     1       0.892 -10.800 -10.371  1.00  0.00    -0.259 OA
HETATM   14  C17 UNL     1      -1.324 -10.664  -9.246  1.00  0.00     0.324 C
HETATM   15  O3  UNL     1      -2.192 -11.590  -9.895  1.00  0.00    -0.183 OA
HETATM   16  O4  UNL     1      -1.577 -12.733  -9.816  1.00  0.00    -0.198 OA
HETATM   17  C18 UNL     1      -1.053 -12.713  -8.524  1.00  0.00     0.194 C
HETATM   18  C19 UNL     1      -2.062 -13.382  -7.614  1.00  0.00     0.081 C
HETATM   19  C20 UNL     1       0.278 -13.422  -8.489  1.00  0.00     0.081 C
HETATM   20  O5  UNL     1      -0.953 -11.366  -8.206  1.00  0.00    -0.303 OA
HETATM   21  C21 UNL     1      -2.007  -9.348  -9.208  1.00  0.00     0.174 C
ENDROOT
BRANCH  21  22
HETATM   22  O6  UNL     1      -3.050  -9.322  -8.380  1.00  0.00    -0.300 OA
BRANCH  22  23
HETATM   23  C22 UNL     1      -3.725  -9.998  -7.475  1.00  0.00     0.259 C
HETATM   24  O7  UNL     1      -3.194 -10.035  -6.371  1.00  0.00    -0.265 OA
BRANCH  23  25
HETATM   25  C23 UNL     1      -5.026 -10.698  -7.652  1.00  0.00     0.111 C
BRANCH  25  26
HETATM   26  C24 UNL     1      -5.275 -11.633  -6.509  1.00  0.00     0.013 C
BRANCH  26  27
HETATM   27  C25 UNL     1      -6.164 -12.779  -6.863  1.00  0.00    -0.022 C
HETATM   28  C26 UNL     1      -5.604 -14.111  -6.468  1.00  0.00     0.009 C
HETATM   29  C27 UNL     1      -6.373 -12.779  -8.366  1.00  0.00     0.009 C
ENDBRANCH  26  27
ENDBRANCH  25  26
ENDBRANCH  23  25
ENDBRANCH  22  23
ENDBRANCH  21  22
BRANCH   1  30
HETATM   30  C5  UNL     1      -0.142  -8.471  -7.685  1.00  0.00     0.040 C
BRANCH  30  31
HETATM   31  C4  UNL     1       0.226  -7.304  -6.852  1.00  0.00    -0.024 C
HETATM   32  C2  UNL     1       1.526  -6.921  -6.805  1.00  0.00    -0.091 C
HETATM   33  C1  UNL     1       2.572  -7.650  -7.569  1.00  0.00     0.042 C
HETATM   34  C3  UNL     1       1.907  -5.764  -5.983  1.00  0.00     0.042 C
ENDBRANCH  30  31
ENDBRANCH   1  30
TORSDOF 7
ENDMDL