MODEL 4
REMARK VINA RESULT: -9.233286332      1.308      2.037
REMARK  8 active torsions:
REMARK  status: ('A' for Active; 'I' for Inactive)
REMARK    1  A    between atoms: C2_2  and  C3_3
REMARK    2  A    between atoms: C3_3  and  C4_4
REMARK    3  A    between atoms: C4_4  and  C5_5
REMARK    4  A    between atoms: C6_6  and  C7_7
REMARK    5  A    between atoms: C7_7  and  C8_8
REMARK    6  A    between atoms: C10_12  and  C11_13
REMARK    7  A    between atoms: C19_24  and  C20_25
REMARK    8  A    between atoms: C20_25  and  C22_27
ROOT
HETATM    1  C8  UNL     1      -1.242  -6.752  -7.724  1.00  0.00     0.118 C
HETATM    2  C9  UNL     1      -0.199  -5.693  -7.960  1.00  0.00     0.268 C
HETATM    3  O1  UNL     1      -0.449  -4.471  -7.851  1.00  0.00    -0.265 OA
HETATM    4  O2  UNL     1       1.050  -6.122  -8.302  1.00  0.00    -0.289 OA
HETATM    5  C10 UNL     1       1.613  -7.328  -7.821  1.00  0.00     0.276 C
HETATM    6  O5  UNL     1       0.663  -8.142  -7.231  1.00  0.00    -0.354 OA
HETATM    7  C19 UNL     1      -0.568  -8.075  -7.878  1.00  0.00     0.144 C
ENDROOT
BRANCH   5   8
HETATM    8  C11 UNL     1       2.729  -7.068  -6.838  1.00  0.00     0.076 C
HETATM    9  C12 UNL     1       2.582  -5.823  -6.045  1.00  0.00     0.013 C
HETATM   10  C13 UNL     1       3.336  -4.632  -6.511  1.00  0.00     0.015 C
HETATM   11  C14 UNL     1       4.746  -5.004  -6.941  1.00  0.00     0.088 C
HETATM   12  C15 UNL     1       4.552  -5.920  -8.158  1.00  0.00     0.053 C
HETATM   13  C18 UNL     1       5.361  -5.965  -5.989  1.00  0.00     0.264 C
HETATM   14  C16 UNL     1       4.093  -7.177  -7.471  1.00  0.00     0.076 C
HETATM   15  C17 UNL     1       4.247  -8.415  -8.294  1.00  0.00     0.047 C
HETATM   16  O3  UNL     1       5.028  -7.252  -6.390  1.00  0.00    -0.310 OA
HETATM   17  O4  UNL     1       6.069  -5.722  -4.980  1.00  0.00    -0.265 OA
ENDBRANCH   5   8
BRANCH   7  18
HETATM   18  C20 UNL     1      -1.366  -9.273  -7.599  1.00  0.00     0.040 C
HETATM   19  C21 UNL     1      -2.661  -8.797  -6.854  1.00  0.00     0.015 C
BRANCH  18  20
HETATM   20  C22 UNL     1      -1.875 -10.130  -8.674  1.00  0.00     0.128 C
HETATM   21  C23 UNL     1      -2.741 -11.285  -8.401  1.00  0.00     0.033 C
HETATM   22  C24 UNL     1      -3.547 -11.533  -9.687  1.00  0.00     0.009 C
HETATM   23  C25 UNL     1      -2.914 -10.922 -10.877  1.00  0.00     0.010 C
HETATM   24  C26 UNL     1      -3.156 -11.859 -12.072  1.00  0.00     0.012 C
HETATM   25  C27 UNL     1      -1.457 -10.658 -10.831  1.00  0.00     0.121 C
HETATM   26  C28 UNL     1      -0.659 -11.573 -11.748  1.00  0.00     0.040 C
HETATM   27  O6  UNL     1      -0.887 -10.571  -9.573  1.00  0.00    -0.380 OA
ENDBRANCH  18  20
ENDBRANCH   7  18
BRANCH   1  28
HETATM   28  C7  UNL     1      -2.330  -6.553  -8.766  1.00  0.00     0.044 C
BRANCH  28  29
HETATM   29  C6  UNL     1      -2.065  -7.126 -10.063  1.00  0.00    -0.030 C
HETATM   30  C5  UNL     1      -1.631  -6.479 -11.113  1.00  0.00    -0.031 C
BRANCH  30  31
HETATM   31  C4  UNL     1      -1.335  -5.036 -11.156  1.00  0.00     0.027 C
BRANCH  31  32
HETATM   32  C3  UNL     1      -0.986  -4.603 -12.577  1.00  0.00     0.003 C
BRANCH  32  33
HETATM   33  C2  UNL     1      -0.995  -3.089 -12.691  1.00  0.00    -0.004 C
HETATM   34  C1  UNL     1       0.066  -2.573 -13.617  1.00  0.00     0.005 C
ENDBRANCH  32  33
ENDBRANCH  31  32
ENDBRANCH  30  31
ENDBRANCH  28  29
ENDBRANCH   1  28
TORSDOF 8
ENDMDL