MODEL 1
REMARK VINA RESULT: -6.750724639      0.000      0.000
REMARK  11 active torsions:
REMARK  status: ('A' for Active; 'I' for Inactive)
REMARK    1  A    between atoms: C2_2  and  C3_3
REMARK    2  A    between atoms: C3_3  and  C6_6
REMARK    3  A    between atoms: C6_6  and  O1_7
REMARK    4  A    between atoms: C6_6  and  C12_15
REMARK    5  A    between atoms: O1_7  and  C7_8
REMARK    6  A    between atoms: C7_8  and  O3_10
REMARK    7  A    between atoms: O3_10  and  C8_11
REMARK    8  A    between atoms: C13_17  and  O5_18
REMARK    9  A    between atoms: C15_20  and  O6_21
REMARK   10  A    between atoms: O6_21  and  C16_22
REMARK   11  A    between atoms: C23_29  and  N1_30
ROOT
HETATM    1  C12 UNL     1      -0.997  -8.251  -8.764  1.00  0.00     0.178 C
HETATM    2  O4  UNL     1      -0.109  -9.272  -8.257  1.00  0.00    -0.349 OA
HETATM    3  C13 UNL     1       1.159  -8.585  -8.072  1.00  0.00     0.288 C
HETATM    4  C15 UNL     1       0.895  -7.382  -7.213  1.00  0.00     0.179 C
HETATM    5  C22 UNL     1      -0.462  -7.611  -6.487  1.00  0.00     0.065 C
HETATM    6  C23 UNL     1      -1.564  -7.656  -7.568  1.00  0.00     0.117 C
ENDROOT
BRANCH   1   7
HETATM    7  C6  UNL     1      -1.728  -8.656  -9.946  1.00  0.00     0.176 C
BRANCH   7   8
HETATM    8  C3  UNL     1      -1.775  -8.037 -11.257  1.00  0.00    -0.001 C
HETATM    9  C4  UNL     1      -0.674  -8.554 -12.217  1.00  0.00     0.021 C
HETATM   10  C5  UNL     1      -1.373  -6.580 -11.098  1.00  0.00     0.021 C
BRANCH   8  11
HETATM   11  C2  UNL     1      -3.066  -7.992 -11.972  1.00  0.00    -0.026 C
HETATM   12  C1  UNL     1      -3.218  -7.957 -13.288  1.00  0.00     0.008 C
ENDBRANCH   8  11
ENDBRANCH   7   8
BRANCH   7  13
HETATM   13  O1  UNL     1      -1.406 -10.047 -10.202  1.00  0.00    -0.289 OA
BRANCH  13  14
HETATM   14  C7  UNL     1      -2.369 -11.014 -10.131  1.00  0.00     0.407 C
HETATM   15  O2  UNL     1      -2.075 -12.028  -9.393  1.00  0.00    -0.229 OA
BRANCH  14  16
HETATM   16  O3  UNL     1      -3.594 -11.112 -10.704  1.00  0.00    -0.288 OA
BRANCH  16  17
HETATM   17  C8  UNL     1      -3.907 -11.746 -11.904  1.00  0.00     0.062 C
HETATM   18  C9  UNL     1      -5.116 -11.070 -12.509  1.00  0.00     0.046 C
HETATM   19  C10 UNL     1      -2.772 -11.684 -12.885  1.00  0.00     0.046 C
HETATM   20  C11 UNL     1      -4.296 -13.203 -11.727  1.00  0.00     0.046 C
ENDBRANCH  16  17
ENDBRANCH  14  16
ENDBRANCH  13  14
ENDBRANCH   7  13
ENDBRANCH   1   7
BRANCH   6  21
HETATM   21  N1  UNL     1      -2.641  -8.140  -6.857  1.00  0.00    -0.386 N
HETATM   22  C24 UNL     1      -2.335  -9.267  -6.031  1.00  0.00     0.123 C
HETATM   23  C25 UNL     1      -3.207 -10.362  -6.606  1.00  0.00     0.025 C
HETATM   24  C26 UNL     1      -4.304  -9.652  -7.380  1.00  0.00     0.046 C
HETATM   25  C27 UNL     1      -3.941  -8.197  -7.192  1.00  0.00     0.058 C
ENDBRANCH   6  21
BRANCH   3  26
HETATM   26  O5  UNL     1       1.591  -8.201  -9.303  1.00  0.00    -0.363 OA
HETATM   27  C14 UNL     1       2.676  -8.937  -9.723  1.00  0.00     0.204 C
ENDBRANCH   3  26
BRANCH   4  28
HETATM   28  O6  UNL     1       1.918  -7.097  -6.373  1.00  0.00    -0.376 OA
BRANCH  28  29
HETATM   29  C16 UNL     1       2.058  -5.809  -5.969  1.00  0.00     0.122 C
HETATM   30  C17 UNL     1       3.506  -5.580  -5.600  1.00  0.00     0.032 C
HETATM   31  C18 UNL     1       4.308  -5.367  -6.895  1.00  0.00     0.002 C
HETATM   32  C19 UNL     1       4.094  -3.929  -7.337  1.00  0.00     0.000 C
HETATM   33  C20 UNL     1       2.674  -3.584  -6.936  1.00  0.00     0.002 C
HETATM   34  C21 UNL     1       1.774  -4.825  -7.109  1.00  0.00     0.032 C
ENDBRANCH  28  29
ENDBRANCH   4  28
TORSDOF 11
ENDMDL