MODEL 3
REMARK VINA RESULT: -7.876785375      1.878      2.757
REMARK  10 active torsions:
REMARK  status: ('A' for Active; 'I' for Inactive)
REMARK    1  A    between atoms: C2_2  and  O1_4
REMARK    2  A    between atoms: O1_4  and  C4_5
REMARK    3  A    between atoms: C4_5  and  C5_7
REMARK    4  A    between atoms: C5_7  and  C6_8
REMARK    5  A    between atoms: C12_14  and  C13_15
REMARK    6  A    between atoms: C17_19  and  O3_20
REMARK    7  A    between atoms: O3_20  and  C18_21
REMARK    8  A    between atoms: C18_21  and  C19_23
REMARK    9  A    between atoms: C25_29  and  C27_31
REMARK   10  A    between atoms: C27_31  and  O6_33
ROOT
HETATM    1  C6  UNL     1      -2.970  -9.536  -7.381  1.00  0.00     0.013 C
HETATM    2  C7  UNL     1      -3.017  -8.103  -6.756  1.00  0.00     0.007 C
HETATM    3  C8  UNL     1      -1.652  -7.798  -6.292  1.00  0.00     0.010 C
HETATM    4  C9  UNL     1      -0.829  -7.514  -7.528  1.00  0.00    -0.034 C
HETATM    5  C10 UNL     1      -1.270  -6.196  -8.128  1.00  0.00     0.016 C
HETATM    6  C11 UNL     1       0.624  -7.687  -7.273  1.00  0.00     0.007 C
HETATM    7  C12 UNL     1       1.611  -6.752  -7.866  1.00  0.00     0.021 C
HETATM    8  C16 UNL     1       2.966  -7.435  -7.880  1.00  0.00     0.042 C
HETATM    9  C17 UNL     1       2.916  -8.876  -8.154  1.00  0.00     0.136 C
HETATM   10  C21 UNL     1       1.632  -9.287  -8.919  1.00  0.00     0.016 C
HETATM   11  C22 UNL     1       1.641  -8.751 -10.275  1.00  0.00     0.013 C
HETATM   12  C23 UNL     1       0.514  -9.019  -7.993  1.00  0.00     0.003 C
HETATM   13  C24 UNL     1      -0.832  -8.668  -8.487  1.00  0.00     0.017 C
HETATM   14  C25 UNL     1      -1.948  -9.641  -8.418  1.00  0.00     0.053 C
HETATM   15  C26 UNL     1      -2.582  -9.738  -9.821  1.00  0.00     0.027 C
ENDROOT
BRANCH   1  16
HETATM   16  C5  UNL     1      -4.386  -9.830  -7.629  1.00  0.00     0.117 C
BRANCH  16  17
HETATM   17  C4  UNL     1      -4.975 -11.116  -7.262  1.00  0.00     0.264 C
HETATM   18  O2  UNL     1      -4.846 -11.690  -6.175  1.00  0.00    -0.265 OA
BRANCH  17  19
HETATM   19  O1  UNL     1      -5.774 -11.818  -8.193  1.00  0.00    -0.284 OA
BRANCH  19  20
HETATM   20  C2  UNL     1      -5.308 -12.333  -9.384  1.00  0.00     0.043 C
HETATM   21  C1  UNL     1      -6.030 -12.038 -10.448  1.00  0.00     0.046 C
HETATM   22  C3  UNL     1      -4.092 -13.155  -9.507  1.00  0.00     0.076 C
ENDBRANCH  19  20
ENDBRANCH  17  19
ENDBRANCH  16  17
ENDBRANCH   1  16
BRANCH  14  23
HETATM   23  C27 UNL     1      -1.267 -10.992  -8.270  1.00  0.00     0.267 C
HETATM   24  O5  UNL     1      -1.181 -11.587  -7.176  1.00  0.00    -0.264 OA
BRANCH  23  25
HETATM   25  O6  UNL     1      -0.702 -11.633  -9.386  1.00  0.00    -0.326 OA
HETATM   26  C28 UNL     1      -0.146 -12.925  -9.325  1.00  0.00     0.213 C
ENDBRANCH  23  25
ENDBRANCH  14  23
BRANCH   7  27
HETATM   27  C13 UNL     1       1.778  -5.568  -6.986  1.00  0.00    -0.088 C
HETATM   28  C14 UNL     1       2.122  -5.712  -5.719  1.00  0.00     0.014 C
HETATM   29  C15 UNL     1       1.568  -4.168  -7.449  1.00  0.00     0.043 C
ENDBRANCH   7  27
BRANCH   9  30
HETATM   30  O3  UNL     1       4.012  -9.244  -8.968  1.00  0.00    -0.316 OA
BRANCH  30  31
HETATM   31  C18 UNL     1       5.323  -9.135  -8.529  1.00  0.00     0.258 C
HETATM   32  O4  UNL     1       5.730  -9.949  -7.677  1.00  0.00    -0.265 OA
BRANCH  31  33
HETATM   33  C19 UNL     1       6.175  -8.076  -9.087  1.00  0.00     0.106 C
HETATM   34  C20 UNL     1       5.688  -7.791 -10.507  1.00  0.00     0.015 C
ENDBRANCH  31  33
ENDBRANCH  30  31
ENDBRANCH   9  30
TORSDOF 10
ENDMDL