MODEL 5
REMARK VINA RESULT: -6.611977645      2.453      5.788
REMARK  9 active torsions:
REMARK  status: ('A' for Active; 'I' for Inactive)
REMARK    1  A    between atoms: C2_2  and  C3_3
REMARK    2  A    between atoms: C3_3  and  C4_4
REMARK    3  A    between atoms: C4_4  and  C5_5
REMARK    4  A    between atoms: C5_5  and  C6_6
REMARK    5  A    between atoms: C13_14  and  C14_15
REMARK    6  A    between atoms: C14_15  and  C16_17
REMARK    7  A    between atoms: C16_17  and  O3_19
REMARK    8  A    between atoms: O3_19  and  C17_20
REMARK    9  A    between atoms: C26_30  and  O5_32
ROOT
HETATM    1  C4  UNL     1      -1.905  -8.938  -9.663  1.00  0.00     0.128 C
HETATM    2  O1  UNL     1      -2.728  -9.960  -9.358  1.00  0.00    -0.360 OA
HETATM    3  C10 UNL     1      -2.332 -11.241  -9.222  1.00  0.00     0.070 C
HETATM    4  C11 UNL     1      -2.615 -11.908 -10.578  1.00  0.00     0.047 C
HETATM    5  C12 UNL     1      -3.182 -11.914  -8.164  1.00  0.00     0.033 C
HETATM    6  C13 UNL     1      -4.327 -12.743  -8.692  1.00  0.00     0.006 C
HETATM    7  C19 UNL     1      -3.989 -14.132  -8.196  1.00  0.00     0.007 C
HETATM    8  C20 UNL     1      -3.484 -13.824  -6.806  1.00  0.00     0.010 C
HETATM    9  C21 UNL     1      -2.477 -12.706  -7.133  1.00  0.00    -0.037 C
HETATM   10  C22 UNL     1      -2.331 -11.971  -5.791  1.00  0.00     0.015 C
HETATM   11  C23 UNL     1      -1.232 -13.404  -7.539  1.00  0.00     0.010 C
HETATM   12  C24 UNL     1      -0.517 -12.854  -8.725  1.00  0.00     0.012 C
HETATM   13  C25 UNL     1      -0.907 -11.409  -8.830  1.00  0.00     0.062 C
HETATM   14  C26 UNL     1       0.110 -10.604  -9.536  1.00  0.00     0.124 C
HETATM   15  C27 UNL     1       0.636 -11.139 -10.823  1.00  0.00     0.055 C
HETATM   16  C28 UNL     1      -0.474  -9.211  -9.658  1.00  0.00     0.195 C
HETATM   17  O6  UNL     1       0.398  -8.363  -9.751  1.00  0.00    -0.291 OA
ENDROOT
BRANCH   1  18
HETATM   18  C3  UNL     1      -2.367  -7.762  -8.836  1.00  0.00     0.046 C
BRANCH  18  19
HETATM   19  C2  UNL     1      -2.806  -7.966  -7.459  1.00  0.00    -0.001 C
HETATM   20  C1  UNL     1      -1.745  -8.303  -6.441  1.00  0.00     0.005 C
ENDBRANCH  18  19
ENDBRANCH   1  18
BRANCH   1  21
HETATM   21  C5  UNL     1      -2.357  -8.503 -11.093  1.00  0.00     0.073 C
BRANCH  21  22
HETATM   22  C6  UNL     1      -2.149  -7.080 -11.349  1.00  0.00    -0.021 C
HETATM   23  C7  UNL     1      -1.307  -6.589 -12.250  1.00  0.00    -0.091 C
HETATM   24  C8  UNL     1      -0.467  -7.465 -13.116  1.00  0.00     0.042 C
HETATM   25  C9  UNL     1      -1.197  -5.120 -12.405  1.00  0.00     0.042 C
ENDBRANCH  21  22
ENDBRANCH   1  21
BRANCH  14  26
HETATM   26  O5  UNL     1       1.253 -10.563  -8.691  1.00  0.00    -0.382 OA
ATOM     27  H5  UNL     1       1.178 -11.302  -8.098  1.00  0.00     0.211 HD
ENDBRANCH  14  26
BRANCH   6  28
HETATM   28  C14 UNL     1      -5.646 -12.351  -8.090  1.00  0.00     0.086 C
HETATM   29  C15 UNL     1      -5.556 -10.989  -7.403  1.00  0.00     0.021 C
BRANCH  28  30
HETATM   30  C16 UNL     1      -6.657 -12.204  -9.160  1.00  0.00     0.270 C
HETATM   31  O2  UNL     1      -7.582 -13.091  -9.215  1.00  0.00    -0.264 OA
BRANCH  30  32
HETATM   32  O3  UNL     1      -6.718 -11.218 -10.105  1.00  0.00    -0.245 OA
BRANCH  32  33
HETATM   33  C17 UNL     1      -6.955 -11.439 -11.451  1.00  0.00     0.262 C
HETATM   34  C18 UNL     1      -5.974 -12.222 -12.222  1.00  0.00     0.126 C
HETATM   35  O4  UNL     1      -8.003 -10.955 -11.941  1.00  0.00    -0.265 OA
ENDBRANCH  32  33
ENDBRANCH  30  32
ENDBRANCH  28  30
ENDBRANCH   6  28
TORSDOF 9
ENDMDL