MODEL 3
REMARK VINA RESULT: -7.111442624      1.217      1.449
REMARK  10 active torsions:
REMARK  status: ('A' for Active; 'I' for Inactive)
REMARK    1  A    between atoms: C2_2  and  O1_4
REMARK    2  A    between atoms: O1_4  and  C4_5
REMARK    3  A    between atoms: C4_5  and  C5_6
REMARK    4  A    between atoms: C8_10  and  O3_11
REMARK    5  A    between atoms: O3_11  and  C9_12
REMARK    6  A    between atoms: C14_18  and  C15_19
REMARK    7  A    between atoms: C15_19  and  O5_21
REMARK    8  A    between atoms: O5_21  and  C17_22
REMARK    9  A    between atoms: C24_30  and  O7_31
REMARK   10  A    between atoms: O7_31  and  C25_32
ROOT
HETATM    1  C5  UNL     1       0.819  -7.314  -7.020  1.00  0.00     0.176 C
HETATM    2  O2  UNL     1      -0.409  -7.889  -6.786  1.00  0.00    -0.367 OA
HETATM    3  C6  UNL     1      -0.961  -8.223  -8.016  1.00  0.00     0.091 C
HETATM    4  C7  UNL     1      -1.763  -7.117  -8.508  1.00  0.00     0.049 C
HETATM    5  C8  UNL     1      -1.886  -9.438  -7.881  1.00  0.00     0.166 C
HETATM    6  C11 UNL     1      -2.284  -9.836  -9.284  1.00  0.00     0.041 C
HETATM    7  C12 UNL     1      -1.118 -10.151 -10.150  1.00  0.00    -0.003 C
HETATM    8  C13 UNL     1      -1.583 -10.535 -11.504  1.00  0.00     0.012 C
HETATM    9  C14 UNL     1      -1.681  -9.468 -12.524  1.00  0.00     0.015 C
HETATM   10  C19 UNL     1      -1.269  -8.105 -12.031  1.00  0.00     0.008 C
HETATM   11  C20 UNL     1      -0.016  -8.135 -11.205  1.00  0.00     0.010 C
HETATM   12  C21 UNL     1       0.025  -9.171 -10.138  1.00  0.00    -0.031 C
HETATM   13  C22 UNL     1       1.242 -10.063 -10.472  1.00  0.00     0.016 C
HETATM   14  C23 UNL     1       0.232  -8.719  -8.747  1.00  0.00     0.062 C
HETATM   15  C24 UNL     1       1.319  -7.816  -8.384  1.00  0.00     0.161 C
ENDROOT
BRANCH   9  16
HETATM   16  C15 UNL     1      -3.087  -9.313 -13.091  1.00  0.00     0.132 C
HETATM   17  C16 UNL     1      -3.575  -7.888 -12.944  1.00  0.00     0.040 C
BRANCH  16  18
HETATM   18  O5  UNL     1      -3.916 -10.168 -12.320  1.00  0.00    -0.316 OA
BRANCH  18  19
HETATM   19  C17 UNL     1      -5.074 -10.754 -12.805  1.00  0.00     0.255 C
HETATM   20  C18 UNL     1      -5.035 -11.767 -13.909  1.00  0.00     0.126 C
HETATM   21  O6  UNL     1      -6.168 -10.436 -12.314  1.00  0.00    -0.266 OA
ENDBRANCH  18  19
ENDBRANCH  16  18
ENDBRANCH   9  16
BRANCH   5  22
HETATM   22  O3  UNL     1      -3.031  -9.165  -7.134  1.00  0.00    -0.313 OA
BRANCH  22  23
HETATM   23  C9  UNL     1      -3.994 -10.165  -7.030  1.00  0.00     0.255 C
HETATM   24  C10 UNL     1      -3.673 -11.403  -6.278  1.00  0.00     0.126 C
HETATM   25  O4  UNL     1      -5.135 -10.074  -7.547  1.00  0.00    -0.266 OA
ENDBRANCH  22  23
ENDBRANCH   5  22
BRANCH  15  26
HETATM   26  O7  UNL     1       2.500  -8.444  -8.301  1.00  0.00    -0.378 OA
BRANCH  26  27
HETATM   27  C25 UNL     1       3.690  -7.861  -8.517  1.00  0.00     0.114 C
HETATM   28  C26 UNL     1       4.568  -7.820  -7.253  1.00  0.00     0.039 C
HETATM   29  C27 UNL     1       4.558  -8.317  -9.643  1.00  0.00     0.039 C
ENDBRANCH  26  27
ENDBRANCH  15  26
BRANCH   1  30
HETATM   30  C4  UNL     1       0.718  -5.838  -6.905  1.00  0.00     0.209 C
BRANCH  30  31
HETATM   31  O1  UNL     1       1.842  -5.200  -6.332  1.00  0.00    -0.354 OA
BRANCH  31  32
HETATM   32  C2  UNL     1       2.424  -4.103  -6.935  1.00  0.00     0.033 C
HETATM   33  C1  UNL     1       1.702  -3.023  -7.128  1.00  0.00     0.045 C
HETATM   34  C3  UNL     1       3.836  -4.120  -7.362  1.00  0.00     0.075 C
ENDBRANCH  31  32
ENDBRANCH  30  31
ENDBRANCH   1  30
TORSDOF 10
ENDMDL