MODEL 5
REMARK VINA RESULT: -8.258388314      2.475      5.082
REMARK  8 active torsions:
REMARK  status: ('A' for Active; 'I' for Inactive)
REMARK    1  A    between atoms: C8_10  and  C10_12
REMARK    2  A    between atoms: C15_19  and  C16_20
REMARK    3  A    between atoms: C16_20  and  C17_21
REMARK    4  A    between atoms: C17_21  and  C18_22
REMARK    5  A    between atoms: C18_22  and  C19_23
REMARK    6  A    between atoms: C19_23  and  C20_24
REMARK    7  A    between atoms: C20_24  and  O6_26
REMARK    8  A    between atoms: O6_26  and  C21_27
ROOT
HETATM    1  C1  UNL     1      -1.489  -5.957 -12.499  1.00  0.00     0.025 C
HETATM    2  C2  UNL     1      -1.315  -6.997 -11.704  1.00  0.00     0.014 C
HETATM    3  C3  UNL     1      -1.311  -6.968 -10.229  1.00  0.00     0.289 C
HETATM    4  O1  UNL     1      -1.463  -5.940  -9.515  1.00  0.00    -0.260 OA
HETATM    5  O2  UNL     1      -1.107  -8.297  -9.810  1.00  0.00    -0.311 OA
HETATM    6  C4  UNL     1      -0.366  -8.911 -10.812  1.00  0.00     0.145 C
HETATM    7  C5  UNL     1      -1.087  -8.412 -12.087  1.00  0.00     0.054 C
HETATM    8  C6  UNL     1      -2.401  -9.102 -12.241  1.00  0.00     0.013 C
HETATM    9  C7  UNL     1      -2.093 -10.578 -12.408  1.00  0.00     0.011 C
HETATM   10  C8  UNL     1      -1.541 -11.099 -11.107  1.00  0.00    -0.028 C
HETATM   11  C9  UNL     1      -2.576 -10.952 -10.014  1.00  0.00     0.016 C
HETATM   12  C15 UNL     1      -0.242 -10.374 -10.790  1.00  0.00     0.025 C
ENDROOT
BRANCH  12  13
HETATM   13  C16 UNL     1       0.369 -10.957  -9.578  1.00  0.00     0.008 C
BRANCH  13  14
HETATM   14  C17 UNL     1       1.620 -11.727  -9.624  1.00  0.00     0.001 C
BRANCH  14  15
HETATM   15  C18 UNL     1       2.777 -11.324  -8.833  1.00  0.00     0.010 C
BRANCH  15  16
HETATM   16  C19 UNL     1       2.919  -9.794  -8.840  1.00  0.00     0.111 C
BRANCH  16  17
HETATM   17  C20 UNL     1       4.124  -9.348  -8.113  1.00  0.00     0.259 C
HETATM   18  O5  UNL     1       5.143 -10.103  -8.110  1.00  0.00    -0.265 OA
BRANCH  17  19
HETATM   19  O6  UNL     1       4.182  -8.144  -7.438  1.00  0.00    -0.316 OA
BRANCH  19  20
HETATM   20  C21 UNL     1       3.860  -6.944  -8.097  1.00  0.00     0.132 C
HETATM   21  C22 UNL     1       4.966  -5.930  -8.062  1.00  0.00     0.035 C
HETATM   22  C23 UNL     1       5.283  -5.317  -6.750  1.00  0.00     0.037 C
HETATM   23  C24 UNL     1       4.539  -5.797  -5.585  1.00  0.00     0.157 A
HETATM   24  O7  UNL     1       3.906  -5.115  -4.618  1.00  0.00    -0.370 OA
HETATM   25  C25 UNL     1       3.143  -5.162  -5.720  1.00  0.00     0.084 A
HETATM   26  C26 UNL     1       3.030  -3.855  -6.456  1.00  0.00     0.049 C
HETATM   27  C27 UNL     1       2.302  -6.265  -6.218  1.00  0.00     0.043 C
HETATM   28  C28 UNL     1       2.516  -6.404  -7.696  1.00  0.00     0.035 C
ENDBRANCH  19  20
ENDBRANCH  17  19
ENDBRANCH  16  17
ENDBRANCH  15  16
ENDBRANCH  14  15
ENDBRANCH  13  14
ENDBRANCH  12  13
BRANCH  10  29
HETATM   29  C10 UNL     1      -1.314 -12.573 -11.293  1.00  0.00     0.057 C
HETATM   30  C11 UNL     1      -2.690 -13.260 -11.247  1.00  0.00     0.189 C
HETATM   31  O3  UNL     1      -3.035 -13.640 -12.534  1.00  0.00    -0.317 OA
HETATM   32  C12 UNL     1      -2.012 -13.324 -13.401  1.00  0.00     0.289 C
HETATM   33  O4  UNL     1      -2.115 -13.333 -14.653  1.00  0.00    -0.260 OA
HETATM   34  C13 UNL     1      -0.819 -12.990 -12.596  1.00  0.00     0.015 C
HETATM   35  C14 UNL     1       0.409 -13.096 -13.062  1.00  0.00     0.025 C
ENDBRANCH  10  29
TORSDOF 8
ENDMDL