MODEL 3
REMARK VINA RESULT: -6.095608102      1.941      3.543
REMARK  15 active torsions:
REMARK  status: ('A' for Active; 'I' for Inactive)
REMARK    1  A    between atoms: C2_2  and  C3_3
REMARK    2  A    between atoms: C4_5  and  C6_7
REMARK    3  A    between atoms: C6_7  and  C7_8
REMARK    4  A    between atoms: C7_8  and  C8_9
REMARK    5  A    between atoms: C8_9  and  O2_10
REMARK    6  A    between atoms: C8_9  and  C9_12
REMARK    7  A    between atoms: C15_18  and  O3_19
REMARK    8  A    between atoms: C15_18  and  C16_21
REMARK    9  A    between atoms: C17_22  and  C18_23
REMARK   10  A    between atoms: C18_23  and  C20_25
REMARK   11  A    between atoms: C20_25  and  C22_27
REMARK   12  A    between atoms: C24_29  and  C25_30
REMARK   13  A    between atoms: C25_30  and  C27_32
REMARK   14  A    between atoms: C27_32  and  C28_33
REMARK   15  A    between atoms: C31_38  and  C32_39
ROOT
HETATM    1  C3  UNL     1       8.481  35.533  -1.782  1.00  0.00     0.119 C
HETATM    2  O1  UNL     1       9.622  36.182  -2.259  1.00  0.00    -0.361 OA
HETATM    3  C4  UNL     1      10.417  35.816  -1.138  1.00  0.00     0.066 C
HETATM    4  C5  UNL     1      11.442  34.828  -1.603  1.00  0.00     0.046 C
HETATM    5  C12 UNL     1       9.153  35.382  -0.522  1.00  0.00     0.061 C
HETATM    6  C13 UNL     1       9.163  34.154   0.282  1.00  0.00     0.014 C
HETATM    7  C14 UNL     1       9.580  32.868  -0.258  1.00  0.00     0.043 C
HETATM    8  C15 UNL     1       8.758  31.639   0.230  1.00  0.00     0.088 C
HETATM    9  C24 UNL     1       7.432  31.520  -0.344  1.00  0.00     0.127 C
HETATM   10  C30 UNL     1       6.834  32.806  -0.895  1.00  0.00     0.267 C
HETATM   11  O4  UNL     1       5.784  33.191  -0.258  1.00  0.00    -0.265 OA
HETATM   12  O5  UNL     1       7.451  33.323  -1.911  1.00  0.00    -0.304 OA
HETATM   13  C31 UNL     1       8.005  34.358  -2.563  1.00  0.00     0.239 C
ENDROOT
BRANCH   8  14
HETATM   14  O3  UNL     1       9.599  30.567  -0.131  1.00  0.00    -0.385 OA
ATOM     15  H3  UNL     1      10.240  30.576   0.570  1.00  0.00     0.211 HD
ENDBRANCH   8  14
BRANCH   8  16
HETATM   16  C16 UNL     1       8.761  31.690   1.718  1.00  0.00     0.008 C
HETATM   17  C17 UNL     1       9.497  31.069   2.580  1.00  0.00    -0.019 C
BRANCH  17  18
HETATM   18  C18 UNL     1      10.581  30.101   2.439  1.00  0.00     0.032 C
HETATM   19  C19 UNL     1      10.138  28.685   2.793  1.00  0.00     0.018 C
BRANCH  18  20
HETATM   20  C20 UNL     1      11.685  30.394   3.444  1.00  0.00    -0.082 C
HETATM   21  C21 UNL     1      12.082  29.466   4.293  1.00  0.00     0.015 C
BRANCH  20  22
HETATM   22  C22 UNL     1      12.282  31.735   3.431  1.00  0.00     0.029 C
HETATM   23  C23 UNL     1      12.795  32.108   4.799  1.00  0.00     0.010 C
ENDBRANCH  20  22
ENDBRANCH  18  20
ENDBRANCH  17  18
ENDBRANCH   8  16
BRANCH   9  24
HETATM   24  C25 UNL     1       7.165  30.527  -1.450  1.00  0.00    -0.002 C
HETATM   25  C26 UNL     1       5.638  30.734  -1.707  1.00  0.00     0.011 C
BRANCH  24  26
HETATM   26  C27 UNL     1       7.350  29.094  -1.117  1.00  0.00     0.005 C
BRANCH  26  27
HETATM   27  C28 UNL     1       6.642  28.150  -2.106  1.00  0.00    -0.004 C
HETATM   28  C29 UNL     1       6.457  26.842  -1.313  1.00  0.00     0.005 C
ENDBRANCH  26  27
ENDBRANCH  24  26
ENDBRANCH   9  24
BRANCH   1  29
HETATM   29  C2  UNL     1       7.391  36.562  -1.765  1.00  0.00     0.004 C
HETATM   30  C1  UNL     1       6.767  36.987  -0.695  1.00  0.00     0.010 C
ENDBRANCH   1  29
BRANCH   3  31
HETATM   31  C6  UNL     1      11.082  37.079  -0.619  1.00  0.00     0.041 C
BRANCH  31  32
HETATM   32  C7  UNL     1      12.481  36.957  -0.257  1.00  0.00     0.035 C
BRANCH  32  33
HETATM   33  C8  UNL     1      12.777  36.784   1.178  1.00  0.00     0.121 C
BRANCH  33  34
HETATM   34  O2  UNL     1      13.582  37.853   1.669  1.00  0.00    -0.395 OA
ATOM     35  H2  UNL     1      13.446  37.984   2.600  1.00  0.00     0.210 HD
ENDBRANCH  33  34
BRANCH  33  36
HETATM   36  C9  UNL     1      13.424  35.546   1.659  1.00  0.00     0.006 C
HETATM   37  C10 UNL     1      13.207  35.511   3.196  1.00  0.00     0.012 C
HETATM   38  C11 UNL     1      12.875  34.244   1.180  1.00  0.00     0.012 C
ENDBRANCH  33  36
ENDBRANCH  32  33
ENDBRANCH  31  32
ENDBRANCH   3  31
BRANCH  13  39
HETATM   39  C32 UNL     1       7.063  34.742  -3.651  1.00  0.00     0.155 C
HETATM   40  C33 UNL     1       5.593  34.530  -3.613  1.00  0.00     0.094 C
HETATM   41  O6  UNL     1       7.508  35.267  -4.643  1.00  0.00    -0.295 OA
ENDBRANCH  13  39
TORSDOF 15
ENDMDL