MODEL 5
REMARK VINA RESULT: -7.901664501      1.801      2.380
REMARK  15 active torsions:
REMARK  status: ('A' for Active; 'I' for Inactive)
REMARK    1  A    between atoms: C2_2  and  C3_3
REMARK    2  A    between atoms: C2_2  and  C23_27
REMARK    3  A    between atoms: C3_3  and  C4_4
REMARK    4  A    between atoms: C4_4  and  C5_5
REMARK    5  A    between atoms: C17_17  and  C19_19
REMARK    6  A    between atoms: C19_19  and  O1_21
REMARK    7  A    between atoms: C23_27  and  C25_29
REMARK    8  A    between atoms: C25_29  and  C26_30
REMARK    9  A    between atoms: C26_30  and  C27_31
REMARK   10  A    between atoms: C28_32  and  C29_33
REMARK   11  A    between atoms: C28_32  and  C30_36
REMARK   12  A    between atoms: C29_33  and  O3_34
REMARK   13  A    between atoms: C30_36  and  C31_37
REMARK   14  A    between atoms: C31_37  and  C32_38
REMARK   15  A    between atoms: C32_38  and  O5_40
ROOT
HETATM    1  C19 UNL     1       8.414  37.715  -1.306  1.00  0.00     0.150 C
HETATM    2  C20 UNL     1       7.007  37.496  -1.698  1.00  0.00     0.063 C
HETATM    3  C21 UNL     1       9.073  38.743  -2.154  1.00  0.00     0.098 C
HETATM    4  N1  UNL     1       9.594  39.536  -2.815  1.00  0.00    -0.194 NA
ENDROOT
BRANCH   1   5
HETATM    5  C17 UNL     1       9.325  36.573  -1.219  1.00  0.00     0.004 C
HETATM    6  C13 UNL     1       8.822  35.269  -0.716  1.00  0.00     0.006 C
HETATM    7  C12 UNL     1       8.109  35.239   0.570  1.00  0.00     0.035 C
HETATM    8  C14 UNL     1      10.145  34.523  -0.569  1.00  0.00     0.005 C
HETATM    9  C11 UNL     1       7.855  33.843   0.960  1.00  0.00     0.007 C
HETATM   10  C10 UNL     1       8.722  32.909   0.665  1.00  0.00     0.051 C
HETATM   11  C8  UNL     1       9.995  33.150  -0.062  1.00  0.00     0.009 C
HETATM   12  O2  UNL     1       8.357  31.615   1.098  1.00  0.00    -0.351 OA
HETATM   13  C7  UNL     1      11.119  32.633   0.761  1.00  0.00     0.021 C
HETATM   14  C9  UNL     1       9.892  32.246  -1.311  1.00  0.00     0.023 C
HETATM   15  C6  UNL     1      10.880  32.280   2.165  1.00  0.00     0.037 C
HETATM   16  C5  UNL     1      10.145  31.030   2.502  1.00  0.00    -0.056 C
HETATM   17  C22 UNL     1       9.271  30.534   1.371  1.00  0.00     0.209 C
HETATM   18  C15 UNL     1      10.944  35.481   0.241  1.00  0.00     0.007 C
HETATM   19  C16 UNL     1      10.578  36.827  -0.406  1.00  0.00     0.014 C
HETATM   20  C18 UNL     1       9.819  36.301  -2.654  1.00  0.00     0.020 C
BRANCH  16  21
HETATM   21  C4  UNL     1      10.850  30.009   3.298  1.00  0.00     0.005 C
BRANCH  21  22
HETATM   22  C3  UNL     1      12.222  30.167   3.743  1.00  0.00     0.007 C
BRANCH  22  23
HETATM   23  C2  UNL     1      12.559  30.557   5.112  1.00  0.00    -0.064 C
HETATM   24  C1  UNL     1      12.434  31.856   5.414  1.00  0.00     0.019 C
BRANCH  23  25
HETATM   25  C23 UNL     1      12.945  29.678   6.228  1.00  0.00     0.014 C
HETATM   26  C24 UNL     1      13.133  28.261   5.673  1.00  0.00     0.015 C
BRANCH  25  27
HETATM   27  C25 UNL     1      14.087  30.080   7.079  1.00  0.00     0.012 C
BRANCH  27  28
HETATM   28  C26 UNL     1      13.467  30.660   8.365  1.00  0.00     0.028 C
BRANCH  28  29
HETATM   29  C27 UNL     1      12.295  29.870   8.786  1.00  0.00    -0.022 C
HETATM   30  C28 UNL     1      11.664  30.099   9.892  1.00  0.00    -0.060 C
BRANCH  30  31
HETATM   31  C29 UNL     1      10.472  29.238  10.245  1.00  0.00     0.198 C
BRANCH  31  32
HETATM   32  O3  UNL     1       9.281  29.827   9.842  1.00  0.00    -0.397 OA
ATOM     33  H3  UNL     1       8.627  29.174   9.621  1.00  0.00     0.209 HD
ENDBRANCH  31  32
ENDBRANCH  30  31
BRANCH  30  34
HETATM   34  C30 UNL     1      11.997  31.167  10.839  1.00  0.00     0.046 C
BRANCH  34  35
HETATM   35  C31 UNL     1      11.358  30.895  12.209  1.00  0.00     0.115 C
BRANCH  35  36
HETATM   36  C32 UNL     1      10.397  32.003  12.522  1.00  0.00     0.258 C
HETATM   37  O4  UNL     1      10.430  32.639  13.590  1.00  0.00    -0.265 OA
BRANCH  36  38
HETATM   38  O5  UNL     1       9.453  32.295  11.548  1.00  0.00    -0.326 OA
HETATM   39  C33 UNL     1       8.541  33.358  11.716  1.00  0.00     0.213 C
ENDBRANCH  36  38
ENDBRANCH  35  36
ENDBRANCH  34  35
ENDBRANCH  30  34
ENDBRANCH  28  29
ENDBRANCH  27  28
ENDBRANCH  25  27
ENDBRANCH  23  25
ENDBRANCH  22  23
ENDBRANCH  21  22
ENDBRANCH  16  21
ENDBRANCH   1   5
BRANCH   1  40
HETATM   40  O1  UNL     1       8.387  38.311  -0.017  1.00  0.00    -0.375 OA
ATOM     41  H1  UNL     1       7.700  38.967  -0.035  1.00  0.00     0.211 HD
ENDBRANCH   1  40
TORSDOF 15
ENDMDL