MODEL 5
REMARK VINA RESULT: -7.235257126      9.643     13.110
REMARK  18 active torsions:
REMARK  status: ('A' for Active; 'I' for Inactive)
REMARK    1  A    between atoms: C2_2  and  C4_4
REMARK    2  A    between atoms: C4_4  and  C5_5
REMARK    3  A    between atoms: C5_5  and  C6_6
REMARK    4  A    between atoms: C7_7  and  C9_9
REMARK    5  A    between atoms: C9_9  and  C10_10
REMARK    6  A    between atoms: C10_10  and  C11_11
REMARK    7  A    between atoms: C11_11  and  C12_12
REMARK    8  A    between atoms: C18_18  and  O1_19
REMARK    9  A    between atoms: C19_21  and  O2_22
REMARK   10  A    between atoms: C19_21  and  C20_24
REMARK   11  A    between atoms: C20_24  and  O3_25
REMARK   12  A    between atoms: O3_25  and  C21_26
REMARK   13  A    between atoms: C21_26  and  C22_28
REMARK   14  A    between atoms: C22_28  and  C24_30
REMARK   15  A    between atoms: C27_33  and  O5_34
REMARK   16  A    between atoms: O5_34  and  C28_35
REMARK   17  A    between atoms: C28_35  and  C29_37
REMARK   18  A    between atoms: C29_37  and  C31_39
ROOT
HETATM    1  C12 UNL     1       7.607  33.976  -0.174  1.00  0.00     0.016 C
HETATM    2  C13 UNL     1       7.913  34.983   0.912  1.00  0.00     0.017 C
HETATM    3  C14 UNL     1       8.791  36.107   0.520  1.00  0.00     0.006 C
HETATM    4  C15 UNL     1       9.519  36.069  -0.754  1.00  0.00     0.036 C
HETATM    5  C16 UNL     1       9.558  34.765  -1.450  1.00  0.00    -0.051 C
HETATM    6  C17 UNL     1      10.156  34.706  -2.643  1.00  0.00     0.017 C
HETATM    7  C18 UNL     1       8.915  33.551  -0.857  1.00  0.00     0.127 C
HETATM    8  C19 UNL     1       9.775  32.603  -0.171  1.00  0.00     0.142 C
HETATM    9  C27 UNL     1       8.987  31.430   0.367  1.00  0.00     0.171 C
HETATM   10  C33 UNL     1       7.518  31.470   0.104  1.00  0.00     0.037 C
HETATM   11  C34 UNL     1       6.963  32.807   0.447  1.00  0.00     0.020 C
ENDROOT
BRANCH   1  12
HETATM   12  C11 UNL     1       6.795  34.546  -1.281  1.00  0.00    -0.014 C
BRANCH  12  13
HETATM   13  C10 UNL     1       5.352  34.484  -1.316  1.00  0.00    -0.003 C
BRANCH  13  14
HETATM   14  C9  UNL     1       4.628  35.348  -0.621  1.00  0.00     0.007 C
BRANCH  14  15
HETATM   15  C7  UNL     1       3.900  35.096   0.582  1.00  0.00    -0.055 C
HETATM   16  C6  UNL     1       4.438  35.540   1.726  1.00  0.00     0.062 C
HETATM   17  C8  UNL     1       2.574  34.495   0.515  1.00  0.00     0.049 C
BRANCH  16  18
HETATM   18  C5  UNL     1       3.892  35.532   3.011  1.00  0.00    -0.127 C
BRANCH  18  19
HETATM   19  C4  UNL     1       3.403  35.512   4.145  1.00  0.00     0.061 C
BRANCH  19  20
HETATM   20  C2  UNL     1       2.120  34.973   4.672  1.00  0.00    -0.064 C
HETATM   21  C1  UNL     1       1.135  35.774   4.699  1.00  0.00     0.019 C
HETATM   22  C3  UNL     1       1.966  33.569   5.052  1.00  0.00     0.048 C
ENDBRANCH  19  20
ENDBRANCH  18  19
ENDBRANCH  16  18
ENDBRANCH  14  15
ENDBRANCH  13  14
ENDBRANCH  12  13
ENDBRANCH   1  12
BRANCH   7  23
HETATM   23  O1  UNL     1       8.447  32.843  -2.004  1.00  0.00    -0.381 OA
ATOM     24  H1  UNL     1       9.185  32.907  -2.600  1.00  0.00     0.211 HD
ENDBRANCH   7  23
BRANCH   8  25
HETATM   25  O2  UNL     1      10.604  32.050  -1.206  1.00  0.00    -0.381 OA
ATOM     26  H2  UNL     1       9.993  31.747  -1.868  1.00  0.00     0.211 HD
ENDBRANCH   8  25
BRANCH   8  27
HETATM   27  C20 UNL     1      10.773  33.073   0.833  1.00  0.00     0.222 C
BRANCH  27  28
HETATM   28  O3  UNL     1      10.724  32.340   2.044  1.00  0.00    -0.318 OA
BRANCH  28  29
HETATM   29  C21 UNL     1      11.883  31.930   2.688  1.00  0.00     0.263 C
HETATM   30  O4  UNL     1      12.454  30.945   2.175  1.00  0.00    -0.265 OA
BRANCH  29  31
HETATM   31  C22 UNL     1      12.423  32.567   3.889  1.00  0.00     0.085 C
HETATM   32  C23 UNL     1      12.725  31.473   4.921  1.00  0.00     0.021 C
BRANCH  31  33
HETATM   33  C24 UNL     1      13.586  33.473   3.733  1.00  0.00    -0.010 C
HETATM   34  C25 UNL     1      13.206  34.846   3.299  1.00  0.00     0.010 C
HETATM   35  C26 UNL     1      14.339  33.532   5.049  1.00  0.00     0.010 C
ENDBRANCH  31  33
ENDBRANCH  29  31
ENDBRANCH  28  29
ENDBRANCH  27  28
ENDBRANCH   8  27
BRANCH   9  36
HETATM   36  O5  UNL     1       9.510  30.214  -0.089  1.00  0.00    -0.312 OA
BRANCH  36  37
HETATM   37  C28 UNL     1       9.460  29.043   0.641  1.00  0.00     0.263 C
HETATM   38  O6  UNL     1       9.761  29.082   1.883  1.00  0.00    -0.265 OA
BRANCH  37  39
HETATM   39  C29 UNL     1       9.066  27.767  -0.008  1.00  0.00     0.081 C
HETATM   40  C30 UNL     1       8.670  26.735   1.044  1.00  0.00     0.020 C
BRANCH  39  41
HETATM   41  C31 UNL     1       8.021  27.933  -1.043  1.00  0.00     0.010 C
HETATM   42  C32 UNL     1       6.860  26.980  -0.965  1.00  0.00     0.006 C
ENDBRANCH  39  41
ENDBRANCH  37  39
ENDBRANCH  36  37
ENDBRANCH   9  36
TORSDOF 18
ENDMDL