MODEL 3
REMARK VINA RESULT: -8.244253649      2.066      3.786
REMARK  15 active torsions:
REMARK  status: ('A' for Active; 'I' for Inactive)
REMARK    1  A    between atoms: C2_2  and  C3_3
REMARK    2  A    between atoms: C2_2  and  C17_26
REMARK    3  A    between atoms: C3_3  and  C4_4
REMARK    4  A    between atoms: C4_4  and  C5_5
REMARK    5  A    between atoms: C5_5  and  C6_6
REMARK    6  A    between atoms: C6_6  and  N1_8
REMARK       I    between atoms: N1_8  and  C8_9
REMARK    7  A    between atoms: N1_8  and  C14_23
REMARK    8  A    between atoms: C8_9  and  O2_11
REMARK    9  A    between atoms: O2_11  and  C9_12
REMARK   10  A    between atoms: C11_16  and  C12_17
REMARK   11  A    between atoms: C12_17  and  O5_18
REMARK   12  A    between atoms: C13_20  and  O6_21
REMARK   13  A    between atoms: C17_26  and  C19_28
REMARK   14  A    between atoms: C19_28  and  C20_29
REMARK   15  A    between atoms: C20_29  and  C21_30
ROOT
HETATM    1  C6  UNL     1      13.876  31.313   7.940  1.00  0.00     0.085 C
HETATM    2  C7  UNL     1      15.331  31.451   7.592  1.00  0.00     0.032 C
ENDROOT
BRANCH   1   3
HETATM    3  C5  UNL     1      13.635  30.764   9.305  1.00  0.00     0.025 C
BRANCH   3   4
HETATM    4  C4  UNL     1      12.896  31.673  10.247  1.00  0.00     0.002 C
BRANCH   4   5
HETATM    5  C3  UNL     1      11.546  31.166  10.638  1.00  0.00     0.005 C
BRANCH   5   6
HETATM    6  C2  UNL     1      11.338  31.430  12.139  1.00  0.00    -0.015 C
HETATM    7  C1  UNL     1      12.591  31.953  12.737  1.00  0.00     0.010 C
BRANCH   6   8
HETATM    8  C17 UNL     1      10.155  32.361  12.234  1.00  0.00    -0.015 C
HETATM    9  C18 UNL     1       9.267  31.917  13.343  1.00  0.00     0.010 C
BRANCH   8  10
HETATM   10  C19 UNL     1      10.523  33.796  12.338  1.00  0.00     0.005 C
BRANCH  10  11
HETATM   11  C20 UNL     1       9.596  34.814  11.847  1.00  0.00     0.006 C
BRANCH  11  12
HETATM   12  C21 UNL     1       8.575  35.489  12.646  1.00  0.00    -0.003 C
HETATM   13  C22 UNL     1       8.726  36.998  12.293  1.00  0.00    -0.014 C
HETATM   14  C23 UNL     1      10.169  37.445  12.534  1.00  0.00     0.010 C
HETATM   15  C24 UNL     1       8.411  37.288  10.867  1.00  0.00     0.005 C
HETATM   16  C25 UNL     1       7.046  36.724  10.474  1.00  0.00     0.001 C
HETATM   17  C26 UNL     1       6.393  36.342  11.760  1.00  0.00     0.009 C
HETATM   18  C27 UNL     1       7.141  35.180  12.453  1.00  0.00    -0.044 C
HETATM   19  C28 UNL     1       6.394  35.082  13.806  1.00  0.00     0.015 C
HETATM   20  C29 UNL     1       6.770  33.966  11.677  1.00  0.00     0.015 C
ENDBRANCH  11  12
ENDBRANCH  10  11
ENDBRANCH   8  10
ENDBRANCH   6   8
ENDBRANCH   5   6
ENDBRANCH   4   5
ENDBRANCH   3   4
ENDBRANCH   1   3
BRANCH   1  21
HETATM   21  N1  UNL     1      13.084  30.644   6.967  1.00  0.00    -0.320 N
HETATM   22  C8  UNL     1      12.510  31.478   5.924  1.00  0.00     0.364 C
HETATM   23  O1  UNL     1      12.687  32.707   5.865  1.00  0.00    -0.238 OA
BRANCH  22  24
HETATM   24  O2  UNL     1      11.724  30.906   4.935  1.00  0.00    -0.286 OA
BRANCH  24  25
HETATM   25  C9  UNL     1      12.127  30.710   3.611  1.00  0.00     0.264 C
HETATM   26  C10 UNL     1      11.583  31.851   2.811  1.00  0.00     0.291 C
HETATM   27  O3  UNL     1      12.106  32.972   2.578  1.00  0.00    -0.262 OA
HETATM   28  O4  UNL     1      10.338  31.469   2.333  1.00  0.00    -0.309 OA
HETATM   29  C11 UNL     1       9.993  30.175   2.791  1.00  0.00     0.187 C
HETATM   30  C13 UNL     1      11.352  29.551   3.023  1.00  0.00     0.189 C
BRANCH  29  31
HETATM   31  C12 UNL     1       9.204  29.408   1.750  1.00  0.00     0.199 C
BRANCH  31  32
HETATM   32  O5  UNL     1       8.675  28.280   2.403  1.00  0.00    -0.398 OA
ATOM     33  H5  UNL     1       9.255  27.556   2.199  1.00  0.00     0.209 HD
ENDBRANCH  31  32
ENDBRANCH  29  31
BRANCH  30  34
HETATM   34  O6  UNL     1      11.294  28.464   3.893  1.00  0.00    -0.390 OA
ATOM     35  H6  UNL     1      10.700  28.617   4.619  1.00  0.00     0.210 HD
ENDBRANCH  30  34
ENDBRANCH  24  25
ENDBRANCH  22  24
BRANCH  21  36
HETATM   36  C14 UNL     1      12.817  29.223   6.904  1.00  0.00     0.081 C
HETATM   37  C15 UNL     1      13.948  28.470   6.206  1.00  0.00     0.032 C
HETATM   38  C16 UNL     1      12.421  28.583   8.188  1.00  0.00     0.032 C
ENDBRANCH  21  36
ENDBRANCH   1  21
TORSDOF 15
ENDMDL