MODEL 1
REMARK VINA RESULT: -7.884334550      0.000      0.000
REMARK  15 active torsions:
REMARK  status: ('A' for Active; 'I' for Inactive)
REMARK    1  A    between atoms: C2_2  and  C3_3
REMARK    2  A    between atoms: C3_3  and  C4_4
REMARK    3  A    between atoms: C4_4  and  C5_5
REMARK    4  A    between atoms: C5_5  and  C6_6
REMARK    5  A    between atoms: C6_6  and  C7_7
REMARK    6  A    between atoms: C7_7  and  O2_9
REMARK    7  A    between atoms: O2_9  and  C8_10
REMARK    8  A    between atoms: C10_13  and  C11_14
REMARK    9  A    between atoms: C12_15  and  C13_16
REMARK   10  A    between atoms: C12_15  and  C25_28
REMARK   11  A    between atoms: C14_17  and  C15_18
REMARK   12  A    between atoms: C25_28  and  C26_29
REMARK   13  A    between atoms: C26_29  and  C27_30
REMARK   14  A    between atoms: C30_33  and  C31_34
REMARK   15  A    between atoms: C31_34  and  O3_37
ROOT
HETATM    1  C8  UNL     1      12.967  30.644   6.792  1.00  0.00     0.356 A
HETATM    2  C9  UNL     1      13.356  29.363   6.356  1.00  0.00     0.358 A
HETATM    3  N1  UNL     1      12.174  30.063   5.722  1.00  0.00     0.148 N
HETATM    4  C10 UNL     1      12.475  30.822   4.507  1.00  0.00     0.265 C
HETATM    5  C30 UNL     1      12.691  32.202   5.080  1.00  0.00     0.131 C
HETATM    6  C34 UNL     1      13.565  31.885   6.225  1.00  0.00     0.204 C
HETATM    7  O4  UNL     1      14.530  32.494   6.598  1.00  0.00    -0.292 OA
ENDROOT
BRANCH   4   8
HETATM    8  C11 UNL     1      11.306  30.750   3.632  1.00  0.00     0.021 C
HETATM    9  C12 UNL     1      10.732  29.641   3.170  1.00  0.00    -0.038 C
BRANCH   9  10
HETATM   10  C13 UNL     1       9.561  29.814   2.300  1.00  0.00     0.007 C
HETATM   11  C14 UNL     1       9.589  29.719   0.983  1.00  0.00    -0.020 C
BRANCH  11  12
HETATM   12  C15 UNL     1       8.403  29.895   0.134  1.00  0.00     0.024 C
HETATM   13  C16 UNL     1       8.202  28.662  -0.723  1.00  0.00    -0.040 C
HETATM   14  C17 UNL     1       9.258  28.424  -1.738  1.00  0.00     0.015 C
HETATM   15  C18 UNL     1       8.146  27.459   0.216  1.00  0.00     0.015 C
HETATM   16  C19 UNL     1       6.824  28.785  -1.325  1.00  0.00     0.009 C
HETATM   17  C20 UNL     1       6.786  29.949  -2.243  1.00  0.00     0.002 C
HETATM   18  C21 UNL     1       7.787  31.018  -2.019  1.00  0.00     0.009 C
HETATM   19  C22 UNL     1       8.253  31.163  -0.590  1.00  0.00    -0.040 C
HETATM   20  C23 UNL     1       9.534  31.942  -0.638  1.00  0.00     0.015 C
HETATM   21  C24 UNL     1       7.240  32.110   0.087  1.00  0.00     0.015 C
ENDBRANCH  11  12
ENDBRANCH   9  10
BRANCH   9  22
HETATM   22  C25 UNL     1      11.163  28.316   3.554  1.00  0.00     0.011 C
BRANCH  22  23
HETATM   23  C26 UNL     1      10.442  27.133   3.139  1.00  0.00     0.003 C
BRANCH  23  24
HETATM   24  C27 UNL     1      10.625  25.865   3.288  1.00  0.00    -0.088 C
HETATM   25  C28 UNL     1       9.575  24.931   2.681  1.00  0.00     0.043 C
HETATM   26  C29 UNL     1      11.729  25.239   4.041  1.00  0.00     0.043 C
ENDBRANCH  23  24
ENDBRANCH  22  23
ENDBRANCH   9  22
ENDBRANCH   4   8
BRANCH   5  27
HETATM   27  C31 UNL     1      13.162  33.243   4.164  1.00  0.00     0.063 C
HETATM   28  C32 UNL     1      12.852  34.649   4.496  1.00  0.00     0.046 C
HETATM   29  C33 UNL     1      12.531  32.952   2.792  1.00  0.00     0.046 C
BRANCH  27  30
HETATM   30  O3  UNL     1      14.546  33.038   3.958  1.00  0.00    -0.390 OA
ATOM     31  H3  UNL     1      14.996  33.278   4.759  1.00  0.00     0.210 HD
ENDBRANCH  27  30
ENDBRANCH   5  27
BRANCH   1  32
HETATM   32  O2  UNL     1      12.234  30.906   7.982  1.00  0.00    -0.271 OA
BRANCH  32  33
HETATM   33  C7  UNL     1      12.802  30.699   9.229  1.00  0.00     0.261 C
HETATM   34  O1  UNL     1      13.983  31.091   9.404  1.00  0.00    -0.265 OA
BRANCH  33  35
HETATM   35  C6  UNL     1      12.059  30.040  10.338  1.00  0.00     0.111 C
BRANCH  35  36
HETATM   36  C5  UNL     1      10.663  29.647   9.886  1.00  0.00     0.010 C
BRANCH  36  37
HETATM   37  C4  UNL     1      10.289  28.245  10.245  1.00  0.00     0.000 C
BRANCH  37  38
HETATM   38  C3  UNL     1      11.370  27.238   9.943  1.00  0.00    -0.000 C
BRANCH  38  39
HETATM   39  C2  UNL     1      10.907  25.821  10.270  1.00  0.00    -0.005 C
HETATM   40  C1  UNL     1      12.052  24.866  10.097  1.00  0.00     0.005 C
ENDBRANCH  38  39
ENDBRANCH  37  38
ENDBRANCH  36  37
ENDBRANCH  35  36
ENDBRANCH  33  35
ENDBRANCH  32  33
ENDBRANCH   1  32
TORSDOF 15
ENDMDL