MODEL 2
REMARK VINA RESULT: -7.036638800      6.894     10.408
REMARK  15 active torsions:
REMARK  status: ('A' for Active; 'I' for Inactive)
REMARK    1  A    between atoms: O1_2  and  C2_3
REMARK    2  A    between atoms: C2_3  and  C3_5
REMARK    3  A    between atoms: C3_5  and  O3_7
REMARK    4  A    between atoms: C3_5  and  C5_9
REMARK    5  A    between atoms: C7_11  and  O4_12
REMARK    6  A    between atoms: C12_18  and  C13_19
REMARK    7  A    between atoms: C13_19  and  C15_21
REMARK    8  A    between atoms: C15_21  and  C16_22
REMARK    9  A    between atoms: C16_22  and  C17_23
REMARK   10  A    between atoms: C17_23  and  C20_26
REMARK   11  A    between atoms: C20_26  and  C21_27
REMARK   12  A    between atoms: C21_27  and  C22_29
REMARK   13  A    between atoms: C22_29  and  C24_31
REMARK   14  A    between atoms: C24_31  and  C25_32
REMARK   15  A    between atoms: C25_32  and  C26_33
ROOT
HETATM    1  C5  UNL     1      11.827  35.554  -1.713  1.00  0.00     0.041 C
HETATM    2  C6  UNL     1      12.497  36.826  -1.223  1.00  0.00     0.041 C
HETATM    3  C7  UNL     1      12.822  36.560   0.251  1.00  0.00     0.123 C
HETATM    4  C8  UNL     1      13.121  35.105   0.201  1.00  0.00     0.028 C
HETATM    5  C9  UNL     1      13.413  34.391   1.467  1.00  0.00     0.001 C
HETATM    6  C10 UNL     1      13.758  35.388   2.564  1.00  0.00     0.006 C
HETATM    7  C11 UNL     1      12.737  35.143   3.673  1.00  0.00     0.006 C
HETATM    8  C12 UNL     1      12.504  33.699   3.540  1.00  0.00    -0.002 C
HETATM    9  C29 UNL     1      12.411  33.477   2.043  1.00  0.00    -0.036 C
HETATM   10  C30 UNL     1      12.548  32.003   1.848  1.00  0.00     0.016 C
HETATM   11  C31 UNL     1      11.024  33.810   1.534  1.00  0.00     0.011 C
HETATM   12  C32 UNL     1      10.915  33.947   0.055  1.00  0.00     0.011 C
HETATM   13  C33 UNL     1      12.059  34.500  -0.696  1.00  0.00    -0.031 C
HETATM   14  C34 UNL     1      12.760  33.365  -1.468  1.00  0.00     0.016 C
ENDROOT
BRANCH   8  15
HETATM   15  C13 UNL     1      13.332  32.791   4.333  1.00  0.00    -0.014 C
HETATM   16  C14 UNL     1      14.420  33.326   5.188  1.00  0.00     0.010 C
BRANCH  15  17
HETATM   17  C15 UNL     1      12.562  31.707   5.015  1.00  0.00     0.005 C
BRANCH  17  18
HETATM   18  C16 UNL     1      12.754  31.512   6.463  1.00  0.00     0.009 C
BRANCH  18  19
HETATM   19  C17 UNL     1      13.335  30.104   6.713  1.00  0.00    -0.041 C
HETATM   20  C18 UNL     1      12.972  29.281   5.498  1.00  0.00     0.015 C
HETATM   21  C19 UNL     1      14.812  30.138   6.956  1.00  0.00     0.015 C
BRANCH  19  22
HETATM   22  C20 UNL     1      12.693  29.484   7.916  1.00  0.00     0.087 C
BRANCH  22  23
HETATM   23  C21 UNL     1      12.659  30.472   9.016  1.00  0.00     0.131 C
HETATM   24  O5  UNL     1      13.625  31.101   9.431  1.00  0.00    -0.298 OA
BRANCH  23  25
HETATM   25  C22 UNL     1      11.362  30.750   9.699  1.00  0.00     0.051 C
HETATM   26  C23 UNL     1      10.722  29.408  10.004  1.00  0.00     0.018 C
BRANCH  25  27
HETATM   27  C24 UNL     1      11.657  31.517  10.969  1.00  0.00     0.012 C
BRANCH  27  28
HETATM   28  C25 UNL     1      10.914  30.807  12.082  1.00  0.00     0.004 C
BRANCH  28  29
HETATM   29  C26 UNL     1      10.037  31.728  12.879  1.00  0.00    -0.023 C
HETATM   30  C27 UNL     1       9.683  32.997  12.162  1.00  0.00     0.009 C
HETATM   31  C28 UNL     1       8.778  30.959  13.230  1.00  0.00     0.009 C
ENDBRANCH  28  29
ENDBRANCH  27  28
ENDBRANCH  25  27
ENDBRANCH  23  25
ENDBRANCH  22  23
ENDBRANCH  19  22
ENDBRANCH  18  19
ENDBRANCH  17  18
ENDBRANCH  15  17
ENDBRANCH   8  15
BRANCH   3  32
HETATM   32  O4  UNL     1      11.716  36.983   0.913  1.00  0.00    -0.395 OA
ATOM     33  H4  UNL     1      12.061  37.487   1.640  1.00  0.00     0.210 HD
ENDBRANCH   3  32
BRANCH   1  34
HETATM   34  C3  UNL     1      10.471  35.899  -2.164  1.00  0.00     0.146 C
HETATM   35  C4  UNL     1      10.655  37.103  -3.127  1.00  0.00     0.057 C
BRANCH  34  36
HETATM   36  C2  UNL     1       9.789  34.883  -3.004  1.00  0.00     0.293 C
HETATM   37  O2  UNL     1      10.361  34.338  -3.957  1.00  0.00    -0.262 OA
BRANCH  36  38
HETATM   38  O1  UNL     1       8.479  34.523  -2.735  1.00  0.00    -0.324 OA
HETATM   39  C1  UNL     1       8.147  33.175  -2.368  1.00  0.00     0.213 C
ENDBRANCH  36  38
ENDBRANCH  34  36
BRANCH  34  40
HETATM   40  O3  UNL     1       9.622  36.433  -1.199  1.00  0.00    -0.380 OA
ATOM     41  H3  UNL     1      10.103  36.803  -0.468  1.00  0.00     0.211 HD
ENDBRANCH  34  40
ENDBRANCH   1  34
TORSDOF 15
ENDMDL