MODEL 4
REMARK VINA RESULT: -5.998213828      4.304      5.715
REMARK  15 active torsions:
REMARK  status: ('A' for Active; 'I' for Inactive)
REMARK    1  A    between atoms: C2_2  and  C3_3
REMARK    2  A    between atoms: C3_3  and  C4_4
REMARK    3  A    between atoms: C4_4  and  C5_5
REMARK    4  A    between atoms: C5_5  and  C6_6
REMARK    5  A    between atoms: C6_6  and  O2_8
REMARK    6  A    between atoms: O2_8  and  C7_9
REMARK    7  A    between atoms: C7_9  and  C8_10
REMARK    8  A    between atoms: C23_25  and  O3_26
REMARK    9  A    between atoms: O3_26  and  C24_27
REMARK   10  A    between atoms: C24_27  and  O4_28
REMARK   11  A    between atoms: C24_27  and  C25_30
REMARK   12  A    between atoms: C25_30  and  C26_31
REMARK   13  A    between atoms: C26_31  and  C27_32
REMARK   14  A    between atoms: C32_38  and  C33_39
REMARK   15  A    between atoms: C33_39  and  O6_40
ROOT
HETATM    1  C8  UNL     1      10.560  35.116  -0.239  1.00  0.00    -0.018 C
HETATM    2  C9  UNL     1      11.429  35.472  -1.428  1.00  0.00     0.018 C
HETATM    3  C10 UNL     1      10.964  33.681   0.099  1.00  0.00     0.012 C
HETATM    4  C11 UNL     1      10.280  32.619  -0.651  1.00  0.00     0.002 C
HETATM    5  C12 UNL     1       8.938  32.994  -1.232  1.00  0.00     0.010 C
HETATM    6  C13 UNL     1       8.258  34.034  -0.358  1.00  0.00    -0.030 C
HETATM    7  C14 UNL     1       8.326  33.509   1.057  1.00  0.00     0.016 C
HETATM    8  C15 UNL     1       9.108  35.273  -0.548  1.00  0.00     0.005 C
HETATM    9  C16 UNL     1       8.494  36.513   0.012  1.00  0.00     0.007 C
HETATM   10  C17 UNL     1       7.029  36.672  -0.277  1.00  0.00     0.007 C
HETATM   11  C18 UNL     1       6.341  35.388   0.172  1.00  0.00     0.007 C
HETATM   12  C19 UNL     1       4.906  35.476   0.466  1.00  0.00    -0.013 C
HETATM   13  C20 UNL     1       4.663  35.120   1.947  1.00  0.00     0.018 C
HETATM   14  C21 UNL     1       4.280  36.856   0.331  1.00  0.00     0.017 C
HETATM   15  C22 UNL     1       2.806  36.785   0.735  1.00  0.00     0.062 C
HETATM   16  C23 UNL     1       2.083  35.580   0.369  1.00  0.00     0.263 C
HETATM   17  O5  UNL     1       2.848  34.367   0.474  1.00  0.00    -0.355 OA
HETATM   18  C29 UNL     1       3.980  34.579  -0.316  1.00  0.00     0.133 C
HETATM   19  C30 UNL     1       4.553  33.335  -0.857  1.00  0.00     0.034 C
HETATM   20  C31 UNL     1       5.973  33.060  -0.543  1.00  0.00     0.015 C
HETATM   21  C32 UNL     1       6.831  34.296  -0.713  1.00  0.00    -0.007 C
ENDROOT
BRANCH   1  22
HETATM   22  C7  UNL     1      11.067  35.975   0.895  1.00  0.00     0.188 C
BRANCH  22  23
HETATM   23  O2  UNL     1      12.039  35.446   1.635  1.00  0.00    -0.321 OA
BRANCH  23  24
HETATM   24  C6  UNL     1      12.995  35.635   2.506  1.00  0.00     0.258 C
HETATM   25  O1  UNL     1      13.913  36.443   2.298  1.00  0.00    -0.265 OA
BRANCH  24  26
HETATM   26  C5  UNL     1      13.015  34.865   3.810  1.00  0.00     0.111 C
BRANCH  26  27
HETATM   27  C4  UNL     1      13.450  33.459   3.553  1.00  0.00     0.010 C
BRANCH  27  28
HETATM   28  C3  UNL     1      12.440  32.410   3.764  1.00  0.00     0.000 C
BRANCH  28  29
HETATM   29  C2  UNL     1      12.099  31.473   2.672  1.00  0.00    -0.005 C
HETATM   30  C1  UNL     1      10.786  30.771   2.756  1.00  0.00     0.005 C
ENDBRANCH  28  29
ENDBRANCH  27  28
ENDBRANCH  26  27
ENDBRANCH  24  26
ENDBRANCH  23  24
ENDBRANCH  22  23
ENDBRANCH   1  22
BRANCH  21  31
HETATM   31  C33 UNL     1       6.614  34.579  -2.199  1.00  0.00     0.174 C
BRANCH  31  32
HETATM   32  O6  UNL     1       6.650  33.391  -2.913  1.00  0.00    -0.400 OA
ATOM     33  H6  UNL     1       6.213  33.505  -3.748  1.00  0.00     0.209 HD
ENDBRANCH  31  32
ENDBRANCH  21  31
BRANCH  16  34
HETATM   34  O3  UNL     1       0.947  35.386   1.156  1.00  0.00    -0.332 OA
BRANCH  34  35
HETATM   35  C24 UNL     1       1.083  34.201   1.918  1.00  0.00     0.260 C
BRANCH  35  36
HETATM   36  O4  UNL     1       0.233  33.211   1.408  1.00  0.00    -0.371 OA
ATOM     37  H4  UNL     1       0.441  33.048   0.496  1.00  0.00     0.212 HD
ENDBRANCH  35  36
BRANCH  35  38
HETATM   38  C25 UNL     1       0.834  34.445   3.358  1.00  0.00     0.060 C
BRANCH  38  39
HETATM   39  C26 UNL     1       2.080  34.263   4.201  1.00  0.00     0.004 C
BRANCH  39  40
HETATM   40  C27 UNL     1       1.821  33.210   5.235  1.00  0.00    -0.004 C
HETATM   41  C28 UNL     1       1.355  31.906   4.607  1.00  0.00     0.005 C
ENDBRANCH  39  40
ENDBRANCH  38  39
ENDBRANCH  35  38
ENDBRANCH  34  35
ENDBRANCH  16  34
TORSDOF 15
ENDMDL