MODEL 5
REMARK VINA RESULT: -10.260451286      1.275      2.084
REMARK  14 active torsions:
REMARK  status: ('A' for Active; 'I' for Inactive)
REMARK    1  A    between atoms: C2_2  and  C3_4
REMARK    2  A    between atoms: C3_4  and  C4_5
REMARK    3  A    between atoms: C5_7  and  C7_9
REMARK    4  A    between atoms: C7_9  and  C9_11
REMARK    5  A    between atoms: C9_11  and  C10_12
REMARK    6  A    between atoms: C10_12  and  C11_13
REMARK    7  A    between atoms: C12_15  and  O4_16
REMARK    8  A    between atoms: C12_15  and  C13_18
REMARK    9  A    between atoms: C16_21  and  C17_22
REMARK   10  A    between atoms: C17_22  and  C19_24
REMARK   11  A    between atoms: C19_24  and  C20_25
REMARK   12  A    between atoms: C20_25  and  C21_26
REMARK   13  A    between atoms: C21_26  and  C22_27
REMARK   14  A    between atoms: C29_35  and  O6_36
ROOT
HETATM    1  C11 UNL     1       9.956  32.401  12.847  1.00  0.00     0.154 C
HETATM    2  O3  UNL     1       9.652  33.250  11.709  1.00  0.00    -0.347 OA
HETATM    3  C12 UNL     1       8.454  33.881  11.892  1.00  0.00     0.172 C
HETATM    4  C27 UNL     1       7.880  33.784  13.287  1.00  0.00     0.072 C
HETATM    5  C28 UNL     1       7.602  32.348  13.573  1.00  0.00     0.040 C
HETATM    6  C29 UNL     1       8.740  31.513  13.028  1.00  0.00     0.147 C
ENDROOT
BRANCH   3   7
HETATM    7  O4  UNL     1       7.524  33.272  11.044  1.00  0.00    -0.365 OA
ATOM      8  H4  UNL     1       8.000  32.916  10.303  1.00  0.00     0.213 HD
ENDBRANCH   3   7
BRANCH   3   9
HETATM    9  C13 UNL     1       8.498  35.351  11.547  1.00  0.00     0.118 C
HETATM   10  C14 UNL     1       7.305  36.091  12.151  1.00  0.00     0.018 C
HETATM   11  C15 UNL     1       7.734  37.526  11.961  1.00  0.00     0.013 C
HETATM   12  C16 UNL     1       9.243  37.507  12.182  1.00  0.00     0.060 C
HETATM   13  C26 UNL     1       9.613  36.071  12.210  1.00  0.00     0.140 C
HETATM   14  O5  UNL     1      10.623  35.605  12.681  1.00  0.00    -0.297 OA
BRANCH  12  15
HETATM   15  C17 UNL     1       9.966  38.284  11.139  1.00  0.00    -0.007 C
HETATM   16  C18 UNL     1      10.290  37.481   9.902  1.00  0.00     0.011 C
BRANCH  15  17
HETATM   17  C19 UNL     1      11.264  38.820  11.678  1.00  0.00     0.005 C
BRANCH  17  18
HETATM   18  C20 UNL     1      11.724  39.998  10.895  1.00  0.00     0.004 C
BRANCH  18  19
HETATM   19  C21 UNL     1      12.529  39.569   9.693  1.00  0.00     0.027 C
BRANCH  19  20
HETATM   20  C22 UNL     1      13.960  39.478  10.055  1.00  0.00    -0.025 C
HETATM   21  C23 UNL     1      14.573  38.309  10.263  1.00  0.00    -0.091 C
HETATM   22  C24 UNL     1      13.893  37.012  10.154  1.00  0.00     0.042 C
HETATM   23  C25 UNL     1      16.026  38.330  10.625  1.00  0.00     0.042 C
ENDBRANCH  19  20
ENDBRANCH  18  19
ENDBRANCH  17  18
ENDBRANCH  15  17
ENDBRANCH  12  15
ENDBRANCH   3   9
BRANCH   1  24
HETATM   24  C10 UNL     1      11.201  31.731  12.486  1.00  0.00     0.035 C
BRANCH  24  25
HETATM   25  C9  UNL     1      11.631  31.508  11.111  1.00  0.00     0.010 C
BRANCH  25  26
HETATM   26  C7  UNL     1      12.197  30.169  10.738  1.00  0.00     0.016 C
HETATM   27  C8  UNL     1      11.773  28.980  11.486  1.00  0.00     0.013 C
BRANCH  26  28
HETATM   28  C5  UNL     1      12.078  30.027   9.206  1.00  0.00     0.061 C
HETATM   29  O2  UNL     1      13.206  30.724   8.732  1.00  0.00    -0.374 OA
HETATM   30  C4  UNL     1      13.300  30.610   7.346  1.00  0.00     0.133 C
HETATM   31  C32 UNL     1      13.652  29.222   6.920  1.00  0.00     0.011 C
HETATM   32  C31 UNL     1      13.394  28.276   8.048  1.00  0.00     0.010 C
HETATM   33  C33 UNL     1      12.919  28.818   5.652  1.00  0.00     0.012 C
HETATM   34  C30 UNL     1      12.085  28.611   8.754  1.00  0.00     0.038 C
HETATM   35  C6  UNL     1      10.781  30.677   8.797  1.00  0.00     0.046 C
BRANCH  30  36
HETATM   36  C3  UNL     1      14.270  31.645   6.856  1.00  0.00     0.110 C
BRANCH  36  37
HETATM   37  C2  UNL     1      13.681  32.463   5.769  1.00  0.00     0.125 C
HETATM   38  C1  UNL     1      14.516  33.552   5.147  1.00  0.00     0.091 C
HETATM   39  O1  UNL     1      12.566  32.331   5.327  1.00  0.00    -0.298 OA
ENDBRANCH  36  37
ENDBRANCH  30  36
ENDBRANCH  26  28
ENDBRANCH  25  26
ENDBRANCH  24  25
ENDBRANCH   1  24
BRANCH   6  40
HETATM   40  O6  UNL     1       8.997  30.500  13.904  1.00  0.00    -0.393 OA
ATOM     41  H6  UNL     1       8.620  30.682  14.757  1.00  0.00     0.210 HD
ENDBRANCH   6  40
TORSDOF 14
ENDMDL