MODEL 3
REMARK VINA RESULT: -8.377525714      1.117      1.392
REMARK  16 active torsions:
REMARK  status: ('A' for Active; 'I' for Inactive)
REMARK    1  A    between atoms: C2_2  and  O2_4
REMARK    2  A    between atoms: O2_4  and  C3_5
REMARK    3  A    between atoms: C3_5  and  C5_7
REMARK    4  A    between atoms: C5_7  and  C6_8
REMARK    5  A    between atoms: C5_7  and  O5_38
REMARK    6  A    between atoms: C7_9  and  C9_11
REMARK    7  A    between atoms: C10_12  and  C11_13
REMARK    8  A    between atoms: C11_13  and  C13_15
REMARK    9  A    between atoms: C13_15  and  C15_17
REMARK   10  A    between atoms: C16_18  and  C17_19
REMARK   11  A    between atoms: C19_21  and  C20_22
REMARK   12  A    between atoms: C20_22  and  C21_23
REMARK   13  A    between atoms: C25_27  and  C26_28
REMARK   14  A    between atoms: C26_28  and  O3_29
REMARK   15  A    between atoms: C29_33  and  O4_34
REMARK   16  A    between atoms: O5_38  and  C32_39
ROOT
HETATM    1  C15 UNL     1      13.093  29.811   6.327  1.00  0.00    -0.021 C
HETATM    2  C16 UNL     1      12.714  29.956   5.119  1.00  0.00     0.003 C
ENDROOT
BRANCH   1   3
HETATM    3  C13 UNL     1      13.289  30.746   7.408  1.00  0.00     0.011 C
HETATM    4  C14 UNL     1      14.784  31.165   7.349  1.00  0.00     0.015 C
BRANCH   3   5
HETATM    5  C11 UNL     1      13.036  30.104   8.776  1.00  0.00     0.011 C
HETATM    6  C12 UNL     1      12.091  28.942   8.595  1.00  0.00     0.015 C
BRANCH   5   7
HETATM    7  C10 UNL     1      12.461  31.083   9.741  1.00  0.00    -0.021 C
HETATM    8  C9  UNL     1      12.528  30.919  11.038  1.00  0.00     0.003 C
BRANCH   8   9
HETATM    9  C7  UNL     1      11.958  31.890  12.008  1.00  0.00    -0.064 C
HETATM   10  C6  UNL     1      10.729  32.272  11.825  1.00  0.00     0.014 C
HETATM   11  C8  UNL     1      12.823  32.332  13.092  1.00  0.00     0.048 C
BRANCH  10  12
HETATM   12  C5  UNL     1       9.911  33.196  12.602  1.00  0.00     0.184 C
BRANCH  12  13
HETATM   13  C3  UNL     1       8.727  32.550  13.303  1.00  0.00     0.161 C
HETATM   14  C4  UNL     1       8.904  31.064  13.244  1.00  0.00     0.043 C
BRANCH  13  15
HETATM   15  O2  UNL     1       7.550  33.034  12.789  1.00  0.00    -0.314 OA
BRANCH  15  16
HETATM   16  C2  UNL     1       6.425  33.401  13.511  1.00  0.00     0.255 C
HETATM   17  C1  UNL     1       6.150  34.834  13.861  1.00  0.00     0.126 C
HETATM   18  O1  UNL     1       5.661  32.475  13.848  1.00  0.00    -0.266 OA
ENDBRANCH  15  16
ENDBRANCH  13  15
ENDBRANCH  12  13
BRANCH  12  19
HETATM   19  O5  UNL     1       9.508  34.312  11.871  1.00  0.00    -0.310 OA
BRANCH  19  20
HETATM   20  C32 UNL     1       9.895  35.612  12.187  1.00  0.00     0.255 C
HETATM   21  C33 UNL     1      11.217  36.159  11.827  1.00  0.00     0.126 C
HETATM   22  O6  UNL     1       9.060  36.330  12.808  1.00  0.00    -0.266 OA
ENDBRANCH  19  20
ENDBRANCH  12  19
ENDBRANCH  10  12
ENDBRANCH   8   9
ENDBRANCH   5   7
ENDBRANCH   3   5
ENDBRANCH   1   3
BRANCH   2  23
HETATM   23  C17 UNL     1      12.319  31.084   4.307  1.00  0.00    -0.066 C
HETATM   24  C18 UNL     1      12.724  32.448   4.617  1.00  0.00     0.048 C
HETATM   25  C19 UNL     1      11.537  30.832   3.257  1.00  0.00    -0.020 C
BRANCH  25  26
HETATM   26  C20 UNL     1      11.042  31.824   2.328  1.00  0.00     0.033 C
BRANCH  26  27
HETATM   27  C21 UNL     1       9.829  31.502   1.533  1.00  0.00     0.004 C
HETATM   28  C22 UNL     1       9.565  30.044   1.303  1.00  0.00    -0.013 C
HETATM   29  C23 UNL     1       8.993  29.362   2.538  1.00  0.00     0.010 C
HETATM   30  C24 UNL     1       8.468  30.054   0.263  1.00  0.00     0.017 C
HETATM   31  C25 UNL     1       8.410  31.447  -0.325  1.00  0.00    -0.009 C
HETATM   32  C27 UNL     1       7.137  32.158   0.084  1.00  0.00     0.015 C
HETATM   33  C30 UNL     1       9.564  32.222   0.274  1.00  0.00    -0.004 C
HETATM   34  C28 UNL     1       7.526  33.313   0.958  1.00  0.00     0.033 C
HETATM   35  C29 UNL     1       8.960  33.601   0.614  1.00  0.00     0.127 C
HETATM   36  C31 UNL     1      10.669  32.471  -0.668  1.00  0.00     0.019 C
BRANCH  31  37
HETATM   37  C26 UNL     1       8.419  31.333  -1.806  1.00  0.00     0.174 C
BRANCH  37  38
HETATM   38  O3  UNL     1       7.834  32.367  -2.497  1.00  0.00    -0.400 OA
ATOM     39  H3  UNL     1       8.426  32.995  -2.894  1.00  0.00     0.209 HD
ENDBRANCH  37  38
ENDBRANCH  31  37
BRANCH  35  40
HETATM   40  O4  UNL     1       9.116  34.487  -0.427  1.00  0.00    -0.395 OA
ATOM     41  H4  UNL     1       8.491  35.203  -0.420  1.00  0.00     0.210 HD
ENDBRANCH  35  40
ENDBRANCH  26  27
ENDBRANCH  25  26
ENDBRANCH   2  23
TORSDOF 16
ENDMDL