MODEL 3
REMARK VINA RESULT: -6.885965986      1.596      2.703
REMARK  14 active torsions:
REMARK  status: ('A' for Active; 'I' for Inactive)
REMARK    1  A    between atoms: C2_2  and  C4_4
REMARK    2  A    between atoms: C4_4  and  O1_5
REMARK    3  A    between atoms: C4_4  and  C5_7
REMARK    4  A    between atoms: C5_7  and  C6_8
REMARK    5  A    between atoms: C8_10  and  O2_11
REMARK    6  A    between atoms: C9_13  and  O3_14
REMARK    7  A    between atoms: O3_14  and  C10_15
REMARK    8  A    between atoms: C20_26  and  C22_28
REMARK    9  A    between atoms: C23_29  and  C24_30
REMARK   10  A    between atoms: C24_30  and  C25_31
REMARK   11  A    between atoms: C25_31  and  C26_32
REMARK   12  A    between atoms: C26_32  and  C28_34
REMARK   13  A    between atoms: C28_34  and  C29_35
REMARK   14  A    between atoms: C29_35  and  C31_37
ROOT
HETATM    1  C6  UNL     1      12.451  30.693   8.880  1.00  0.00     0.018 C
HETATM    2  C7  UNL     1      13.553  31.706   8.706  1.00  0.00     0.021 C
HETATM    3  C8  UNL     1      12.982  29.485   9.520  1.00  0.00     0.184 C
HETATM    4  C9  UNL     1      11.931  28.518  10.023  1.00  0.00     0.290 C
HETATM    5  O4  UNL     1      10.854  29.066  10.626  1.00  0.00    -0.351 OA
HETATM    6  C16 UNL     1      10.423  30.300  10.289  1.00  0.00     0.155 C
HETATM    7  C17 UNL     1       9.543  30.812  11.403  1.00  0.00     0.042 C
HETATM    8  C18 UNL     1      10.021  32.193  11.769  1.00  0.00     0.022 C
HETATM    9  C19 UNL     1       9.188  32.714  12.895  1.00  0.00     0.013 C
HETATM   10  C20 UNL     1      11.482  32.136  12.057  1.00  0.00     0.079 C
HETATM   11  C21 UNL     1      11.844  31.285  13.251  1.00  0.00     0.051 C
HETATM   12  O6  UNL     1      12.229  31.650  10.990  1.00  0.00    -0.367 OA
HETATM   13  C33 UNL     1      11.476  31.304   9.891  1.00  0.00     0.163 C
ENDROOT
BRANCH  10  14
HETATM   14  C22 UNL     1      11.938  33.533  12.405  1.00  0.00     0.007 C
HETATM   15  C23 UNL     1      11.419  34.562  11.761  1.00  0.00    -0.028 C
BRANCH  15  16
HETATM   16  C24 UNL     1      11.854  35.949  12.087  1.00  0.00     0.027 C
BRANCH  16  17
HETATM   17  C25 UNL     1      10.706  36.824  12.472  1.00  0.00     0.008 C
BRANCH  17  18
HETATM   18  C26 UNL     1      10.264  37.610  11.243  1.00  0.00    -0.018 C
HETATM   19  C27 UNL     1       9.093  37.059  10.545  1.00  0.00     0.010 C
BRANCH  18  20
HETATM   20  C28 UNL     1      11.437  38.034  10.463  1.00  0.00     0.016 C
BRANCH  20  21
HETATM   21  C29 UNL     1      12.386  39.018  11.031  1.00  0.00     0.051 C
HETATM   22  C30 UNL     1      11.602  40.398  10.991  1.00  0.00     0.018 C
BRANCH  21  23
HETATM   23  C31 UNL     1      13.569  39.357  10.203  1.00  0.00     0.126 C
HETATM   24  C32 UNL     1      14.721  38.371  10.151  1.00  0.00     0.091 C
HETATM   25  O5  UNL     1      13.622  40.388   9.589  1.00  0.00    -0.298 OA
ENDBRANCH  21  23
ENDBRANCH  20  21
ENDBRANCH  18  20
ENDBRANCH  17  18
ENDBRANCH  16  17
ENDBRANCH  15  16
ENDBRANCH  10  14
BRANCH   1  26
HETATM   26  C5  UNL     1      11.720  30.555   7.600  1.00  0.00     0.050 C
BRANCH  26  27
HETATM   27  C4  UNL     1      12.467  30.867   6.365  1.00  0.00     0.146 C
BRANCH  27  28
HETATM   28  C2  UNL     1      12.520  29.741   5.403  1.00  0.00    -0.065 C
HETATM   29  C1  UNL     1      11.995  29.888   4.207  1.00  0.00     0.016 C
HETATM   30  C3  UNL     1      13.156  28.433   5.731  1.00  0.00     0.045 C
ENDBRANCH  27  28
BRANCH  27  31
HETATM   31  O1  UNL     1      11.873  31.941   5.648  1.00  0.00    -0.391 OA
ATOM     32  H1  UNL     1      11.847  32.665   6.262  1.00  0.00     0.210 HD
ENDBRANCH  27  31
ENDBRANCH  26  27
ENDBRANCH   1  26
BRANCH   3  33
HETATM   33  O2  UNL     1      13.957  28.805   8.799  1.00  0.00    -0.390 OA
ATOM     34  H2  UNL     1      14.699  29.329   8.519  1.00  0.00     0.210 HD
ENDBRANCH   3  33
BRANCH   4  35
HETATM   35  O3  UNL     1      11.538  27.755   8.925  1.00  0.00    -0.353 OA
BRANCH  35  36
HETATM   36  C10 UNL     1      11.316  26.419   9.215  1.00  0.00     0.124 C
HETATM   37  C11 UNL     1      12.418  25.769   9.973  1.00  0.00     0.032 C
HETATM   38  C12 UNL     1      12.195  24.259   9.863  1.00  0.00     0.002 C
HETATM   39  C13 UNL     1      10.935  23.978  10.637  1.00  0.00     0.000 C
HETATM   40  C14 UNL     1      10.175  25.213  11.010  1.00  0.00     0.002 C
HETATM   41  C15 UNL     1      10.010  26.198   9.885  1.00  0.00     0.032 C
ENDBRANCH  35  36
ENDBRANCH   4  35
TORSDOF 14
ENDMDL