MODEL 4
REMARK VINA RESULT: -8.176042610      2.491      8.175
REMARK  10 active torsions:
REMARK  status: ('A' for Active; 'I' for Inactive)
REMARK    1  A    between atoms: C2_2  and  C3_3
REMARK    2  A    between atoms: C2_2  and  C17_27
REMARK    3  A    between atoms: C4_4  and  C5_5
REMARK    4  A    between atoms: C10_11  and  O2_12
REMARK    5  A    between atoms: C12_18  and  C13_19
REMARK    6  A    between atoms: C13_19  and  O5_20
REMARK    7  A    between atoms: C13_19  and  C14_22
REMARK    8  A    between atoms: C14_22  and  O6_25
REMARK    9  A    between atoms: C21_31  and  O7_32
REMARK   10  A    between atoms: C21_31  and  C22_34
ROOT
HETATM    1  C5  UNL     1       5.683  40.945  18.124  1.00  0.00     0.189 C
HETATM    2  O1  UNL     1       4.339  40.909  18.315  1.00  0.00    -0.371 OA
HETATM    3  C6  UNL     1       3.604  39.987  17.646  1.00  0.00     0.126 C
HETATM    4  C7  UNL     1       2.385  40.739  17.075  1.00  0.00     0.040 C
HETATM    5  C8  UNL     1       3.049  38.980  18.627  1.00  0.00     0.054 C
HETATM    6  C9  UNL     1       2.494  37.770  17.852  1.00  0.00     0.016 C
HETATM    7  C10 UNL     1       3.946  38.564  19.713  1.00  0.00     0.250 C
HETATM    8  S1  UNL     1       5.645  38.294  19.288  1.00  0.00     0.201 S
HETATM    9  O3  UNL     1       5.710  37.062  18.452  1.00  0.00    -0.220 OA
HETATM   10  O4  UNL     1       6.317  37.975  20.618  1.00  0.00    -0.220 OA
HETATM   11  C11 UNL     1       6.366  39.667  18.518  1.00  0.00     0.071 C
HETATM   12  C12 UNL     1       7.632  39.637  18.254  1.00  0.00     0.029 C
ENDROOT
BRANCH   1  13
HETATM   13  C4  UNL     1       5.998  41.432  16.783  1.00  0.00     0.011 C
HETATM   14  C3  UNL     1       5.820  42.674  16.448  1.00  0.00     0.006 C
BRANCH  14  15
HETATM   15  C2  UNL     1       6.098  43.303  15.139  1.00  0.00    -0.059 C
HETATM   16  C1  UNL     1       6.861  42.624  14.335  1.00  0.00     0.019 C
BRANCH  15  17
HETATM   17  C17 UNL     1       5.525  44.582  14.882  1.00  0.00     0.049 C
HETATM   18  C18 UNL     1       6.376  45.487  13.920  1.00  0.00     0.014 C
HETATM   19  C19 UNL     1       5.440  46.505  13.403  1.00  0.00     0.004 C
HETATM   20  C20 UNL     1       4.161  46.775  14.086  1.00  0.00     0.042 C
HETATM   21  C21 UNL     1       4.065  46.451  15.556  1.00  0.00     0.081 C
HETATM   22  C24 UNL     1       5.263  45.574  15.918  1.00  0.00    -0.047 C
HETATM   23  C25 UNL     1       5.929  45.863  16.961  1.00  0.00     0.018 C
BRANCH  21  24
HETATM   24  O7  UNL     1       4.080  47.579  16.347  1.00  0.00    -0.385 OA
ATOM     25  H7  UNL     1       3.357  47.601  16.963  1.00  0.00     0.211 HD
ENDBRANCH  21  24
BRANCH  21  26
HETATM   26  C22 UNL     1       2.850  45.643  15.891  1.00  0.00     0.038 C
HETATM   27  C23 UNL     1       1.831  45.886  14.788  1.00  0.00     0.008 C
ENDBRANCH  21  26
ENDBRANCH  15  17
ENDBRANCH  14  15
ENDBRANCH   1  13
BRANCH  12  28
HETATM   28  C13 UNL     1       8.695  38.665  18.431  1.00  0.00     0.175 C
BRANCH  28  29
HETATM   29  O5  UNL     1       8.417  37.366  18.647  1.00  0.00    -0.389 OA
ATOM     30  H5  UNL     1       8.284  36.767  17.921  1.00  0.00     0.210 HD
ENDBRANCH  28  29
BRANCH  28  31
HETATM   31  C14 UNL     1       9.695  39.094  19.523  1.00  0.00     0.080 C
HETATM   32  C15 UNL     1      10.320  40.410  19.203  1.00  0.00     0.048 C
HETATM   33  C16 UNL     1      10.720  38.026  19.758  1.00  0.00     0.048 C
BRANCH  31  34
HETATM   34  O6  UNL     1       8.964  39.256  20.712  1.00  0.00    -0.388 OA
ATOM     35  H6  UNL     1       8.052  39.083  20.505  1.00  0.00     0.210 HD
ENDBRANCH  31  34
ENDBRANCH  28  31
ENDBRANCH  12  28
BRANCH   7  36
HETATM   36  O2  UNL     1       3.471  37.346  20.237  1.00  0.00    -0.380 OA
ATOM     37  H2  UNL     1       3.634  37.340  21.174  1.00  0.00     0.211 HD
ENDBRANCH   7  36
TORSDOF 10
ENDMDL