MODEL 4
REMARK VINA RESULT: -7.400272135      2.331      3.377
REMARK  9 active torsions:
REMARK  status: ('A' for Active; 'I' for Inactive)
REMARK    1  A    between atoms: C4_4  and  O1_5
REMARK    2  A    between atoms: C9_12  and  O3_13
REMARK    3  A    between atoms: C19_25  and  S1_26
REMARK    4  A    between atoms: S1_26  and  C20_27
REMARK    5  A    between atoms: C20_27  and  C21_28
REMARK    6  A    between atoms: C21_28  and  C22_29
REMARK    7  A    between atoms: C22_29  and  C23_30
REMARK    8  A    between atoms: C23_30  and  C24_31
REMARK    9  A    between atoms: C25_34  and  O5_35
ROOT
HETATM    1  C1  UNL     1       3.473  44.385  18.709  1.00  0.00     0.018 C
HETATM    2  C2  UNL     1       3.342  43.414  17.597  1.00  0.00    -0.011 C
HETATM    3  C3  UNL     1       4.090  42.146  17.904  1.00  0.00     0.050 C
HETATM    4  C4  UNL     1       3.353  41.374  18.967  1.00  0.00     0.068 C
HETATM    5  C5  UNL     1       4.414  40.624  19.784  1.00  0.00     0.071 C
HETATM    6  C6  UNL     1       5.136  39.715  18.825  1.00  0.00     0.132 C
HETATM    7  O2  UNL     1       6.306  39.305  19.432  1.00  0.00    -0.385 OA
HETATM    8  C7  UNL     1       6.054  38.443  20.473  1.00  0.00     0.172 C
HETATM    9  C8  UNL     1       5.603  37.149  19.857  1.00  0.00     0.080 C
HETATM   10  C9  UNL     1       4.500  37.270  18.871  1.00  0.00     0.154 C
HETATM   11  C10 UNL     1       4.821  36.340  17.757  1.00  0.00     0.098 C
HETATM   12  N1  UNL     1       5.090  35.622  16.891  1.00  0.00    -0.194 NA
HETATM   13  C11 UNL     1       4.215  38.660  18.378  1.00  0.00     0.065 C
HETATM   14  C12 UNL     1       2.787  38.973  18.698  1.00  0.00     0.023 C
HETATM   15  C13 UNL     1       2.359  40.398  18.426  1.00  0.00    -0.012 C
HETATM   16  C14 UNL     1       0.981  40.544  19.075  1.00  0.00     0.018 C
HETATM   17  C15 UNL     1       2.146  40.518  16.942  1.00  0.00     0.012 C
HETATM   18  C16 UNL     1       1.832  41.826  16.394  1.00  0.00     0.006 C
HETATM   19  C17 UNL     1       1.933  43.037  17.238  1.00  0.00    -0.003 C
HETATM   20  C18 UNL     1       1.472  44.219  16.371  1.00  0.00     0.023 C
HETATM   21  C19 UNL     1       2.682  45.026  16.050  1.00  0.00     0.077 C
HETATM   22  C25 UNL     1       3.818  44.080  16.324  1.00  0.00     0.140 C
ENDROOT
BRANCH  10  23
HETATM   23  O3  UNL     1       3.356  36.689  19.476  1.00  0.00    -0.375 OA
ATOM     24  H3  UNL     1       3.235  37.137  20.306  1.00  0.00     0.211 HD
ENDBRANCH  10  23
BRANCH   4  25
HETATM   25  O1  UNL     1       2.739  42.227  19.891  1.00  0.00    -0.389 OA
ATOM     26  H1  UNL     1       1.794  42.125  19.888  1.00  0.00     0.210 HD
ENDBRANCH   4  25
BRANCH  22  27
HETATM   27  O5  UNL     1       5.022  44.741  16.563  1.00  0.00    -0.394 OA
ATOM     28  H5  UNL     1       5.748  44.159  16.373  1.00  0.00     0.210 HD
ENDBRANCH  22  27
BRANCH  21  29
HETATM   29  S1  UNL     1       2.715  45.713  14.395  1.00  0.00    -0.162 SA
BRANCH  29  30
HETATM   30  C20 UNL     1       2.479  47.554  14.593  1.00  0.00     0.074 C
BRANCH  30  31
HETATM   31  C21 UNL     1       3.564  48.096  15.449  1.00  0.00     0.010 C
BRANCH  31  32
HETATM   32  C22 UNL     1       4.506  49.003  14.787  1.00  0.00     0.010 C
BRANCH  32  33
HETATM   33  C23 UNL     1       5.875  48.548  14.476  1.00  0.00     0.099 C
BRANCH  33  34
HETATM   34  C24 UNL     1       6.070  47.231  13.902  1.00  0.00     0.231 C
HETATM   35  N2  UNL     1       6.652  46.148  14.605  1.00  0.00    -0.062 NA
HETATM   36  O4  UNL     1       5.729  46.966  12.698  1.00  0.00    -0.277 OA
ENDBRANCH  33  34
ENDBRANCH  32  33
ENDBRANCH  31  32
ENDBRANCH  30  31
ENDBRANCH  29  30
ENDBRANCH  21  29
TORSDOF 9
ENDMDL