MODEL 4
REMARK VINA RESULT: -6.500683025      2.806      7.801
REMARK  11 active torsions:
REMARK  status: ('A' for Active; 'I' for Inactive)
REMARK    1  A    between atoms: C13_14  and  C14_15
REMARK    2  A    between atoms: C14_15  and  C15_16
REMARK    3  A    between atoms: C15_16  and  C17_18
REMARK    4  A    between atoms: C17_18  and  O2_19
REMARK    5  A    between atoms: C17_18  and  C20_23
REMARK    6  A    between atoms: O2_19  and  C18_20
REMARK    7  A    between atoms: C20_23  and  O4_24
REMARK    8  A    between atoms: C20_23  and  C21_26
REMARK    9  A    between atoms: C21_26  and  O5_27
REMARK   10  A    between atoms: C22_29  and  O6_31
REMARK   11  A    between atoms: C27_36  and  O7_37
ROOT
HETATM    1  C1  UNL     1      -1.819  41.633  15.810  1.00  0.00     0.017 C
HETATM    2  C2  UNL     1      -0.872  41.780  16.718  1.00  0.00    -0.060 C
HETATM    3  C3  UNL     1      -1.312  41.693  18.139  1.00  0.00     0.036 C
HETATM    4  C4  UNL     1      -0.210  41.474  19.100  1.00  0.00     0.013 C
HETATM    5  C5  UNL     1       1.121  41.139  18.536  1.00  0.00     0.031 C
HETATM    6  C6  UNL     1       1.380  39.708  18.281  1.00  0.00     0.058 C
HETATM    7  C7  UNL     1       1.835  39.081  19.617  1.00  0.00     0.046 C
HETATM    8  C8  UNL     1       0.166  38.863  17.889  1.00  0.00     0.046 C
HETATM    9  O1  UNL     1       2.270  39.447  17.269  1.00  0.00    -0.375 OA
HETATM   10  C9  UNL     1       3.278  40.306  17.059  1.00  0.00     0.123 C
HETATM   11  C10 UNL     1       4.336  40.189  18.133  1.00  0.00     0.040 C
HETATM   12  C11 UNL     1       2.858  41.770  16.827  1.00  0.00     0.026 C
HETATM   13  C12 UNL     1       4.059  42.533  17.188  1.00  0.00     0.015 C
HETATM   14  C13 UNL     1       4.178  43.977  16.857  1.00  0.00     0.020 C
HETATM   15  C22 UNL     1       3.452  44.788  17.905  1.00  0.00     0.058 C
HETATM   16  C23 UNL     1       4.392  45.486  18.865  1.00  0.00     0.046 C
HETATM   17  C24 UNL     1       2.514  43.959  18.760  1.00  0.00     0.038 C
HETATM   18  C25 UNL     1       1.401  43.510  17.913  1.00  0.00     0.016 C
HETATM   19  C26 UNL     1       1.535  42.077  17.391  1.00  0.00     0.002 C
HETATM   20  C27 UNL     1       0.491  42.009  16.278  1.00  0.00     0.155 C
ENDROOT
BRANCH  14  21
HETATM   21  C14 UNL     1       3.883  44.366  15.474  1.00  0.00     0.014 C
BRANCH  21  22
HETATM   22  C15 UNL     1       4.844  45.311  14.792  1.00  0.00     0.014 C
HETATM   23  C16 UNL     1       5.050  44.743  13.355  1.00  0.00     0.012 C
BRANCH  22  24
HETATM   24  C17 UNL     1       4.354  46.728  14.673  1.00  0.00     0.166 C
BRANCH  24  25
HETATM   25  O2  UNL     1       3.135  46.920  14.079  1.00  0.00    -0.313 OA
BRANCH  25  26
HETATM   26  C18 UNL     1       1.956  47.397  14.550  1.00  0.00     0.255 C
HETATM   27  C19 UNL     1       1.586  48.844  14.576  1.00  0.00     0.126 C
HETATM   28  O3  UNL     1       1.151  46.568  14.981  1.00  0.00    -0.266 OA
ENDBRANCH  25  26
ENDBRANCH  24  25
BRANCH  24  29
HETATM   29  C20 UNL     1       5.428  47.727  14.301  1.00  0.00     0.171 C
BRANCH  29  30
HETATM   30  O4  UNL     1       6.669  47.297  14.860  1.00  0.00    -0.391 OA
ATOM     31  H4  UNL     1       7.375  47.582  14.292  1.00  0.00     0.210 HD
ENDBRANCH  29  30
BRANCH  29  32
HETATM   32  C21 UNL     1       5.154  49.143  14.679  1.00  0.00     0.198 C
BRANCH  32  33
HETATM   33  O5  UNL     1       6.411  49.744  14.982  1.00  0.00    -0.398 OA
ATOM     34  H5  UNL     1       6.807  49.227  15.673  1.00  0.00     0.209 HD
ENDBRANCH  32  33
ENDBRANCH  29  32
ENDBRANCH  24  29
ENDBRANCH  22  24
ENDBRANCH  21  22
ENDBRANCH  14  21
BRANCH  15  35
HETATM   35  O6  UNL     1       2.677  45.791  17.305  1.00  0.00    -0.390 OA
ATOM     36  H6  UNL     1       2.315  45.486  16.481  1.00  0.00     0.210 HD
ENDBRANCH  15  35
BRANCH  20  37
HETATM   37  O7  UNL     1       0.937  41.108  15.296  1.00  0.00    -0.390 OA
ATOM     38  H7  UNL     1       1.439  41.511  14.598  1.00  0.00     0.210 HD
ENDBRANCH  20  37
TORSDOF 11
ENDMDL