MODEL 2
REMARK VINA RESULT: -9.220833548      2.366     11.221
REMARK  7 active torsions:
REMARK  status: ('A' for Active; 'I' for Inactive)
REMARK    1  A    between atoms: C2_2  and  C4_4
REMARK    2  A    between atoms: C4_4  and  C5_5
REMARK    3  A    between atoms: C5_5  and  N1_6
REMARK    4  A    between atoms: N1_6  and  C6_9
REMARK    5  A    between atoms: C19_25  and  C20_26
REMARK    6  A    between atoms: C20_26  and  N3_27
REMARK       I    between atoms: N3_27  and  C21_29
REMARK    7  A    between atoms: C21_29  and  C22_31
ROOT
HETATM    1  C6  UNL     1       9.260  37.909  19.163  1.00  0.00     0.186 C
HETATM    2  C7  UNL     1       9.667  39.357  19.222  1.00  0.00     0.038 C
HETATM    3  C8  UNL     1       9.720  39.973  17.834  1.00  0.00     0.074 C
HETATM    4  C9  UNL     1       8.295  40.196  17.384  1.00  0.00     0.258 C
HETATM    5  C10 UNL     1       7.408  39.116  17.962  1.00  0.00     0.074 C
HETATM    6  C11 UNL     1       8.201  37.828  18.055  1.00  0.00     0.038 C
HETATM    7  N2  UNL     1       7.891  41.515  17.858  1.00  0.00    -0.035 N
ATOM      8  H21 UNL     1       8.413  41.838  18.673  1.00  0.00     0.281 HD
ATOM      9  H22 UNL     1       6.969  41.531  18.294  1.00  0.00     0.281 HD
HETATM   10  C12 UNL     1       8.010  42.400  16.687  1.00  0.00     0.310 C
HETATM   11  C13 UNL     1       6.923  41.923  15.723  1.00  0.00     0.253 C
HETATM   12  C14 UNL     1       6.912  42.766  14.489  1.00  0.00     0.079 C
HETATM   13  C15 UNL     1       5.604  43.488  14.365  1.00  0.00     0.048 C
HETATM   14  C16 UNL     1       5.190  44.171  15.669  1.00  0.00     0.120 C
HETATM   15  C17 UNL     1       5.594  45.600  15.590  1.00  0.00     0.045 C
HETATM   16  C18 UNL     1       4.558  46.603  15.954  1.00  0.00     0.038 C
HETATM   17  C19 UNL     1       3.165  46.289  15.472  1.00  0.00     0.203 C
HETATM   18  N4  UNL     1       3.089  44.965  14.872  1.00  0.00    -0.066 N
ATOM     19  H41 UNL     1       3.506  44.923  13.942  1.00  0.00     0.277 HD
ATOM     20  H42 UNL     1       2.142  44.703  14.602  1.00  0.00     0.277 HD
HETATM   21  C25 UNL     1       3.692  44.037  15.809  1.00  0.00     0.273 C
HETATM   22  O2  UNL     1       5.774  43.472  16.724  1.00  0.00    -0.225 OA
HETATM   23  O3  UNL     1       5.708  42.179  16.396  1.00  0.00    -0.195 OA
HETATM   24  O4  UNL     1       7.134  40.580  15.505  1.00  0.00    -0.193 OA
HETATM   25  O5  UNL     1       8.278  40.141  15.993  1.00  0.00    -0.197 OA
ENDROOT
BRANCH   1  26
HETATM   26  N1  UNL     1      10.311  37.019  18.806  1.00  0.00    -0.071 N
ATOM     27  H12 UNL     1      10.579  37.159  17.832  1.00  0.00     0.277 HD
ATOM     28  H11 UNL     1       9.963  36.061  18.757  1.00  0.00     0.277 HD
BRANCH  26  29
HETATM   29  C5  UNL     1      11.466  37.089  19.659  1.00  0.00     0.233 C
BRANCH  29  30
HETATM   30  C4  UNL     1      12.657  37.542  18.840  1.00  0.00     0.031 C
BRANCH  30  31
HETATM   31  C2  UNL     1      13.568  38.386  19.703  1.00  0.00    -0.021 C
HETATM   32  C1  UNL     1      14.990  37.935  19.443  1.00  0.00     0.009 C
HETATM   33  C3  UNL     1      13.375  39.865  19.438  1.00  0.00     0.009 C
ENDBRANCH  30  31
ENDBRANCH  29  30
ENDBRANCH  26  29
ENDBRANCH   1  26
BRANCH  17  34
HETATM   34  C20 UNL     1       2.631  47.260  14.484  1.00  0.00     0.155 C
BRANCH  34  35
HETATM   35  N3  UNL     1       1.279  47.660  14.784  1.00  0.00    -0.359 N
HETATM   36  C21 UNL     1       0.134  46.915  14.465  1.00  0.00     0.221 C
HETATM   37  O1  UNL     1       0.224  45.815  13.874  1.00  0.00    -0.273 OA
ATOM     38  H3  UNL     1       1.145  48.550  15.265  1.00  0.00     0.162 HD
BRANCH  36  39
HETATM   39  C22 UNL     1      -1.247  47.371  14.801  1.00  0.00     0.070 C
HETATM   40  C23 UNL     1      -2.213  47.028  13.678  1.00  0.00     0.019 C
HETATM   41  C24 UNL     1      -1.681  46.722  16.088  1.00  0.00     0.019 C
ENDBRANCH  36  39
ENDBRANCH  34  35
ENDBRANCH  17  34
TORSDOF 7
ENDMDL