MODEL 2
REMARK VINA RESULT: -7.663596584      1.621      1.908
REMARK  11 active torsions:
REMARK  status: ('A' for Active; 'I' for Inactive)
REMARK    1  A    between atoms: C2_2  and  C4_4
REMARK    2  A    between atoms: C4_4  and  C5_5
REMARK    3  A    between atoms: C6_7  and  C7_8
REMARK    4  A    between atoms: C7_8  and  C8_9
REMARK    5  A    between atoms: C8_9  and  C9_10
REMARK    6  A    between atoms: C9_10  and  O2_11
REMARK    7  A    between atoms: C9_10  and  C10_13
REMARK    8  A    between atoms: C10_13  and  C11_15
REMARK    9  A    between atoms: N1_16  and  N2_18
REMARK   10  A    between atoms: C18_27  and  O4_28
REMARK   11  A    between atoms: C25_37  and  O6_39
ROOT
HETATM    1  C5  UNL     1       3.715  44.710  15.439  1.00  0.00     0.159 C
HETATM    2  O1  UNL     1       2.737  43.864  15.789  1.00  0.00    -0.377 OA
HETATM    3  C6  UNL     1       2.593  43.328  17.008  1.00  0.00     0.129 C
HETATM    4  C12 UNL     1       1.421  43.727  17.858  1.00  0.00     0.033 C
HETATM    5  C13 UNL     1       1.752  43.506  19.368  1.00  0.00     0.017 C
HETATM    6  C14 UNL     1       0.165  42.981  17.632  1.00  0.00    -0.018 C
HETATM    7  C15 UNL     1      -0.842  43.156  16.840  1.00  0.00    -0.085 C
HETATM    8  C16 UNL     1      -1.936  42.083  16.987  1.00  0.00     0.043 C
HETATM    9  C17 UNL     1      -1.135  44.167  15.808  1.00  0.00     0.065 C
HETATM   10  C18 UNL     1      -1.337  45.505  16.359  1.00  0.00     0.133 C
HETATM   11  C19 UNL     1      -1.100  46.713  15.553  1.00  0.00     0.081 C
HETATM   12  C20 UNL     1      -2.442  47.323  15.111  1.00  0.00     0.020 C
HETATM   13  C21 UNL     1      -0.256  46.698  14.381  1.00  0.00     0.137 C
HETATM   14  O5  UNL     1      -0.713  46.260  13.342  1.00  0.00    -0.297 OA
HETATM   15  C22 UNL     1       1.194  47.195  14.330  1.00  0.00     0.054 C
HETATM   16  C23 UNL     1       1.152  48.617  14.819  1.00  0.00     0.018 C
HETATM   17  C24 UNL     1       1.841  46.236  15.230  1.00  0.00     0.051 C
HETATM   18  C25 UNL     1       3.220  46.192  15.617  1.00  0.00     0.081 C
HETATM   19  C26 UNL     1       4.158  47.147  14.919  1.00  0.00     0.049 C
ENDROOT
BRANCH   3  20
HETATM   20  C7  UNL     1       3.853  43.092  17.801  1.00  0.00     0.035 C
BRANCH  20  21
HETATM   21  C8  UNL     1       4.615  41.847  17.395  1.00  0.00     0.042 C
BRANCH  21  22
HETATM   22  C9  UNL     1       4.240  40.647  18.195  1.00  0.00     0.193 C
BRANCH  22  23
HETATM   23  O2  UNL     1       3.760  39.574  17.501  1.00  0.00    -0.388 OA
ATOM     24  H2  UNL     1       3.804  39.626  16.554  1.00  0.00     0.210 HD
ENDBRANCH  22  23
BRANCH  22  25
HETATM   25  C10 UNL     1       5.479  40.141  18.919  1.00  0.00     0.194 C
HETATM   26  O3  UNL     1       5.462  40.021  20.180  1.00  0.00    -0.289 OA
BRANCH  25  27
HETATM   27  C11 UNL     1       6.693  39.784  18.214  1.00  0.00     0.159 C
HETATM   28  N1  UNL     1       6.925  38.629  17.804  1.00  0.00    -0.315 N
ATOM     29  H1  UNL     1       7.815  38.505  17.320  1.00  0.00     0.185 HD
BRANCH  28  30
HETATM   30  N2  UNL     1       6.157  37.509  17.915  1.00  0.00    -0.345 N
ATOM     31  H22 UNL     1       5.367  37.602  18.555  1.00  0.00     0.176 HD
ATOM     32  H21 UNL     1       6.265  36.607  17.451  1.00  0.00     0.176 HD
ENDBRANCH  28  30
ENDBRANCH  25  27
ENDBRANCH  22  25
ENDBRANCH  21  22
ENDBRANCH  20  21
ENDBRANCH   3  20
BRANCH   1  33
HETATM   33  C4  UNL     1       3.949  44.692  13.951  1.00  0.00     0.068 C
BRANCH  33  34
HETATM   34  C2  UNL     1       5.241  44.290  13.444  1.00  0.00    -0.091 C
HETATM   35  C1  UNL     1       5.639  44.678  12.244  1.00  0.00     0.014 C
HETATM   36  C3  UNL     1       6.198  43.383  14.171  1.00  0.00     0.042 C
ENDBRANCH  33  34
ENDBRANCH   1  33
BRANCH  18  37
HETATM   37  O6  UNL     1       3.404  46.455  16.974  1.00  0.00    -0.388 OA
ATOM     38  H6  UNL     1       3.952  47.230  16.990  1.00  0.00     0.210 HD
ENDBRANCH  18  37
BRANCH  10  39
HETATM   39  O4  UNL     1      -2.711  45.564  16.764  1.00  0.00    -0.394 OA
ATOM     40  H4  UNL     1      -2.747  46.185  17.482  1.00  0.00     0.210 HD
ENDBRANCH  10  39
TORSDOF 11
ENDMDL