MODEL 2
REMARK VINA RESULT: -9.627038089      2.605      3.567
REMARK  11 active torsions:
REMARK  status: ('A' for Active; 'I' for Inactive)
REMARK    1  A    between atoms: C4_4  and  C5_5
REMARK    2  A    between atoms: C7_7  and  O1_8
REMARK    3  A    between atoms: C9_11  and  O2_12
REMARK    4  A    between atoms: C13_17  and  C14_18
REMARK    5  A    between atoms: C14_18  and  C15_19
REMARK    6  A    between atoms: C16_20  and  C17_21
REMARK    7  A    between atoms: N1_23  and  C19_24
REMARK    8  A    between atoms: C22_27  and  O3_28
REMARK    9  A    between atoms: C25_34  and  C26_35
REMARK   10  A    between atoms: C26_35  and  O4_36
REMARK   11  A    between atoms: C28_39  and  O5_40
ROOT
HETATM    1  C5  UNL     1       3.055  44.812  15.802  1.00  0.00    -0.003 C
HETATM    2  C6  UNL     1       1.532  44.910  16.187  1.00  0.00     0.037 C
HETATM    3  C7  UNL     1       1.025  43.644  16.759  1.00  0.00     0.125 C
HETATM    4  C8  UNL     1       1.781  43.350  18.015  1.00  0.00     0.048 C
HETATM    5  C9  UNL     1       1.525  41.987  18.602  1.00  0.00     0.125 C
HETATM    6  C10 UNL     1       2.772  41.766  19.427  1.00  0.00     0.032 C
HETATM    7  C11 UNL     1       3.843  42.707  18.843  1.00  0.00     0.008 C
HETATM    8  C12 UNL     1       3.246  43.165  17.558  1.00  0.00    -0.001 C
HETATM    9  C13 UNL     1       3.727  44.550  17.096  1.00  0.00    -0.002 C
ENDROOT
BRANCH   9  10
HETATM   10  C14 UNL     1       5.198  44.515  17.204  1.00  0.00     0.032 C
BRANCH  10  11
HETATM   11  C15 UNL     1       5.944  43.919  16.091  1.00  0.00    -0.025 C
HETATM   12  C16 UNL     1       6.547  42.900  15.686  1.00  0.00     0.011 C
BRANCH  12  13
HETATM   13  C17 UNL     1       7.012  41.601  15.831  1.00  0.00     0.007 A
HETATM   14  C18 UNL     1       6.909  40.817  16.936  1.00  0.00     0.124 A
HETATM   15  N1  UNL     1       7.638  39.713  16.811  1.00  0.00    -0.297 N
HETATM   16  N2  UNL     1       8.086  39.923  15.702  1.00  0.00    -0.300 N
HETATM   17  C25 UNL     1       8.060  40.734  14.810  1.00  0.00     0.061 A
ATOM     18  H2  UNL     1       8.691  39.148  15.432  1.00  0.00     0.187 HD
BRANCH  15  19
HETATM   19  C19 UNL     1       7.803  38.643  17.811  1.00  0.00     0.107 C
HETATM   20  C20 UNL     1       7.302  39.178  19.125  1.00  0.00     0.030 C
HETATM   21  C21 UNL     1       8.050  38.620  20.308  1.00  0.00     0.034 C
HETATM   22  C22 UNL     1       9.451  39.178  20.281  1.00  0.00     0.118 C
HETATM   23  C23 UNL     1       9.992  39.234  18.867  1.00  0.00     0.034 C
HETATM   24  C24 UNL     1       9.248  38.274  17.962  1.00  0.00     0.030 C
BRANCH  22  25
HETATM   25  O3  UNL     1      10.256  38.390  21.100  1.00  0.00    -0.396 OA
ATOM     26  H3  UNL     1       9.938  37.495  21.062  1.00  0.00     0.210 HD
ENDBRANCH  22  25
ENDBRANCH  15  19
BRANCH  17  27
HETATM   27  C26 UNL     1       8.029  41.701  13.745  1.00  0.00     0.223 C
BRANCH  27  28
HETATM   28  O4  UNL     1       9.277  41.737  13.160  1.00  0.00    -0.395 OA
ATOM     29  H4  UNL     1       9.175  41.555  12.233  1.00  0.00     0.209 HD
ENDBRANCH  27  28
ENDBRANCH  17  27
ENDBRANCH  12  13
ENDBRANCH  10  11
ENDBRANCH   9  10
BRANCH   1  30
HETATM   30  C4  UNL     1       3.303  46.125  15.183  1.00  0.00    -0.003 C
HETATM   31  C3  UNL     1       2.125  46.818  14.564  1.00  0.00     0.041 C
HETATM   32  C2  UNL     1       2.498  48.244  14.669  1.00  0.00    -0.060 C
HETATM   33  C1  UNL     1       1.751  49.314  14.660  1.00  0.00     0.017 C
HETATM   34  C28 UNL     1       4.020  48.279  14.830  1.00  0.00     0.146 C
HETATM   35  C27 UNL     1       4.140  47.132  15.889  1.00  0.00     0.041 C
BRANCH  34  36
HETATM   36  O5  UNL     1       4.489  49.463  15.301  1.00  0.00    -0.391 OA
ATOM     37  H5  UNL     1       5.430  49.476  15.427  1.00  0.00     0.210 HD
ENDBRANCH  34  36
ENDBRANCH   1  30
BRANCH   3  38
HETATM   38  O1  UNL     1       0.983  42.595  15.858  1.00  0.00    -0.395 OA
ATOM     39  H1  UNL     1       0.115  42.234  15.724  1.00  0.00     0.210 HD
ENDBRANCH   3  38
BRANCH   5  40
HETATM   40  O2  UNL     1       0.360  41.927  19.344  1.00  0.00    -0.395 OA
ATOM     41  H2  UNL     1       0.261  41.109  19.815  1.00  0.00     0.210 HD
ENDBRANCH   5  40
TORSDOF 11
ENDMDL