MODEL 3
REMARK VINA RESULT: -6.843260212      4.362      6.550
REMARK  11 active torsions:
REMARK  status: ('A' for Active; 'I' for Inactive)
REMARK    1  A    between atoms: C2_2  and  C3_3
REMARK    2  A    between atoms: C3_3  and  O1_5
REMARK    3  A    between atoms: C3_3  and  C5_7
REMARK    4  A    between atoms: C5_7  and  C6_8
REMARK    5  A    between atoms: C6_8  and  C7_9
REMARK    6  A    between atoms: C7_9  and  C9_11
REMARK    7  A    between atoms: C15_17  and  O2_18
REMARK    8  A    between atoms: C16_20  and  O3_21
REMARK    9  A    between atoms: C16_20  and  C17_23
REMARK   10  A    between atoms: C17_23  and  O5_25
REMARK   11  A    between atoms: C27_36  and  O7_37
ROOT
HETATM    1  C9  UNL     1       3.547  42.549  17.162  1.00  0.00     0.018 C
HETATM    2  C10 UNL     1       3.786  42.215  18.583  1.00  0.00     0.008 C
HETATM    3  C11 UNL     1       2.874  41.228  19.217  1.00  0.00     0.006 C
HETATM    4  C12 UNL     1       2.694  39.944  18.382  1.00  0.00     0.001 C
HETATM    5  C13 UNL     1       3.300  38.835  19.130  1.00  0.00     0.019 C
HETATM    6  C14 UNL     1       2.703  38.417  20.428  1.00  0.00     0.013 C
HETATM    7  C15 UNL     1       3.874  37.723  18.312  1.00  0.00     0.174 C
HETATM    8  C16 UNL     1       3.070  36.475  18.205  1.00  0.00     0.232 C
HETATM    9  C19 UNL     1       1.934  36.782  17.257  1.00  0.00     0.174 C
HETATM   10  O6  UNL     1       2.064  36.286  16.151  1.00  0.00    -0.294 OA
HETATM   11  C20 UNL     1       0.714  37.589  17.495  1.00  0.00     0.091 C
HETATM   12  C21 UNL     1       0.781  38.989  16.953  1.00  0.00    -0.033 C
HETATM   13  C22 UNL     1      -0.687  39.387  16.698  1.00  0.00     0.016 C
HETATM   14  C23 UNL     1       1.387  38.888  15.581  1.00  0.00     0.016 C
HETATM   15  C24 UNL     1       1.347  40.008  17.858  1.00  0.00    -0.030 C
HETATM   16  C25 UNL     1       0.315  40.188  18.986  1.00  0.00     0.016 C
HETATM   17  C26 UNL     1       1.285  41.350  17.094  1.00  0.00     0.042 C
HETATM   18  C27 UNL     1       2.508  41.793  16.419  1.00  0.00     0.123 C
ENDROOT
BRANCH   1  19
HETATM   19  C7  UNL     1       3.537  44.057  16.899  1.00  0.00    -0.012 C
HETATM   20  C8  UNL     1       3.224  44.894  18.068  1.00  0.00     0.010 C
BRANCH  19  21
HETATM   21  C6  UNL     1       4.900  44.440  16.358  1.00  0.00     0.008 C
BRANCH  21  22
HETATM   22  C5  UNL     1       4.749  45.407  15.197  1.00  0.00     0.042 C
BRANCH  22  23
HETATM   23  C3  UNL     1       5.139  44.677  13.923  1.00  0.00     0.071 C
HETATM   24  C4  UNL     1       6.221  43.674  14.208  1.00  0.00     0.050 C
BRANCH  23  25
HETATM   25  C2  UNL     1       5.675  45.711  12.985  1.00  0.00    -0.000 C
HETATM   26  C1  UNL     1       5.748  46.983  13.320  1.00  0.00     0.010 C
ENDBRANCH  23  25
BRANCH  23  27
HETATM   27  O1  UNL     1       4.006  44.118  13.385  1.00  0.00    -0.386 OA
ATOM     28  H1  UNL     1       3.906  43.231  13.711  1.00  0.00     0.211 HD
ENDBRANCH  23  27
ENDBRANCH  22  23
ENDBRANCH  21  22
ENDBRANCH  19  21
ENDBRANCH   1  19
BRANCH  18  29
HETATM   29  O7  UNL     1       2.083  42.729  15.422  1.00  0.00    -0.395 OA
ATOM     30  H7  UNL     1       1.234  42.391  15.162  1.00  0.00     0.210 HD
ENDBRANCH  18  29
BRANCH   7  31
HETATM   31  O2  UNL     1       5.166  37.334  18.695  1.00  0.00    -0.391 OA
ATOM     32  H2  UNL     1       5.201  36.854  19.514  1.00  0.00     0.210 HD
ENDBRANCH   7  31
BRANCH   8  33
HETATM   33  O3  UNL     1       2.563  35.995  19.381  1.00  0.00    -0.371 OA
ATOM     34  H3  UNL     1       1.661  35.697  19.348  1.00  0.00     0.211 HD
ENDBRANCH   8  33
BRANCH   8  35
HETATM   35  C17 UNL     1       3.872  35.426  17.570  1.00  0.00     0.303 C
HETATM   36  O4  UNL     1       4.626  35.724  16.611  1.00  0.00    -0.261 OA
BRANCH  35  37
HETATM   37  O5  UNL     1       3.878  34.092  17.941  1.00  0.00    -0.324 OA
HETATM   38  C18 UNL     1       2.934  33.170  17.421  1.00  0.00     0.213 C
ENDBRANCH  35  37
ENDBRANCH   8  35
TORSDOF 11
ENDMDL