MODEL 3
REMARK VINA RESULT: -8.748185695      4.768      7.711
REMARK  6 active torsions:
REMARK  status: ('A' for Active; 'I' for Inactive)
REMARK    1  A    between atoms: C4_8  and  S1_9
REMARK    2  A    between atoms: S1_9  and  C5_11
REMARK    3  A    between atoms: C5_11  and  C6_12
REMARK    4  A    between atoms: C6_12  and  C7_13
REMARK    5  A    between atoms: C7_13  and  C8_14
REMARK    6  A    between atoms: C12_20  and  C13_21
ROOT
HETATM    1  C6  UNL     1       5.120  46.429  14.794  1.00  0.00     0.092 A
HETATM    2  C9  UNL     1       3.845  45.819  14.307  1.00  0.00     0.081 A
HETATM    3  C10 UNL     1       3.241  45.274  15.556  1.00  0.00    -0.020 A
HETATM    4  C11 UNL     1       2.092  44.531  15.747  1.00  0.00     0.024 A
HETATM    5  C12 UNL     1       1.660  44.094  16.990  1.00  0.00    -0.004 A
HETATM    6  C20 UNL     1       2.477  44.458  18.069  1.00  0.00    -0.041 A
HETATM    7  C21 UNL     1       2.108  44.044  19.421  1.00  0.00     0.050 C
HETATM    8  C22 UNL     1       3.638  45.210  17.882  1.00  0.00    -0.021 A
HETATM    9  C23 UNL     1       4.472  45.575  19.044  1.00  0.00     0.052 C
HETATM   10  C24 UNL     1       4.014  45.611  16.641  1.00  0.00     0.082 A
HETATM   11  O4  UNL     1       5.100  46.352  16.185  1.00  0.00    -0.337 OA
ENDROOT
BRANCH   1  12
HETATM   12  C5  UNL     1       6.303  45.588  14.300  1.00  0.00     0.155 C
BRANCH  12  13
HETATM   13  S1  UNL     1       5.693  44.050  13.639  1.00  0.00     0.071 S
HETATM   14  O1  UNL     1       5.700  44.083  11.963  1.00  0.00    -0.251 OA
BRANCH  13  15
HETATM   15  C4  UNL     1       6.727  42.750  14.167  1.00  0.00     0.123 A
HETATM   16  C2  UNL     1       6.735  42.181  15.414  1.00  0.00     0.042 A
HETATM   17  C1  UNL     1       5.876  42.545  16.561  1.00  0.00     0.071 C
HETATM   18  N1  UNL     1       7.675  41.211  15.425  1.00  0.00    -0.354 N
HETATM   19  C3  UNL     1       8.245  41.171  14.213  1.00  0.00     0.181 A
ATOM     20  H1  UNL     1       7.909  40.613  16.218  1.00  0.00     0.166 HD
HETATM   21  N2  UNL     1       7.673  42.102  13.451  1.00  0.00    -0.344 N
ATOM     22  H2  UNL     1       7.911  42.296  12.478  1.00  0.00     0.167 HD
ENDBRANCH  13  15
ENDBRANCH  12  13
ENDBRANCH   1  12
BRANCH   1  23
HETATM   23  C7  UNL     1       5.283  47.864  14.365  1.00  0.00     0.152 C
BRANCH  23  24
HETATM   24  C8  UNL     1       4.057  48.673  14.535  1.00  0.00     0.175 C
HETATM   25  O2  UNL     1       3.535  48.969  15.636  1.00  0.00    -0.648 OA
HETATM   26  O3  UNL     1       3.436  49.139  13.394  1.00  0.00    -0.648 OA
ENDBRANCH  23  24
ENDBRANCH   1  23
BRANCH   5  27
HETATM   27  C13 UNL     1       0.434  43.325  17.156  1.00  0.00     0.043 C
HETATM   28  N3  UNL     1      -0.719  43.839  17.333  1.00  0.00    -0.306 N
HETATM   29  N4  UNL     1      -1.737  42.936  17.465  1.00  0.00    -0.130 NA
ATOM     30  H3  UNL     1      -0.871  44.847  17.373  1.00  0.00     0.182 HD
HETATM   31  C14 UNL     1      -1.141  41.649  17.731  1.00  0.00     0.056 C
HETATM   32  C15 UNL     1      -1.101  41.522  19.250  1.00  0.00     0.036 C
HETATM   33  C16 UNL     1      -1.851  40.509  17.086  1.00  0.00     0.036 C
HETATM   34  C17 UNL     1       0.268  41.856  17.173  1.00  0.00     0.020 C
HETATM   35  C18 UNL     1       0.363  41.338  15.753  1.00  0.00     0.024 C
HETATM   36  C19 UNL     1       1.178  41.118  18.101  1.00  0.00     0.024 C
ENDBRANCH   5  27
TORSDOF 6
ENDMDL