MODEL 2
REMARK VINA RESULT: -6.700583390      1.795      2.595
REMARK  12 active torsions:
REMARK  status: ('A' for Active; 'I' for Inactive)
REMARK    1  A    between atoms: C2_2  and  C4_4
REMARK    2  A    between atoms: C5_5  and  C6_6
REMARK    3  A    between atoms: C6_6  and  O1_7
REMARK    4  A    between atoms: C8_10  and  O2_11
REMARK    5  A    between atoms: C12_17  and  C13_18
REMARK    6  A    between atoms: C12_17  and  C14_21
REMARK    7  A    between atoms: C13_18  and  O4_19
REMARK    8  A    between atoms: C14_21  and  C15_22
REMARK    9  A    between atoms: C16_23  and  C17_24
REMARK   10  A    between atoms: C17_24  and  O5_27
REMARK   11  A    between atoms: O5_27  and  C20_28
REMARK   12  A    between atoms: C26_35  and  O7_36
ROOT
HETATM    1  C6  UNL     1       4.863  44.867  14.639  1.00  0.00     0.094 C
HETATM    2  C7  UNL     1       5.006  46.107  13.707  1.00  0.00     0.103 C
HETATM    3  C8  UNL     1       4.169  47.262  14.052  1.00  0.00     0.261 C
HETATM    4  O3  UNL     1       3.451  47.251  15.269  1.00  0.00    -0.350 OA
HETATM    5  C9  UNL     1       3.076  45.946  15.446  1.00  0.00     0.075 C
HETATM    6  C10 UNL     1       2.338  45.623  14.246  1.00  0.00     0.047 C
HETATM    7  C11 UNL     1       2.051  45.546  16.462  1.00  0.00     0.051 C
HETATM    8  C12 UNL     1       2.666  44.453  17.343  1.00  0.00    -0.005 C
HETATM    9  C22 UNL     1       4.005  45.007  17.231  1.00  0.00    -0.018 C
HETATM   10  C23 UNL     1       3.988  46.239  18.123  1.00  0.00     0.017 C
HETATM   11  C24 UNL     1       5.152  44.242  17.801  1.00  0.00     0.013 C
HETATM   12  C25 UNL     1       6.170  45.330  17.459  1.00  0.00     0.033 C
HETATM   13  C26 UNL     1       5.564  46.138  16.329  1.00  0.00     0.133 C
HETATM   14  C27 UNL     1       4.391  45.339  15.860  1.00  0.00     0.059 C
ENDROOT
BRANCH   8  15
HETATM   15  C13 UNL     1       1.866  44.438  18.579  1.00  0.00     0.174 C
BRANCH  15  16
HETATM   16  O4  UNL     1       2.255  43.683  19.657  1.00  0.00    -0.400 OA
ATOM     17  H4  UNL     1       1.648  43.083  20.074  1.00  0.00     0.209 HD
ENDBRANCH  15  16
ENDBRANCH   8  15
BRANCH   8  18
HETATM   18  C14 UNL     1       2.620  43.066  16.852  1.00  0.00     0.039 C
BRANCH  18  19
HETATM   19  C15 UNL     1       1.271  42.455  16.694  1.00  0.00    -0.027 C
HETATM   20  C16 UNL     1       0.781  41.513  17.487  1.00  0.00     0.007 C
BRANCH  20  21
HETATM   21  C17 UNL     1      -0.553  40.928  17.309  1.00  0.00     0.081 C
HETATM   22  C18 UNL     1      -0.381  39.406  17.246  1.00  0.00     0.051 C
HETATM   23  C19 UNL     1      -1.263  41.439  16.074  1.00  0.00     0.051 C
BRANCH  21  24
HETATM   24  O5  UNL     1      -1.408  41.175  18.412  1.00  0.00    -0.307 OA
BRANCH  24  25
HETATM   25  C20 UNL     1      -1.175  42.303  19.184  1.00  0.00     0.255 C
HETATM   26  C21 UNL     1      -1.739  43.642  18.805  1.00  0.00     0.126 C
HETATM   27  O6  UNL     1      -0.486  42.283  20.237  1.00  0.00    -0.266 OA
ENDBRANCH  24  25
ENDBRANCH  21  24
ENDBRANCH  20  21
ENDBRANCH  18  19
ENDBRANCH   8  18
BRANCH   1  28
HETATM   28  C5  UNL     1       6.124  44.104  14.470  1.00  0.00     0.012 C
HETATM   29  C4  UNL     1       6.222  42.814  14.748  1.00  0.00     0.005 C
BRANCH  29  30
HETATM   30  C2  UNL     1       7.464  42.075  14.578  1.00  0.00    -0.072 C
HETATM   31  C1  UNL     1       8.024  42.023  13.387  1.00  0.00     0.018 C
HETATM   32  C3  UNL     1       8.104  41.382  15.732  1.00  0.00     0.047 C
ENDBRANCH  29  30
ENDBRANCH   1  28
BRANCH   1  33
HETATM   33  O1  UNL     1       4.081  43.987  13.828  1.00  0.00    -0.385 OA
ATOM     34  H1  UNL     1       3.581  44.683  13.416  1.00  0.00     0.211 HD
ENDBRANCH   1  33
BRANCH  13  35
HETATM   35  O7  UNL     1       6.726  46.221  15.565  1.00  0.00    -0.395 OA
ATOM     36  H7  UNL     1       6.502  45.522  14.962  1.00  0.00     0.210 HD
ENDBRANCH  13  35
BRANCH   3  37
HETATM   37  O2  UNL     1       4.835  48.519  14.002  1.00  0.00    -0.371 OA
ATOM     38  H2  UNL     1       4.395  49.222  14.464  1.00  0.00     0.212 HD
ENDBRANCH   3  37
TORSDOF 12
ENDMDL