MODEL 3
REMARK VINA RESULT: -7.361866802      2.772      4.242
REMARK  8 active torsions:
REMARK  status: ('A' for Active; 'I' for Inactive)
REMARK    1  A    between atoms: C2_2  and  C3_3
REMARK    2  A    between atoms: N2_9  and  C6_10
REMARK    3  A    between atoms: C7_13  and  N4_14
REMARK    4  A    between atoms: C10_20  and  C11_21
REMARK    5  A    between atoms: C13_23  and  O1_24
REMARK    6  A    between atoms: C15_26  and  O2_27
REMARK    7  A    between atoms: C17_29  and  O3_30
REMARK    8  A    between atoms: C20_33  and  O4_34
ROOT
HETATM    1  C6  UNL     1       4.575  43.253  15.900  1.00  0.00     0.151 A
HETATM    2  N3  UNL     1       4.843  43.539  14.619  1.00  0.00    -0.325 N
ATOM      3  H3  UNL     1       4.186  44.109  14.086  1.00  0.00     0.169 HD
HETATM    4  C7  UNL     1       5.970  43.084  14.016  1.00  0.00     0.122 A
HETATM    5  C8  UNL     1       6.851  42.307  14.757  1.00  0.00     0.102 A
HETATM    6  C9  UNL     1       8.062  41.808  14.138  1.00  0.00     0.104 C
HETATM    7  N5  UNL     1       9.034  41.401  13.629  1.00  0.00    -0.191 NA
HETATM    8  C10 UNL     1       6.628  41.981  16.075  1.00  0.00     0.036 A
HETATM    9  C20 UNL     1       5.459  42.477  16.629  1.00  0.00     0.123 A
ENDROOT
BRANCH   4  10
HETATM   10  N4  UNL     1       6.242  43.353  12.771  1.00  0.00    -0.384 N
ATOM     11  H42 UNL     1       7.216  43.434  12.475  1.00  0.00     0.157 HD
ATOM     12  H41 UNL     1       5.509  43.485  12.073  1.00  0.00     0.157 HD
ENDBRANCH   4  10
BRANCH   8  13
HETATM   13  C11 UNL     1       7.563  41.169  16.843  1.00  0.00    -0.016 A
HETATM   14  C12 UNL     1       7.348  39.817  17.088  1.00  0.00     0.052 A
HETATM   15  C13 UNL     1       8.231  39.065  17.830  1.00  0.00     0.105 A
HETATM   16  C15 UNL     1       9.380  39.663  18.361  1.00  0.00     0.135 A
HETATM   17  C17 UNL     1       9.605  41.007  18.126  1.00  0.00     0.105 A
HETATM   18  C19 UNL     1       8.697  41.741  17.373  1.00  0.00     0.052 A
BRANCH  15  19
HETATM   19  O1  UNL     1       8.067  37.717  18.102  1.00  0.00    -0.353 OA
HETATM   20  C14 UNL     1       6.769  37.203  18.371  1.00  0.00     0.210 C
ENDBRANCH  15  19
BRANCH  16  21
HETATM   21  O2  UNL     1      10.266  38.924  19.103  1.00  0.00    -0.351 OA
HETATM   22  C16 UNL     1      10.259  38.712  20.477  1.00  0.00     0.210 C
ENDBRANCH  16  21
BRANCH  17  23
HETATM   23  O3  UNL     1      10.751  41.565  18.665  1.00  0.00    -0.353 OA
HETATM   24  C18 UNL     1      11.280  42.756  18.165  1.00  0.00     0.210 C
ENDBRANCH  17  23
ENDBRANCH   8  13
BRANCH   9  25
HETATM   25  O4  UNL     1       5.174  42.191  17.939  1.00  0.00    -0.356 OA
ATOM     26  H4  UNL     1       4.569  41.487  18.138  1.00  0.00     0.218 HD
ENDBRANCH   9  25
BRANCH   1  27
HETATM   27  N2  UNL     1       3.386  43.754  16.496  1.00  0.00    -0.263 N
HETATM   28  C5  UNL     1       3.138  45.083  16.959  1.00  0.00     0.181 C
HETATM   29  N1  UNL     1       1.825  45.163  17.485  1.00  0.00    -0.351 N
HETATM   30  S1  UNL     1       4.162  46.352  16.918  1.00  0.00    -0.040 SA
HETATM   31  C3  UNL     1       1.363  43.807  17.669  1.00  0.00     0.082 C
ATOM     32  H1  UNL     1       1.306  46.016  17.693  1.00  0.00     0.163 HD
HETATM   33  C4  UNL     1      -0.072  43.664  17.163  1.00  0.00     0.046 C
HETATM   34  C21 UNL     1       2.204  43.017  16.744  1.00  0.00     0.116 C
HETATM   35  S2  UNL     1       1.778  41.560  16.151  1.00  0.00    -0.062 SA
BRANCH  31  36
HETATM   36  C2  UNL     1       1.412  43.343  19.088  1.00  0.00     0.033 C
HETATM   37  C1  UNL     1       0.166  43.571  19.863  1.00  0.00     0.008 C
ENDBRANCH  31  36
ENDBRANCH   1  27
TORSDOF 8
ENDMDL