MODEL 5
REMARK VINA RESULT: -10.593421176      1.552      2.421
REMARK  14 active torsions:
REMARK  status: ('A' for Active; 'I' for Inactive)
REMARK    1  A    between atoms: C1_2  and  C2_4
REMARK    2  A    between atoms: C2_4  and  C3_5
REMARK    3  A    between atoms: C2_4  and  N1_12
REMARK    4  A    between atoms: C3_5  and  C4_6
REMARK       I    between atoms: N1_12  and  C10_14
REMARK    5  A    between atoms: C10_14  and  C11_16
REMARK    6  A    between atoms: C11_16  and  C12_17
REMARK    7  A    between atoms: C11_16  and  C19_24
REMARK    8  A    between atoms: C12_17  and  C13_18
REMARK    9  A    between atoms: C22_27  and  O4_28
REMARK   10  A    between atoms: O4_28  and  C23_29
REMARK   11  A    between atoms: C23_29  and  C24_30
REMARK   12  A    between atoms: C24_30  and  S1_31
REMARK   13  A    between atoms: S1_31  and  C25_32
REMARK   14  A    between atoms: C25_32  and  C26_33
ROOT
HETATM    1  C11 UNL     1      27.121  33.614  19.858  1.00  0.00     0.115 C
ENDROOT
BRANCH   1   2
HETATM    2  C10 UNL     1      25.848  34.041  20.463  1.00  0.00     0.227 C
HETATM    3  N1  UNL     1      25.592  35.296  21.060  1.00  0.00    -0.346 N
ATOM      4  H1  UNL     1      26.331  35.999  21.091  1.00  0.00     0.163 HD
HETATM    5  O3  UNL     1      24.865  33.221  20.464  1.00  0.00    -0.273 OA
BRANCH   3   6
HETATM    6  C2  UNL     1      24.288  35.598  21.629  1.00  0.00     0.189 C
BRANCH   6   7
HETATM    7  C1  UNL     1      24.331  35.587  23.108  1.00  0.00     0.197 C
HETATM    8  O1  UNL     1      24.805  36.589  23.697  1.00  0.00    -0.646 OA
HETATM    9  O2  UNL     1      23.878  34.534  23.881  1.00  0.00    -0.646 OA
ENDBRANCH   6   7
BRANCH   6  10
HETATM   10  C3  UNL     1      23.745  36.900  21.056  1.00  0.00     0.074 C
BRANCH  10  11
HETATM   11  C4  UNL     1      22.745  36.641  20.020  1.00  0.00    -0.056 A
HETATM   12  C5  UNL     1      21.464  37.207  20.106  1.00  0.00     0.007 A
HETATM   13  C6  UNL     1      20.538  36.970  19.131  1.00  0.00     0.001 A
HETATM   14  C7  UNL     1      20.873  36.172  18.063  1.00  0.00     0.000 A
HETATM   15  C8  UNL     1      22.126  35.600  17.948  1.00  0.00     0.001 A
HETATM   16  C9  UNL     1      23.054  35.849  18.943  1.00  0.00     0.007 A
ENDBRANCH  10  11
ENDBRANCH   6  10
ENDBRANCH   3   6
ENDBRANCH   1   2
BRANCH   1  17
HETATM   17  C12 UNL     1      26.967  33.140  18.435  1.00  0.00     0.057 C
BRANCH  17  18
HETATM   18  C13 UNL     1      26.539  34.265  17.546  1.00  0.00    -0.057 A
HETATM   19  C14 UNL     1      27.207  35.474  17.631  1.00  0.00     0.007 A
HETATM   20  C15 UNL     1      26.835  36.523  16.824  1.00  0.00     0.001 A
HETATM   21  C16 UNL     1      25.808  36.442  15.912  1.00  0.00     0.000 A
HETATM   22  C17 UNL     1      25.151  35.230  15.840  1.00  0.00     0.001 A
HETATM   23  C18 UNL     1      25.507  34.165  16.638  1.00  0.00     0.007 A
ENDBRANCH  17  18
ENDBRANCH   1  17
BRANCH   1  24
HETATM   24  C19 UNL     1      27.787  32.620  20.738  1.00  0.00    -0.045 A
HETATM   25  C20 UNL     1      28.054  32.920  22.080  1.00  0.00     0.011 A
HETATM   26  C21 UNL     1      28.684  32.032  22.923  1.00  0.00     0.037 A
HETATM   27  C22 UNL     1      29.078  30.807  22.479  1.00  0.00     0.068 A
HETATM   28  C32 UNL     1      28.825  30.491  21.164  1.00  0.00     0.037 A
HETATM   29  C33 UNL     1      28.188  31.379  20.292  1.00  0.00     0.011 A
BRANCH  27  30
HETATM   30  O4  UNL     1      29.716  29.864  23.274  1.00  0.00    -0.350 OA
BRANCH  30  31
HETATM   31  C23 UNL     1      30.635  30.224  24.286  1.00  0.00     0.186 C
BRANCH  31  32
HETATM   32  C24 UNL     1      32.017  29.750  23.893  1.00  0.00     0.101 C
BRANCH  32  33
HETATM   33  S1  UNL     1      32.120  27.952  23.820  1.00  0.00    -0.162 SA
BRANCH  33  34
HETATM   34  C25 UNL     1      31.121  27.144  25.065  1.00  0.00     0.112 C
BRANCH  34  35
HETATM   35  C26 UNL     1      30.218  26.100  24.529  1.00  0.00    -0.049 A
HETATM   36  C27 UNL     1      29.483  26.364  23.393  1.00  0.00     0.008 A
HETATM   37  C28 UNL     1      28.625  25.413  22.859  1.00  0.00     0.001 A
HETATM   38  C29 UNL     1      28.521  24.190  23.492  1.00  0.00     0.000 A
HETATM   39  C30 UNL     1      29.269  23.956  24.625  1.00  0.00     0.001 A
HETATM   40  C31 UNL     1      30.130  24.886  25.176  1.00  0.00     0.008 A
ENDBRANCH  34  35
ENDBRANCH  33  34
ENDBRANCH  32  33
ENDBRANCH  31  32
ENDBRANCH  30  31
ENDBRANCH  27  30
ENDBRANCH   1  24
TORSDOF 14
ENDMDL