MODEL 3
REMARK VINA RESULT: -7.237428687      3.631      7.201
REMARK  15 active torsions:
REMARK  status: ('A' for Active; 'I' for Inactive)
REMARK    1  A    between atoms: C2_2  and  C3_3
REMARK    2  A    between atoms: C3_3  and  C5_5
REMARK    3  A    between atoms: C5_5  and  C6_6
REMARK    4  A    between atoms: C5_5  and  C11_15
REMARK    5  A    between atoms: C5_5  and  C24_31
REMARK    6  A    between atoms: C7_7  and  C8_8
REMARK    7  A    between atoms: C8_8  and  N1_11
REMARK    8  A    between atoms: C11_15  and  C12_16
REMARK    9  A    between atoms: C17_21  and  O1_22
REMARK   10  A    between atoms: O1_22  and  C18_23
REMARK   11  A    between atoms: C18_23  and  C19_24
REMARK       I    between atoms: C19_24  and  N2_26
REMARK   12  A    between atoms: C24_31  and  C26_33
REMARK   13  A    between atoms: C26_33  and  C27_34
REMARK   14  A    between atoms: C27_34  and  C29_36
REMARK       I    between atoms: C29_36  and  N3_38
REMARK   15  A    between atoms: N3_38  and  C30_40
ROOT
HETATM    1  C5  UNL     1      26.284  34.468  18.024  1.00  0.00     0.002 C
ENDROOT
BRANCH   1   2
HETATM    2  C3  UNL     1      26.836  35.604  17.324  1.00  0.00    -0.003 C
HETATM    3  C4  UNL     1      28.305  35.967  17.682  1.00  0.00     0.011 C
BRANCH   2   4
HETATM    4  C2  UNL     1      26.176  36.945  17.464  1.00  0.00     0.001 C
HETATM    5  C1  UNL     1      26.287  37.616  16.076  1.00  0.00     0.005 C
ENDBRANCH   2   4
ENDBRANCH   1   2
BRANCH   1   6
HETATM    6  C6  UNL     1      26.171  34.869  19.528  1.00  0.00    -0.014 C
HETATM    7  C7  UNL     1      25.265  34.371  20.332  1.00  0.00     0.008 C
BRANCH   7   8
HETATM    8  C8  UNL     1      25.142  34.740  21.753  1.00  0.00     0.134 C
HETATM    9  C9  UNL     1      24.673  33.629  22.660  1.00  0.00     0.050 C
HETATM   10  C10 UNL     1      24.290  36.002  21.952  1.00  0.00     0.050 C
BRANCH   8  11
HETATM   11  N1  UNL     1      26.459  35.123  22.317  1.00  0.00    -0.068 N
ATOM     12  H13 UNL     1      26.480  35.018  23.332  1.00  0.00     0.275 HD
ATOM     13  H12 UNL     1      27.183  34.445  22.078  1.00  0.00     0.275 HD
ATOM     14  H11 UNL     1      26.718  36.067  22.031  1.00  0.00     0.275 HD
ENDBRANCH   8  11
ENDBRANCH   7   8
ENDBRANCH   1   6
BRANCH   1  15
HETATM   15  C11 UNL     1      24.878  34.002  17.725  1.00  0.00     0.002 C
BRANCH  15  16
HETATM   16  C12 UNL     1      24.015  34.697  16.801  1.00  0.00    -0.005 A
HETATM   17  C13 UNL     1      24.268  34.567  15.456  1.00  0.00     0.014 A
HETATM   18  C14 UNL     1      23.498  35.157  14.503  1.00  0.00     0.001 A
HETATM   19  C15 UNL     1      22.420  35.915  14.898  1.00  0.00     0.003 A
HETATM   20  C16 UNL     1      22.125  36.075  16.218  1.00  0.00     0.037 A
HETATM   21  C17 UNL     1      22.941  35.455  17.181  1.00  0.00     0.079 A
BRANCH  21  22
HETATM   22  O1  UNL     1      22.594  35.657  18.506  1.00  0.00    -0.341 OA
BRANCH  22  23
HETATM   23  C18 UNL     1      21.676  36.515  19.019  1.00  0.00     0.278 C
BRANCH  23  24
HETATM   24  C19 UNL     1      22.348  37.741  19.570  1.00  0.00     0.244 C
HETATM   25  O2  UNL     1      23.371  38.259  19.050  1.00  0.00    -0.271 OA
HETATM   26  N2  UNL     1      21.848  38.389  20.735  1.00  0.00    -0.350 N
HETATM   27  C20 UNL     1      22.375  39.572  21.382  1.00  0.00     0.126 C
HETATM   28  C23 UNL     1      20.692  37.932  21.475  1.00  0.00     0.126 C
HETATM   29  C21 UNL     1      22.069  39.334  22.840  1.00  0.00     0.021 C
HETATM   30  C22 UNL     1      20.795  38.548  22.844  1.00  0.00     0.021 C
ENDBRANCH  23  24
ENDBRANCH  22  23
ENDBRANCH  21  22
ENDBRANCH  15  16
ENDBRANCH   1  15
BRANCH   1  31
HETATM   31  C24 UNL     1      27.074  33.176  18.143  1.00  0.00    -0.002 C
HETATM   32  C25 UNL     1      26.364  31.949  17.680  1.00  0.00     0.011 C
BRANCH  31  33
HETATM   33  C26 UNL     1      27.900  33.031  19.359  1.00  0.00     0.019 C
BRANCH  33  34
HETATM   34  C27 UNL     1      28.090  31.629  19.873  1.00  0.00     0.074 C
HETATM   35  C28 UNL     1      27.436  31.625  21.271  1.00  0.00     0.020 C
BRANCH  34  36
HETATM   36  C29 UNL     1      29.551  31.388  20.182  1.00  0.00     0.222 C
HETATM   37  O3  UNL     1      30.418  32.285  20.142  1.00  0.00    -0.273 OA
HETATM   38  N3  UNL     1      30.004  30.087  20.540  1.00  0.00    -0.353 N
ATOM     39  H3  UNL     1      29.308  29.342  20.577  1.00  0.00     0.163 HD
BRANCH  38  40
HETATM   40  C30 UNL     1      31.354  29.740  20.850  1.00  0.00     0.022 C
HETATM   41  C31 UNL     1      31.515  28.234  21.059  1.00  0.00     0.037 C
HETATM   42  C32 UNL     1      32.316  30.167  19.783  1.00  0.00     0.037 C
HETATM   43  C33 UNL     1      31.764  30.376  22.161  1.00  0.00     0.037 C
ENDBRANCH  38  40
ENDBRANCH  34  36
ENDBRANCH  33  34
ENDBRANCH  31  33
ENDBRANCH   1  31
TORSDOF 15
ENDMDL