MODEL 4
REMARK VINA RESULT: -9.227566129      1.095      1.644
REMARK  13 active torsions:
REMARK  status: ('A' for Active; 'I' for Inactive)
REMARK    1  A    between atoms: O1_2  and  C2_3
REMARK    2  A    between atoms: C2_3  and  C4_5
REMARK    3  A    between atoms: C2_3  and  C20_28
REMARK       I    between atoms: C4_5  and  N1_7
REMARK    4  A    between atoms: N1_7  and  C5_9
REMARK    5  A    between atoms: C5_9  and  C6_10
REMARK    6  A    between atoms: C5_9  and  C10_14
REMARK    7  A    between atoms: C6_10  and  C7_11
REMARK       I    between atoms: C10_14  and  N2_16
REMARK    8  A    between atoms: N2_16  and  C11_18
REMARK    9  A    between atoms: C11_18  and  C12_19
REMARK   10  A    between atoms: C11_18  and  S1_26
REMARK   11  A    between atoms: C12_19  and  C13_20
REMARK   12  A    between atoms: C20_28  and  C21_29
REMARK   13  A    between atoms: C20_28  and  C27_35
ROOT
HETATM    1  C4  UNL     1      25.873  33.950  20.135  1.00  0.00     0.257 C
HETATM    2  O2  UNL     1      26.680  34.653  20.736  1.00  0.00    -0.270 OA
HETATM    3  N1  UNL     1      24.963  33.213  20.912  1.00  0.00    -0.345 N
ATOM      4  H1  UNL     1      24.276  32.620  20.446  1.00  0.00     0.163 HD
ENDROOT
BRANCH   3   5
HETATM    5  C5  UNL     1      24.981  33.277  22.381  1.00  0.00     0.177 C
BRANCH   5   6
HETATM    6  C6  UNL     1      25.241  34.661  22.867  1.00  0.00     0.038 C
BRANCH   6   7
HETATM    7  C7  UNL     1      24.204  35.241  23.766  1.00  0.00    -0.020 C
HETATM    8  C8  UNL     1      24.661  35.543  25.161  1.00  0.00     0.009 C
HETATM    9  C9  UNL     1      23.767  36.567  23.135  1.00  0.00     0.009 C
ENDBRANCH   6   7
ENDBRANCH   5   6
BRANCH   5  10
HETATM   10  C10 UNL     1      26.105  32.415  22.888  1.00  0.00     0.241 C
HETATM   11  O3  UNL     1      26.071  32.122  24.123  1.00  0.00    -0.271 OA
HETATM   12  N2  UNL     1      27.138  31.951  22.073  1.00  0.00    -0.346 N
ATOM     13  H2  UNL     1      27.133  32.208  21.085  1.00  0.00     0.163 HD
BRANCH  12  14
HETATM   14  C11 UNL     1      28.233  31.109  22.574  1.00  0.00     0.150 C
BRANCH  14  15
HETATM   15  C12 UNL     1      29.110  30.687  21.453  1.00  0.00     0.074 C
BRANCH  15  16
HETATM   16  C13 UNL     1      29.847  29.429  21.587  1.00  0.00    -0.056 A
HETATM   17  C14 UNL     1      31.052  29.181  20.960  1.00  0.00     0.007 A
HETATM   18  C15 UNL     1      31.720  27.977  21.101  1.00  0.00     0.001 A
HETATM   19  C16 UNL     1      31.208  26.966  21.877  1.00  0.00     0.000 A
HETATM   20  C17 UNL     1      29.997  27.182  22.521  1.00  0.00     0.001 A
HETATM   21  C18 UNL     1      29.337  28.399  22.371  1.00  0.00     0.007 A
ENDBRANCH  15  16
ENDBRANCH  14  15
BRANCH  14  22
HETATM   22  S1  UNL     1      29.051  32.032  23.875  1.00  0.00    -0.148 SA
HETATM   23  C19 UNL     1      30.447  31.181  24.609  1.00  0.00     0.092 C
ENDBRANCH  14  22
ENDBRANCH  12  14
ENDBRANCH   5  10
ENDBRANCH   3   5
BRANCH   1  24
HETATM   24  C2  UNL     1      25.832  33.869  18.684  1.00  0.00     0.165 C
HETATM   25  C3  UNL     1      24.806  32.679  18.499  1.00  0.00     0.062 C
BRANCH  24  26
HETATM   26  O1  UNL     1      26.938  33.285  18.117  1.00  0.00    -0.371 OA
HETATM   27  C1  UNL     1      27.214  31.992  18.201  1.00  0.00     0.203 C
ENDBRANCH  24  26
BRANCH  24  28
HETATM   28  C20 UNL     1      25.238  34.954  17.886  1.00  0.00     0.006 C
BRANCH  28  29
HETATM   29  C21 UNL     1      26.120  36.023  17.365  1.00  0.00    -0.026 A
HETATM   30  C22 UNL     1      25.620  37.132  16.666  1.00  0.00     0.012 A
HETATM   31  C23 UNL     1      26.375  38.147  16.185  1.00  0.00     0.001 A
HETATM   32  C24 UNL     1      27.736  38.123  16.376  1.00  0.00     0.000 A
HETATM   33  C25 UNL     1      28.295  37.065  17.053  1.00  0.00     0.001 A
HETATM   34  C26 UNL     1      27.490  36.050  17.529  1.00  0.00     0.012 A
ENDBRANCH  28  29
BRANCH  28  35
HETATM   35  C27 UNL     1      23.892  35.424  18.212  1.00  0.00    -0.026 A
HETATM   36  C28 UNL     1      22.739  35.131  17.468  1.00  0.00     0.012 A
HETATM   37  C29 UNL     1      21.503  35.626  17.806  1.00  0.00     0.001 A
HETATM   38  C30 UNL     1      21.332  36.439  18.899  1.00  0.00     0.000 A
HETATM   39  C31 UNL     1      22.436  36.746  19.649  1.00  0.00     0.001 A
HETATM   40  C32 UNL     1      23.682  36.239  19.295  1.00  0.00     0.012 A
ENDBRANCH  28  35
ENDBRANCH  24  28
ENDBRANCH   1  24
TORSDOF 13
ENDMDL