MODEL 4
REMARK VINA RESULT: -9.747678938      1.170      2.335
REMARK  14 active torsions:
REMARK  status: ('A' for Active; 'I' for Inactive)
REMARK    1  A    between atoms: C2_2  and  C3_3
REMARK    2  A    between atoms: C3_3  and  C4_4
REMARK    3  A    between atoms: C5_5  and  C6_6
REMARK    4  A    between atoms: C8_8  and  C9_9
REMARK       I    between atoms: N1_16  and  C14_17
REMARK    5  A    between atoms: C14_17  and  C15_19
REMARK    6  A    between atoms: C15_19  and  N2_20
REMARK    7  A    between atoms: C15_19  and  C16_24
REMARK    8  A    between atoms: C16_24  and  C17_26
REMARK    9  A    between atoms: C20_29  and  O5_30
REMARK   10  A    between atoms: O5_30  and  C21_31
REMARK   11  A    between atoms: C21_31  and  C22_32
REMARK   12  A    between atoms: C22_32  and  C23_33
REMARK   13  A    between atoms: C23_33  and  C24_34
REMARK   14  A    between atoms: C24_34  and  C25_35
ROOT
HETATM    1  C15 UNL     1      28.814  32.136  19.995  1.00  0.00     0.344 C
ENDROOT
BRANCH   1   2
HETATM    2  C14 UNL     1      27.563  32.885  20.377  1.00  0.00     0.262 C
HETATM    3  N1  UNL     1      26.491  33.104  19.436  1.00  0.00    -0.320 N
HETATM    4  C10 UNL     1      25.210  33.775  19.716  1.00  0.00     0.115 C
HETATM    5  C13 UNL     1      26.474  32.743  18.074  1.00  0.00     0.091 C
HETATM    6  C8  UNL     1      25.355  35.014  20.528  1.00  0.00     0.118 C
HETATM    7  C11 UNL     1      24.872  34.297  18.324  1.00  0.00     0.039 C
HETATM    8  C5  UNL     1      24.664  36.074  19.767  1.00  0.00     0.029 C
HETATM    9  C4  UNL     1      25.272  35.766  18.334  1.00  0.00     0.007 C
HETATM   10  C12 UNL     1      25.552  33.414  17.413  1.00  0.00    -0.002 C
HETATM   11  O3  UNL     1      27.531  33.295  21.551  1.00  0.00    -0.270 OA
BRANCH   6  12
HETATM   12  C9  UNL     1      25.044  34.911  21.953  1.00  0.00     0.179 C
HETATM   13  O1  UNL     1      24.669  33.751  22.349  1.00  0.00    -0.648 OA
HETATM   14  O2  UNL     1      25.095  35.872  22.920  1.00  0.00    -0.648 OA
ENDBRANCH   6  12
BRANCH   8  15
HETATM   15  C6  UNL     1      23.235  36.079  19.617  1.00  0.00    -0.031 C
HETATM   16  C7  UNL     1      22.303  36.885  20.051  1.00  0.00     0.007 C
ENDBRANCH   8  15
BRANCH   9  17
HETATM   17  C3  UNL     1      24.411  36.514  17.361  1.00  0.00     0.032 C
BRANCH  17  18
HETATM   18  C2  UNL     1      25.108  37.461  16.501  1.00  0.00    -0.036 C
HETATM   19  C1  UNL     1      26.385  37.609  16.277  1.00  0.00     0.007 C
ENDBRANCH  17  18
ENDBRANCH   9  17
ENDBRANCH   1   2
BRANCH   1  20
HETATM   20  N2  UNL     1      29.955  33.042  20.217  1.00  0.00    -0.059 N
ATOM     21  H23 UNL     1      30.278  33.494  19.361  1.00  0.00     0.275 HD
ATOM     22  H22 UNL     1      29.699  33.889  20.725  1.00  0.00     0.275 HD
ATOM     23  H21 UNL     1      30.686  32.504  20.682  1.00  0.00     0.275 HD
ENDBRANCH   1  20
BRANCH   1  24
HETATM   24  C16 UNL     1      28.966  31.070  21.017  1.00  0.00     0.170 C
HETATM   25  O4  UNL     1      28.038  30.253  21.118  1.00  0.00    -0.295 OA
BRANCH  24  26
HETATM   26  C17 UNL     1      30.103  30.875  21.934  1.00  0.00     0.058 C
HETATM   27  C18 UNL     1      29.792  30.076  23.160  1.00  0.00     0.015 C
HETATM   28  C19 UNL     1      30.782  28.951  23.293  1.00  0.00     0.033 C
HETATM   29  C20 UNL     1      30.653  28.106  22.004  1.00  0.00     0.121 C
HETATM   30  C31 UNL     1      31.360  28.910  20.955  1.00  0.00     0.033 C
HETATM   31  C32 UNL     1      31.331  30.380  21.195  1.00  0.00     0.015 C
BRANCH  29  32
HETATM   32  O5  UNL     1      31.155  26.853  22.240  1.00  0.00    -0.386 OA
BRANCH  32  33
HETATM   33  C21 UNL     1      30.433  25.912  21.528  1.00  0.00     0.168 C
BRANCH  33  34
HETATM   34  C22 UNL     1      29.115  25.616  22.149  1.00  0.00     0.026 C
BRANCH  34  35
HETATM   35  C23 UNL     1      28.977  24.169  22.505  1.00  0.00     0.002 C
BRANCH  35  36
HETATM   36  C24 UNL     1      28.749  24.036  23.994  1.00  0.00     0.005 C
BRANCH  36  37
HETATM   37  C25 UNL     1      30.048  24.164  24.781  1.00  0.00    -0.014 C
HETATM   38  C26 UNL     1      31.158  23.679  23.894  1.00  0.00     0.004 C
HETATM   39  C27 UNL     1      32.520  24.113  24.360  1.00  0.00     0.000 C
HETATM   40  C28 UNL     1      32.408  24.666  25.749  1.00  0.00     0.000 C
HETATM   41  C29 UNL     1      31.585  25.929  25.679  1.00  0.00     0.000 C
HETATM   42  C30 UNL     1      30.188  25.562  25.248  1.00  0.00     0.004 C
ENDBRANCH  36  37
ENDBRANCH  35  36
ENDBRANCH  34  35
ENDBRANCH  33  34
ENDBRANCH  32  33
ENDBRANCH  29  32
ENDBRANCH  24  26
ENDBRANCH   1  24
TORSDOF 14
ENDMDL