MODEL 2
REMARK VINA RESULT: -10.370086018      1.192      1.679
REMARK  15 active torsions:
REMARK  status: ('A' for Active; 'I' for Inactive)
REMARK    1  A    between atoms: C2_2  and  C3_3
REMARK    2  A    between atoms: C2_2  and  C25_28
REMARK    3  A    between atoms: C3_3  and  N1_4
REMARK    4  A    between atoms: N1_4  and  C4_5
REMARK    5  A    between atoms: N1_4  and  C12_13
REMARK    6  A    between atoms: C4_5  and  C5_6
REMARK    7  A    between atoms: C5_6  and  C6_7
REMARK    8  A    between atoms: C12_13  and  C13_14
REMARK    9  A    between atoms: C16_17  and  C17_18
REMARK   10  A    between atoms: C17_18  and  N2_19
REMARK   11  A    between atoms: C25_28  and  O1_29
REMARK   12  A    between atoms: C25_28  and  C26_31
REMARK   13  A    between atoms: C26_31  and  O2_32
REMARK   14  A    between atoms: O2_32  and  C27_33
REMARK   15  A    between atoms: C32_38  and  C33_39
ROOT
HETATM    1  N1  UNL     1      27.907  32.369  21.261  1.00  0.00     0.093 N
ENDROOT
BRANCH   1   2
HETATM    2  C3  UNL     1      27.679  33.306  22.328  1.00  0.00     0.279 C
BRANCH   2   3
HETATM    3  C2  UNL     1      27.191  32.635  23.592  1.00  0.00     0.041 C
HETATM    4  C1  UNL     1      28.296  32.543  24.627  1.00  0.00     0.014 C
BRANCH   3   5
HETATM    5  C25 UNL     1      26.084  33.497  24.166  1.00  0.00     0.147 C
BRANCH   5   6
HETATM    6  O1  UNL     1      25.093  32.687  24.760  1.00  0.00    -0.393 OA
ATOM      7  H1  UNL     1      24.513  33.216  25.295  1.00  0.00     0.210 HD
ENDBRANCH   5   6
BRANCH   5   8
HETATM    8  C26 UNL     1      25.360  34.280  23.077  1.00  0.00     0.207 C
BRANCH   8   9
HETATM    9  O2  UNL     1      25.286  35.651  23.431  1.00  0.00    -0.348 OA
BRANCH   9  10
HETATM   10  C27 UNL     1      24.262  36.408  22.894  1.00  0.00     0.075 A
HETATM   11  C28 UNL     1      23.944  36.316  21.532  1.00  0.00     0.037 A
HETATM   12  C29 UNL     1      22.913  37.087  21.026  1.00  0.00     0.003 A
HETATM   13  C30 UNL     1      22.211  37.934  21.858  1.00  0.00     0.001 A
HETATM   14  C31 UNL     1      22.546  38.011  23.215  1.00  0.00     0.011 A
HETATM   15  C32 UNL     1      23.569  37.249  23.731  1.00  0.00    -0.017 A
BRANCH  15  16
HETATM   16  C33 UNL     1      23.934  37.315  25.148  1.00  0.00    -0.021 C
HETATM   17  C34 UNL     1      23.702  36.008  25.874  1.00  0.00     0.019 C
HETATM   18  C35 UNL     1      23.092  38.373  25.868  1.00  0.00     0.019 C
HETATM   19  C36 UNL     1      25.377  37.705  25.372  1.00  0.00     0.019 C
ENDBRANCH  15  16
ENDBRANCH   9  10
ENDBRANCH   8   9
ENDBRANCH   5   8
ENDBRANCH   3   5
ENDBRANCH   2   3
ENDBRANCH   1   2
BRANCH   1  20
HETATM   20  C4  UNL     1      27.023  32.656  20.179  1.00  0.00     0.277 C
BRANCH  20  21
HETATM   21  C5  UNL     1      27.662  33.440  19.057  1.00  0.00     0.068 C
BRANCH  21  22
HETATM   22  C6  UNL     1      26.612  34.351  18.502  1.00  0.00    -0.057 A
HETATM   23  C7  UNL     1      26.943  35.468  17.763  1.00  0.00     0.007 A
HETATM   24  C8  UNL     1      25.981  36.311  17.251  1.00  0.00     0.001 A
HETATM   25  C9  UNL     1      24.661  36.063  17.462  1.00  0.00     0.000 A
HETATM   26  C10 UNL     1      24.296  34.950  18.199  1.00  0.00     0.001 A
HETATM   27  C11 UNL     1      25.270  34.111  18.709  1.00  0.00     0.007 A
ENDBRANCH  21  22
ENDBRANCH  20  21
ENDBRANCH   1  20
BRANCH   1  28
HETATM   28  C12 UNL     1      29.293  32.445  20.866  1.00  0.00     0.311 C
BRANCH  28  29
HETATM   29  C13 UNL     1      29.961  31.132  20.981  1.00  0.00    -0.030 A
HETATM   30  C14 UNL     1      31.195  30.984  20.380  1.00  0.00     0.009 A
HETATM   31  C15 UNL     1      31.816  29.759  20.503  1.00  0.00     0.009 A
HETATM   32  C16 UNL     1      31.262  28.698  21.189  1.00  0.00    -0.040 A
HETATM   33  C23 UNL     1      30.027  28.836  21.792  1.00  0.00     0.009 A
HETATM   34  C24 UNL     1      29.405  30.060  21.671  1.00  0.00     0.009 A
BRANCH  32  35
HETATM   35  C17 UNL     1      32.040  27.440  21.241  1.00  0.00     0.166 C
BRANCH  35  36
HETATM   36  N2  UNL     1      31.965  26.804  22.538  1.00  0.00    -0.362 N
HETATM   37  C18 UNL     1      31.569  25.523  22.564  1.00  0.00     0.092 A
HETATM   38  C19 UNL     1      31.455  24.795  23.727  1.00  0.00     0.043 A
HETATM   39  C20 UNL     1      31.754  25.382  24.941  1.00  0.00     0.049 A
HETATM   40  N3  UNL     1      31.657  24.688  26.171  1.00  0.00    -0.102 NA
HETATM   41  C21 UNL     1      32.158  26.705  24.867  1.00  0.00     0.043 A
HETATM   42  C22 UNL     1      32.263  27.407  23.690  1.00  0.00     0.092 A
ENDBRANCH  35  36
ENDBRANCH  32  35
ENDBRANCH  28  29
ENDBRANCH   1  28
TORSDOF 15
ENDMDL