MODEL 3
REMARK VINA RESULT: -9.494659522      2.300      5.263
REMARK  13 active torsions:
REMARK  status: ('A' for Active; 'I' for Inactive)
REMARK    1  A    between atoms: N1_2  and  C2_4
REMARK    2  A    between atoms: C2_4  and  C3_5
REMARK    3  A    between atoms: C2_4  and  C7_9
REMARK    4  A    between atoms: C3_5  and  C4_6
REMARK    5  A    between atoms: C7_9  and  N2_10
REMARK    6  A    between atoms: C7_9  and  C32_39
REMARK    7  A    between atoms: N2_10  and  C8_12
REMARK    8  A    between atoms: C8_12  and  C9_13
REMARK    9  A    between atoms: C9_13  and  C10_14
REMARK   10  A    between atoms: C9_13  and  N3_22
REMARK   11  A    between atoms: C10_14  and  C11_15
REMARK   12  A    between atoms: C11_15  and  C12_16
REMARK   13  A    between atoms: C22_27  and  C23_28
REMARK       I    between atoms: C23_28  and  N4_30
ROOT
HETATM    1  C9  UNL     1      29.126  31.505  20.824  1.00  0.00     0.118 C
ENDROOT
BRANCH   1   2
HETATM    2  C8  UNL     1      28.476  32.020  19.587  1.00  0.00     0.086 C
BRANCH   2   3
HETATM    3  N2  UNL     1      28.261  33.407  19.468  1.00  0.00    -0.366 N
ATOM      4  H2  UNL     1      29.000  34.074  19.692  1.00  0.00     0.165 HD
BRANCH   3   5
HETATM    5  C7  UNL     1      26.953  33.857  19.016  1.00  0.00     0.060 C
BRANCH   5   6
HETATM    6  C2  UNL     1      27.082  34.622  17.746  1.00  0.00     0.055 C
BRANCH   6   7
HETATM    7  N1  UNL     1      27.849  35.765  17.745  1.00  0.00    -0.374 N
HETATM    8  C1  UNL     1      27.785  36.916  17.031  1.00  0.00     0.118 C
ATOM      9  H1  UNL     1      28.619  35.741  18.414  1.00  0.00     0.164 HD
ENDBRANCH   6   7
BRANCH   6  10
HETATM   10  C3  UNL     1      26.015  34.373  16.741  1.00  0.00     0.009 C
BRANCH  10  11
HETATM   11  C4  UNL     1      24.774  35.131  16.611  1.00  0.00     0.002 C
HETATM   12  C5  UNL     1      23.735  34.205  17.369  1.00  0.00     0.013 C
HETATM   13  C6  UNL     1      24.154  35.127  15.197  1.00  0.00     0.013 C
ENDBRANCH  10  11
ENDBRANCH   6  10
ENDBRANCH   5   6
BRANCH   5  14
HETATM   14  C32 UNL     1      26.183  34.258  20.176  1.00  0.00    -0.059 C
HETATM   15  C33 UNL     1      26.890  34.913  21.332  1.00  0.00     0.045 C
HETATM   16  C34 UNL     1      25.194  33.299  20.757  1.00  0.00     0.045 C
ENDBRANCH   5  14
ENDBRANCH   3   5
ENDBRANCH   2   3
ENDBRANCH   1   2
BRANCH   1  17
HETATM   17  C10 UNL     1      28.082  30.595  21.507  1.00  0.00     0.031 C
BRANCH  17  18
HETATM   18  C11 UNL     1      27.895  30.852  22.947  1.00  0.00     0.007 C
BRANCH  18  19
HETATM   19  C12 UNL     1      27.695  32.283  23.346  1.00  0.00    -0.014 C
HETATM   20  C13 UNL     1      26.283  32.472  23.827  1.00  0.00     0.004 C
HETATM   21  C14 UNL     1      26.106  33.692  24.683  1.00  0.00     0.000 C
HETATM   22  C15 UNL     1      26.978  33.708  25.898  1.00  0.00     0.000 C
HETATM   23  C16 UNL     1      28.216  32.851  25.741  1.00  0.00     0.000 C
HETATM   24  C17 UNL     1      28.689  32.819  24.305  1.00  0.00     0.004 C
ENDBRANCH  18  19
ENDBRANCH  17  18
ENDBRANCH   1  17
BRANCH   1  25
HETATM   25  N3  UNL     1      30.316  30.863  20.857  1.00  0.00    -0.398 N
HETATM   26  C18 UNL     1      31.547  31.563  20.839  1.00  0.00     0.123 C
HETATM   27  C19 UNL     1      32.471  30.417  20.477  1.00  0.00     0.020 C
HETATM   28  C20 UNL     1      31.700  29.928  19.218  1.00  0.00     0.033 C
HETATM   29  C22 UNL     1      31.866  29.232  21.120  1.00  0.00     0.106 C
HETATM   30  C21 UNL     1      30.624  29.635  20.283  1.00  0.00     0.093 C
BRANCH  29  31
HETATM   31  C23 UNL     1      31.633  29.202  22.566  1.00  0.00     0.226 C
HETATM   32  O1  UNL     1      32.185  29.972  23.386  1.00  0.00    -0.273 OA
HETATM   33  N4  UNL     1      30.734  28.255  23.108  1.00  0.00    -0.352 N
HETATM   34  C24 UNL     1      30.460  28.194  24.526  1.00  0.00     0.126 C
HETATM   35  C31 UNL     1      30.076  27.323  22.212  1.00  0.00     0.126 C
HETATM   36  C25 UNL     1      31.005  26.896  25.056  1.00  0.00     0.029 C
HETATM   37  C26 UNL     1      30.728  25.800  24.085  1.00  0.00    -0.037 C
HETATM   38  C27 UNL     1      30.421  24.497  24.770  1.00  0.00     0.010 C
HETATM   39  C29 UNL     1      31.971  25.158  23.480  1.00  0.00     0.010 C
HETATM   40  C30 UNL     1      29.680  26.119  23.049  1.00  0.00     0.029 C
HETATM   41  C28 UNL     1      31.396  23.814  23.838  1.00  0.00     0.002 C
ENDBRANCH  29  31
ENDBRANCH   1  25
TORSDOF 13
ENDMDL