MODEL 5
REMARK VINA RESULT: -9.569683270      1.215      3.342
REMARK  15 active torsions:
REMARK  status: ('A' for Active; 'I' for Inactive)
REMARK    1  A    between atoms: C2_2  and  C4_4
REMARK    2  A    between atoms: C4_4  and  N1_5
REMARK    3  A    between atoms: C4_4  and  C5_9
REMARK    4  A    between atoms: C5_9  and  C6_10
REMARK    5  A    between atoms: C5_9  and  N2_17
REMARK    6  A    between atoms: C6_10  and  C7_11
REMARK       I    between atoms: N2_17  and  C13_19
REMARK    7  A    between atoms: C13_19  and  O2_21
REMARK    8  A    between atoms: O2_21  and  C14_22
REMARK    9  A    between atoms: C14_22  and  C15_23
REMARK   10  A    between atoms: C15_23  and  C16_24
REMARK   11  A    between atoms: C15_23  and  C24_33
REMARK   12  A    between atoms: C15_23  and  C30_39
REMARK   13  A    between atoms: C16_24  and  O3_25
REMARK   14  A    between atoms: O3_25  and  C17_26
REMARK   15  A    between atoms: C17_26  and  C18_27
ROOT
HETATM    1  C14 UNL     1      28.535  29.502  22.099  1.00  0.00     0.202 C
ENDROOT
BRANCH   1   2
HETATM    2  O2  UNL     1      28.417  30.633  22.945  1.00  0.00    -0.303 OA
BRANCH   2   3
HETATM    3  C13 UNL     1      27.414  31.591  22.815  1.00  0.00     0.360 C
HETATM    4  N2  UNL     1      27.068  32.153  21.570  1.00  0.00    -0.330 N
ATOM      5  H2  UNL     1      27.598  31.818  20.765  1.00  0.00     0.165 HD
HETATM    6  O1  UNL     1      26.861  31.893  23.915  1.00  0.00    -0.239 OA
BRANCH   4   7
HETATM    7  C5  UNL     1      26.080  33.122  21.300  1.00  0.00     0.121 C
BRANCH   7   8
HETATM    8  C4  UNL     1      25.650  33.176  19.845  1.00  0.00     0.209 C
BRANCH   8   9
HETATM    9  C2  UNL     1      26.826  33.228  18.911  1.00  0.00     0.010 C
HETATM   10  C1  UNL     1      26.859  32.068  17.959  1.00  0.00     0.011 C
HETATM   11  C3  UNL     1      26.714  34.501  18.083  1.00  0.00     0.011 C
ENDBRANCH   8   9
BRANCH   8  12
HETATM   12  N1  UNL     1      24.701  34.187  19.536  1.00  0.00    -0.073 N
ATOM     13  H13 UNL     1      25.149  35.010  19.132  1.00  0.00     0.274 HD
ATOM     14  H12 UNL     1      24.116  33.923  18.743  1.00  0.00     0.274 HD
ATOM     15  H11 UNL     1      24.140  34.429  20.352  1.00  0.00     0.274 HD
ENDBRANCH   8  12
ENDBRANCH   7   8
BRANCH   7  16
HETATM   16  C6  UNL     1      26.333  34.527  21.742  1.00  0.00     0.065 C
BRANCH  16  17
HETATM   17  C7  UNL     1      25.336  35.111  22.639  1.00  0.00    -0.056 A
HETATM   18  C8  UNL     1      25.325  34.691  23.968  1.00  0.00     0.007 A
HETATM   19  C9  UNL     1      24.414  35.180  24.880  1.00  0.00     0.001 A
HETATM   20  C10 UNL     1      23.477  36.105  24.509  1.00  0.00     0.000 A
HETATM   21  C11 UNL     1      23.466  36.537  23.200  1.00  0.00     0.001 A
HETATM   22  C12 UNL     1      24.378  36.041  22.305  1.00  0.00     0.007 A
ENDBRANCH  16  17
ENDBRANCH   7  16
ENDBRANCH   4   7
ENDBRANCH   2   3
ENDBRANCH   1   2
BRANCH   1  23
HETATM   23  C15 UNL     1      29.913  28.907  22.432  1.00  0.00     0.057 C
BRANCH  23  24
HETATM   24  C16 UNL     1      30.208  29.303  23.835  1.00  0.00     0.189 C
BRANCH  24  25
HETATM   25  O3  UNL     1      31.465  29.007  24.299  1.00  0.00    -0.385 OA
BRANCH  25  26
HETATM   26  C17 UNL     1      31.368  28.370  25.518  1.00  0.00     0.206 C
BRANCH  26  27
HETATM   27  C18 UNL     1      31.148  26.927  25.424  1.00  0.00    -0.035 A
HETATM   28  C19 UNL     1      30.000  26.272  25.766  1.00  0.00     0.009 A
HETATM   29  C20 UNL     1      29.903  24.899  25.635  1.00  0.00     0.001 A
HETATM   30  C21 UNL     1      30.991  24.170  25.151  1.00  0.00     0.000 A
HETATM   31  C22 UNL     1      32.159  24.808  24.800  1.00  0.00     0.001 A
HETATM   32  C23 UNL     1      32.215  26.163  24.942  1.00  0.00     0.009 A
ENDBRANCH  26  27
ENDBRANCH  25  26
ENDBRANCH  24  25
ENDBRANCH  23  24
BRANCH  23  33
HETATM   33  C24 UNL     1      30.844  29.557  21.459  1.00  0.00    -0.041 A
HETATM   34  C25 UNL     1      31.746  30.494  21.958  1.00  0.00     0.008 A
HETATM   35  C26 UNL     1      32.625  31.117  21.115  1.00  0.00     0.001 A
HETATM   36  C27 UNL     1      32.638  30.837  19.767  1.00  0.00     0.000 A
HETATM   37  C28 UNL     1      31.752  29.915  19.267  1.00  0.00     0.001 A
HETATM   38  C29 UNL     1      30.866  29.287  20.120  1.00  0.00     0.008 A
ENDBRANCH  23  33
BRANCH  23  39
HETATM   39  C30 UNL     1      29.939  27.450  22.211  1.00  0.00    -0.041 A
HETATM   40  C31 UNL     1      28.841  26.670  22.517  1.00  0.00     0.008 A
HETATM   41  C32 UNL     1      28.803  25.304  22.332  1.00  0.00     0.001 A
HETATM   42  C33 UNL     1      29.949  24.721  21.809  1.00  0.00     0.000 A
HETATM   43  C34 UNL     1      31.048  25.495  21.501  1.00  0.00     0.001 A
HETATM   44  C35 UNL     1      31.057  26.864  21.699  1.00  0.00     0.008 A
ENDBRANCH  23  39
ENDBRANCH   1  23
TORSDOF 15
ENDMDL