MODEL 2
REMARK VINA RESULT: -9.966598910      1.750      9.138
REMARK  13 active torsions:
REMARK  status: ('A' for Active; 'I' for Inactive)
REMARK    1  A    between atoms: C2_2  and  C3_3
REMARK    2  A    between atoms: C3_3  and  N1_4
REMARK    3  A    between atoms: C5_7  and  N2_8
REMARK    4  A    between atoms: N2_8  and  C6_10
REMARK    5  A    between atoms: C6_10  and  C7_11
REMARK    6  A    between atoms: C6_10  and  C17_24
REMARK    7  A    between atoms: C7_11  and  N3_12
REMARK    8  A    between atoms: N3_12  and  C8_15
REMARK    9  A    between atoms: C8_15  and  C10_17
REMARK   10  A    between atoms: C10_17  and  C11_18
REMARK   11  A    between atoms: C20_27  and  O2_28
REMARK   12  A    between atoms: O2_28  and  C21_29
REMARK   13  A    between atoms: C21_29  and  C22_30
ROOT
HETATM    1  C6  UNL     1      26.828  32.713  20.924  1.00  0.00     0.154 C
ENDROOT
BRANCH   1   2
HETATM    2  N2  UNL     1      27.593  31.620  21.327  1.00  0.00    -0.390 N
ATOM      3  H2  UNL     1      27.156  30.709  21.465  1.00  0.00     0.155 HD
BRANCH   2   4
HETATM    4  C5  UNL     1      28.995  31.789  21.546  1.00  0.00     0.239 C
HETATM    5  C4  UNL     1      29.449  31.509  22.953  1.00  0.00     0.258 C
HETATM    6  N1  UNL     1      30.550  30.619  23.366  1.00  0.00    -0.311 N
HETATM    7  O1  UNL     1      28.910  32.030  23.921  1.00  0.00    -0.270 OA
HETATM    8  C36 UNL     1      31.112  29.498  22.652  1.00  0.00     0.044 A
HETATM    9  C31 UNL     1      31.223  29.265  21.292  1.00  0.00    -0.021 A
HETATM   10  C35 UNL     1      31.611  28.533  23.513  1.00  0.00     0.030 A
HETATM   11  C30 UNL     1      30.743  30.123  20.120  1.00  0.00     0.123 C
HETATM   12  C32 UNL     1      31.798  28.137  20.806  1.00  0.00     0.010 A
HETATM   13  C29 UNL     1      29.821  31.044  20.659  1.00  0.00    -0.144 C
HETATM   14  C33 UNL     1      32.287  27.193  21.670  1.00  0.00     0.001 A
HETATM   15  C34 UNL     1      32.203  27.374  23.026  1.00  0.00     0.002 A
BRANCH   6  16
HETATM   16  C3  UNL     1      31.172  30.915  24.612  1.00  0.00     0.158 C
BRANCH  16  17
HETATM   17  C2  UNL     1      32.618  31.281  24.480  1.00  0.00    -0.017 C
HETATM   18  C1  UNL     1      33.262  32.101  25.275  1.00  0.00     0.008 C
ENDBRANCH  16  17
ENDBRANCH   6  16
ENDBRANCH   2   4
ENDBRANCH   1   2
BRANCH   1  19
HETATM   19  C7  UNL     1      27.708  33.807  20.371  1.00  0.00     0.263 C
BRANCH  19  20
HETATM   20  N3  UNL     1      27.669  33.903  18.936  1.00  0.00    -0.069 N
ATOM     21  H32 UNL     1      28.590  34.046  18.521  1.00  0.00     0.277 HD
ATOM     22  H31 UNL     1      27.457  33.014  18.483  1.00  0.00     0.277 HD
BRANCH  20  23
HETATM   23  C8  UNL     1      26.711  34.968  18.590  1.00  0.00     0.186 C
HETATM   24  C9  UNL     1      27.316  35.838  17.533  1.00  0.00     0.040 C
BRANCH  23  25
HETATM   25  C10 UNL     1      25.452  34.313  18.131  1.00  0.00     0.071 C
BRANCH  25  26
HETATM   26  C11 UNL     1      24.208  35.026  18.376  1.00  0.00    -0.056 A
HETATM   27  C12 UNL     1      24.037  35.986  19.378  1.00  0.00     0.007 A
HETATM   28  C13 UNL     1      22.837  36.636  19.594  1.00  0.00     0.001 A
HETATM   29  C14 UNL     1      21.739  36.365  18.819  1.00  0.00     0.000 A
HETATM   30  C15 UNL     1      21.868  35.425  17.820  1.00  0.00     0.001 A
HETATM   31  C16 UNL     1      23.066  34.781  17.612  1.00  0.00     0.007 A
ENDBRANCH  25  26
ENDBRANCH  23  25
ENDBRANCH  20  23
ENDBRANCH  19  20
ENDBRANCH   1  19
BRANCH   1  32
HETATM   32  C17 UNL     1      26.025  33.269  22.054  1.00  0.00     0.033 A
HETATM   33  C18 UNL     1      25.346  34.463  21.928  1.00  0.00     0.030 A
HETATM   34  C19 UNL     1      24.654  35.000  22.988  1.00  0.00     0.040 A
HETATM   35  C20 UNL     1      24.671  34.283  24.191  1.00  0.00     0.084 A
HETATM   36  C28 UNL     1      25.343  33.101  24.304  1.00  0.00     0.124 A
HETATM   37  N4  UNL     1      26.004  32.633  23.217  1.00  0.00    -0.365 N
ATOM     38  H4  UNL     1      26.509  31.750  23.298  1.00  0.00     0.165 HD
BRANCH  35  39
HETATM   39  O2  UNL     1      23.970  34.849  25.267  1.00  0.00    -0.345 OA
BRANCH  39  40
HETATM   40  C21 UNL     1      24.644  35.712  26.148  1.00  0.00     0.214 C
BRANCH  40  41
HETATM   41  C22 UNL     1      24.363  37.113  25.760  1.00  0.00    -0.034 A
HETATM   42  C23 UNL     1      25.452  37.914  25.427  1.00  0.00     0.009 A
HETATM   43  C24 UNL     1      25.312  39.221  25.030  1.00  0.00     0.001 A
HETATM   44  C25 UNL     1      24.056  39.770  24.956  1.00  0.00     0.000 A
HETATM   45  C26 UNL     1      22.961  39.000  25.281  1.00  0.00     0.001 A
HETATM   46  C27 UNL     1      23.131  37.692  25.676  1.00  0.00     0.009 A
ENDBRANCH  40  41
ENDBRANCH  39  40
ENDBRANCH  35  39
ENDBRANCH   1  32
TORSDOF 13
ENDMDL