MODEL 5
REMARK VINA RESULT: -10.435551231      1.432      2.463
REMARK  13 active torsions:
REMARK  status: ('A' for Active; 'I' for Inactive)
REMARK    1  A    between atoms: O1_2  and  C2_3
REMARK    2  A    between atoms: C4_5  and  C5_6
REMARK    3  A    between atoms: C5_6  and  C6_7
REMARK    4  A    between atoms: C6_7  and  N1_8
REMARK    5  A    between atoms: C6_7  and  C19_26
REMARK       I    between atoms: N1_8  and  C7_10
REMARK    6  A    between atoms: C7_10  and  C8_12
REMARK       I    between atoms: C8_12  and  N2_14
REMARK    7  A    between atoms: N2_14  and  C9_16
REMARK    8  A    between atoms: C9_16  and  C11_18
REMARK    9  A    between atoms: C11_18  and  C13_20
REMARK   10  A    between atoms: C27_34  and  O4_35
REMARK   11  A    between atoms: O4_35  and  C28_36
REMARK   12  A    between atoms: C28_36  and  C29_37
REMARK   13  A    between atoms: C29_37  and  C30_38
ROOT
HETATM    1  C6  UNL     1      27.407  33.021  22.125  1.00  0.00     0.122 C
ENDROOT
BRANCH   1   2
HETATM    2  C5  UNL     1      27.288  31.677  22.762  1.00  0.00     0.068 C
BRANCH   2   3
HETATM    3  C4  UNL     1      28.465  30.825  22.722  1.00  0.00    -0.053 A
HETATM    4  C3  UNL     1      29.442  31.032  23.723  1.00  0.00     0.046 A
HETATM    5  C2  UNL     1      30.604  30.318  23.766  1.00  0.00     0.102 A
HETATM    6  C27 UNL     1      30.879  29.334  22.799  1.00  0.00     0.102 A
HETATM    7  C26 UNL     1      29.933  29.126  21.824  1.00  0.00     0.040 A
HETATM    8  C25 UNL     1      28.753  29.874  21.809  1.00  0.00     0.010 A
BRANCH   5   9
HETATM    9  O1  UNL     1      31.565  30.537  24.773  1.00  0.00    -0.353 OA
HETATM   10  C1  UNL     1      31.512  29.783  25.976  1.00  0.00     0.210 C
ENDBRANCH   5   9
BRANCH   6  11
HETATM   11  O4  UNL     1      32.047  28.651  22.871  1.00  0.00    -0.348 OA
BRANCH  11  12
HETATM   12  C28 UNL     1      32.333  27.310  22.667  1.00  0.00     0.180 C
BRANCH  12  13
HETATM   13  C29 UNL     1      32.049  26.556  23.992  1.00  0.00     0.065 C
BRANCH  13  14
HETATM   14  C30 UNL     1      30.876  25.673  23.870  1.00  0.00    -0.056 A
HETATM   15  C31 UNL     1      30.199  25.639  22.674  1.00  0.00     0.007 A
HETATM   16  C32 UNL     1      29.079  24.834  22.501  1.00  0.00     0.001 A
HETATM   17  C33 UNL     1      28.646  24.062  23.542  1.00  0.00     0.000 A
HETATM   18  C34 UNL     1      29.325  24.095  24.740  1.00  0.00     0.001 A
HETATM   19  C35 UNL     1      30.438  24.900  24.905  1.00  0.00     0.007 A
ENDBRANCH  13  14
ENDBRANCH  12  13
ENDBRANCH  11  12
ENDBRANCH   6  11
ENDBRANCH   2   3
ENDBRANCH   1   2
BRANCH   1  20
HETATM   20  N1  UNL     1      26.830  34.077  22.918  1.00  0.00    -0.344 N
HETATM   21  C7  UNL     1      25.798  33.723  23.883  1.00  0.00     0.309 C
HETATM   22  O2  UNL     1      25.469  32.548  24.034  1.00  0.00    -0.262 OA
ATOM     23  H1  UNL     1      27.136  35.044  22.808  1.00  0.00     0.163 HD
BRANCH  21  24
HETATM   24  C8  UNL     1      25.155  34.767  24.665  1.00  0.00     0.309 C
HETATM   25  O3  UNL     1      24.340  34.416  25.542  1.00  0.00    -0.262 OA
HETATM   26  N2  UNL     1      25.427  36.174  24.466  1.00  0.00    -0.348 N
ATOM     27  H2  UNL     1      26.075  36.488  23.744  1.00  0.00     0.163 HD
BRANCH  26  28
HETATM   28  C9  UNL     1      24.763  37.102  25.308  1.00  0.00     0.088 C
HETATM   29  C10 UNL     1      25.654  38.302  25.523  1.00  0.00     0.033 C
BRANCH  28  30
HETATM   30  C11 UNL     1      23.408  37.594  24.850  1.00  0.00     0.037 C
HETATM   31  C12 UNL     1      22.852  38.735  25.612  1.00  0.00     0.017 C
BRANCH  30  32
HETATM   32  C13 UNL     1      23.376  37.768  23.368  1.00  0.00    -0.052 A
HETATM   33  C14 UNL     1      23.379  39.018  22.797  1.00  0.00     0.007 A
HETATM   34  C15 UNL     1      23.337  39.202  21.430  1.00  0.00     0.001 A
HETATM   35  C16 UNL     1      23.291  38.144  20.572  1.00  0.00     0.000 A
HETATM   36  C17 UNL     1      23.290  36.858  21.129  1.00  0.00     0.001 A
HETATM   37  C18 UNL     1      23.331  36.699  22.478  1.00  0.00     0.007 A
ENDBRANCH  30  32
ENDBRANCH  28  30
ENDBRANCH  26  28
ENDBRANCH  21  24
ENDBRANCH   1  20
BRANCH   1  38
HETATM   38  C19 UNL     1      26.797  33.022  20.749  1.00  0.00    -0.035 A
HETATM   39  C20 UNL     1      27.479  32.398  19.742  1.00  0.00     0.009 A
HETATM   40  C21 UNL     1      27.002  32.341  18.421  1.00  0.00     0.001 A
HETATM   41  C22 UNL     1      25.798  32.943  18.141  1.00  0.00     0.000 A
HETATM   42  C23 UNL     1      25.122  33.572  19.175  1.00  0.00     0.001 A
HETATM   43  C24 UNL     1      25.596  33.623  20.470  1.00  0.00     0.009 A
ENDBRANCH   1  38
TORSDOF 13
ENDMDL