MODEL 2
REMARK VINA RESULT: -9.815617646      2.083      3.038
REMARK  14 active torsions:
REMARK  status: ('A' for Active; 'I' for Inactive)
REMARK    1  A    between atoms: C2_3  and  O2_4
REMARK    2  A    between atoms: C2_3  and  C3_6
REMARK    3  A    between atoms: C3_6  and  C4_7
REMARK    4  A    between atoms: C4_7  and  C6_9
REMARK       I    between atoms: C6_9  and  N1_11
REMARK    5  A    between atoms: N1_11  and  C7_12
REMARK    6  A    between atoms: N1_11  and  C26_38
REMARK    7  A    between atoms: C7_12  and  C8_13
REMARK       I    between atoms: N2_16  and  C11_18
REMARK       I    between atoms: C11_18  and  N3_20
REMARK    8  A    between atoms: N3_20  and  C12_22
REMARK    9  A    between atoms: C12_22  and  C14_24
REMARK   10  A    between atoms: C14_24  and  C15_25
REMARK   11  A    between atoms: C16_26  and  C18_28
REMARK   12  A    between atoms: C18_28  and  C19_29
REMARK   13  A    between atoms: C19_29  and  C20_30
REMARK   14  A    between atoms: C20_30  and  C21_31
ROOT
HETATM    1  C1  UNL     1      29.924  24.052  21.096  1.00  0.00     0.204 C
HETATM    2  O1  UNL     1      29.819  24.895  22.106  1.00  0.00    -0.365 OA
HETATM    3  C2  UNL     1      29.596  25.726  23.018  1.00  0.00     0.265 C
ENDROOT
BRANCH   3   4
HETATM    4  O2  UNL     1      28.404  26.280  22.938  1.00  0.00    -0.370 OA
ATOM      5  H2  UNL     1      28.378  27.033  22.359  1.00  0.00     0.212 HD
ENDBRANCH   3   4
BRANCH   3   6
HETATM    6  C3  UNL     1      30.470  26.200  24.189  1.00  0.00     0.021 C
HETATM    7  C29 UNL     1      31.674  25.332  24.330  1.00  0.00     0.015 C
HETATM    8  C30 UNL     1      30.875  24.442  25.292  1.00  0.00     0.002 C
HETATM    9  C31 UNL     1      29.906  25.586  25.462  1.00  0.00     0.015 C
BRANCH   6  10
HETATM   10  C4  UNL     1      30.586  27.678  24.183  1.00  0.00     0.087 C
HETATM   11  C5  UNL     1      31.222  28.165  25.504  1.00  0.00     0.021 C
BRANCH  10  12
HETATM   12  C6  UNL     1      31.321  28.235  23.049  1.00  0.00     0.228 C
HETATM   13  O3  UNL     1      32.566  28.009  22.963  1.00  0.00    -0.273 OA
HETATM   14  N1  UNL     1      30.795  29.036  22.000  1.00  0.00    -0.322 N
BRANCH  14  15
HETATM   15  C7  UNL     1      29.425  29.335  21.869  1.00  0.00     0.123 C
BRANCH  15  16
HETATM   16  C8  UNL     1      28.891  30.543  22.521  1.00  0.00     0.050 A
HETATM   17  C9  UNL     1      27.800  31.230  21.951  1.00  0.00     0.060 A
HETATM   18  C10 UNL     1      27.270  32.374  22.488  1.00  0.00     0.039 A
HETATM   19  N2  UNL     1      26.274  32.974  21.904  1.00  0.00    -0.309 N
HETATM   20  C24 UNL     1      27.815  32.885  23.637  1.00  0.00     0.046 A
HETATM   21  C11 UNL     1      25.803  34.172  22.565  1.00  0.00     0.321 C
ATOM     22  H2  UNL     1      25.855  32.626  21.042  1.00  0.00     0.170 HD
HETATM   23  O4  UNL     1      26.216  35.236  22.082  1.00  0.00    -0.247 OA
HETATM   24  N3  UNL     1      24.937  34.090  23.671  1.00  0.00    -0.338 N
ATOM     25  H3  UNL     1      24.661  33.155  23.967  1.00  0.00     0.164 HD
HETATM   26  C25 UNL     1      28.884  32.210  24.197  1.00  0.00     0.090 A
HETATM   27  N4  UNL     1      29.383  31.077  23.633  1.00  0.00    -0.365 N
ATOM     28  H4  UNL     1      30.172  30.616  24.086  1.00  0.00     0.165 HD
BRANCH  24  29
HETATM   29  C12 UNL     1      24.401  35.189  24.427  1.00  0.00     0.085 C
HETATM   30  C13 UNL     1      24.218  34.936  25.875  1.00  0.00     0.032 C
BRANCH  29  31
HETATM   31  C14 UNL     1      23.133  35.759  23.785  1.00  0.00     0.052 C
BRANCH  31  32
HETATM   32  C15 UNL     1      23.486  36.936  22.942  1.00  0.00    -0.022 C
HETATM   33  C16 UNL     1      22.540  37.884  22.653  1.00  0.00    -0.087 C
HETATM   34  C17 UNL     1      21.209  37.664  23.218  1.00  0.00     0.043 C
BRANCH  33  35
HETATM   35  C18 UNL     1      22.934  39.030  21.815  1.00  0.00     0.033 C
BRANCH  35  36
HETATM   36  C19 UNL     1      23.231  38.809  20.396  1.00  0.00     0.005 C
BRANCH  36  37
HETATM   37  C20 UNL     1      22.339  38.096  19.479  1.00  0.00     0.004 C
BRANCH  37  38
HETATM   38  C21 UNL     1      22.817  36.836  18.846  1.00  0.00    -0.023 C
HETATM   39  C22 UNL     1      23.806  35.986  19.525  1.00  0.00     0.009 C
HETATM   40  C23 UNL     1      21.605  35.978  18.434  1.00  0.00     0.009 C
ENDBRANCH  37  38
ENDBRANCH  36  37
ENDBRANCH  35  36
ENDBRANCH  33  35
ENDBRANCH  31  32
ENDBRANCH  29  31
ENDBRANCH  24  29
ENDBRANCH  15  16
ENDBRANCH  14  15
BRANCH  14  41
HETATM   41  C26 UNL     1      31.754  29.596  21.046  1.00  0.00     0.084 C
HETATM   42  C27 UNL     1      31.241  29.623  19.650  1.00  0.00     0.032 C
HETATM   43  C28 UNL     1      32.273  30.923  21.478  1.00  0.00     0.032 C
ENDBRANCH  14  41
ENDBRANCH  10  12
ENDBRANCH   6  10
ENDBRANCH   3   6
TORSDOF 14
ENDMDL