MODEL 4
REMARK VINA RESULT: -7.066398777      2.902      6.358
REMARK  12 active torsions:
REMARK  status: ('A' for Active; 'I' for Inactive)
REMARK    1  A    between atoms: C2_2  and  C4_4
REMARK    2  A    between atoms: C4_4  and  C5_5
REMARK    3  A    between atoms: C7_10  and  C8_11
REMARK    4  A    between atoms: C8_11  and  C9_12
REMARK    5  A    between atoms: C9_12  and  C10_13
REMARK    6  A    between atoms: C10_13  and  N2_14
REMARK    7  A    between atoms: N6_23  and  C13_24
REMARK    8  A    between atoms: C13_24  and  C14_25
REMARK    9  A    between atoms: C19_31  and  C20_32
REMARK   10  A    between atoms: C20_32  and  C21_33
REMARK   11  A    between atoms: C25_40  and  C26_41
REMARK   12  A    between atoms: C26_41  and  C27_42
ROOT
HETATM    1  C5  UNL     1      15.759 -16.997  20.532  1.00  0.00     0.177 C
HETATM    2  N1  UNL     1      16.712 -18.002  21.078  1.00  0.00    -0.346 N
ATOM      3  H1  UNL     1      16.886 -18.841  20.527  1.00  0.00     0.163 HD
HETATM    4  C6  UNL     1      17.387 -17.870  22.302  1.00  0.00     0.241 C
HETATM    5  O1  UNL     1      18.574 -18.361  22.293  1.00  0.00    -0.271 OA
HETATM    6  C7  UNL     1      16.895 -17.253  23.544  1.00  0.00     0.178 C
HETATM    7  N5  UNL     1      16.838 -15.839  23.592  1.00  0.00    -0.329 N
ATOM      8  H5  UNL     1      15.975 -15.426  23.236  1.00  0.00     0.165 HD
HETATM    9  C12 UNL     1      17.808 -14.907  24.067  1.00  0.00     0.325 C
HETATM   10  O2  UNL     1      17.373 -13.985  24.845  1.00  0.00    -0.247 OA
HETATM   11  N6  UNL     1      19.194 -14.881  23.780  1.00  0.00    -0.268 N
HETATM   12  C18 UNL     1      19.743 -15.009  22.473  1.00  0.00     0.250 C
HETATM   13  O3  UNL     1      20.801 -15.753  22.434  1.00  0.00    -0.271 OA
HETATM   14  C19 UNL     1      19.344 -14.470  21.193  1.00  0.00     0.177 C
HETATM   15  N7  UNL     1      18.008 -13.979  21.044  1.00  0.00    -0.346 N
ATOM     16  H7  UNL     1      17.594 -13.510  21.849  1.00  0.00     0.163 HD
HETATM   17  C24 UNL     1      17.205 -14.085  19.875  1.00  0.00     0.241 C
HETATM   18  O4  UNL     1      16.076 -13.531  19.870  1.00  0.00    -0.271 OA
HETATM   19  C25 UNL     1      17.579 -14.797  18.627  1.00  0.00     0.177 C
HETATM   20  N8  UNL     1      17.141 -16.142  18.511  1.00  0.00    -0.346 N
ATOM     21  H8  UNL     1      17.726 -16.704  17.892  1.00  0.00     0.163 HD
HETATM   22  C30 UNL     1      16.081 -16.860  19.064  1.00  0.00     0.241 C
HETATM   23  O5  UNL     1      15.285 -17.479  18.292  1.00  0.00    -0.271 OA
ENDROOT
BRANCH   6  24
HETATM   24  C8  UNL     1      17.599 -17.847  24.779  1.00  0.00     0.036 C
BRANCH  24  25
HETATM   25  C9  UNL     1      16.621 -18.323  25.814  1.00  0.00     0.022 C
BRANCH  25  26
HETATM   26  C10 UNL     1      15.795 -19.487  25.318  1.00  0.00     0.122 C
BRANCH  26  27
HETATM   27  N2  UNL     1      14.658 -19.668  26.191  1.00  0.00    -0.367 N
HETATM   28  C11 UNL     1      13.479 -19.586  25.691  1.00  0.00     0.196 C
HETATM   29  N3  UNL     1      12.297 -19.748  26.469  1.00  0.00    -0.067 NA
HETATM   30  N4  UNL     1      13.310 -19.322  24.311  1.00  0.00    -0.067 NA
ATOM     31  H2  UNL     1      14.790 -19.857  27.185  1.00  0.00     0.161 HD
ENDBRANCH  26  27
ENDBRANCH  25  26
ENDBRANCH  24  25
ENDBRANCH   6  24
BRANCH   1  32
HETATM   32  C4  UNL     1      14.412 -17.606  20.727  1.00  0.00     0.038 C
BRANCH  32  33
HETATM   33  C2  UNL     1      13.548 -16.834  21.659  1.00  0.00    -0.020 C
HETATM   34  C1  UNL     1      12.067 -17.072  21.407  1.00  0.00     0.009 C
HETATM   35  C3  UNL     1      13.825 -15.337  21.589  1.00  0.00     0.009 C
ENDBRANCH  32  33
ENDBRANCH   1  32
BRANCH  11  36
HETATM   36  C13 UNL     1      20.147 -14.740  24.855  1.00  0.00     0.145 C
BRANCH  36  37
HETATM   37  C14 UNL     1      20.949 -13.526  24.992  1.00  0.00    -0.035 C
HETATM   38  C15 UNL     1      20.805 -13.068  26.487  1.00  0.00     0.016 C
HETATM   39  C16 UNL     1      22.467 -13.740  24.878  1.00  0.00     0.016 C
HETATM   40  C17 UNL     1      20.620 -12.307  24.223  1.00  0.00     0.016 C
ENDBRANCH  36  37
ENDBRANCH  11  36
BRANCH  14  41
HETATM   41  C20 UNL     1      20.275 -13.431  20.618  1.00  0.00     0.038 C
BRANCH  41  42
HETATM   42  C21 UNL     1      21.253 -13.909  19.614  1.00  0.00    -0.020 C
HETATM   43  C22 UNL     1      20.825 -15.147  18.872  1.00  0.00     0.009 C
HETATM   44  C23 UNL     1      21.448 -12.806  18.556  1.00  0.00     0.009 C
ENDBRANCH  41  42
ENDBRANCH  14  41
BRANCH  19  45
HETATM   45  C26 UNL     1      17.225 -13.934  17.465  1.00  0.00     0.038 C
BRANCH  45  46
HETATM   46  C27 UNL     1      18.017 -12.721  17.184  1.00  0.00    -0.020 C
HETATM   47  C28 UNL     1      18.902 -12.719  15.997  1.00  0.00     0.009 C
HETATM   48  C29 UNL     1      17.001 -11.566  17.007  1.00  0.00     0.009 C
ENDBRANCH  45  46
ENDBRANCH  19  45
TORSDOF 12
ENDMDL