MODEL 1
REMARK VINA RESULT: -6.914220261      0.000      0.000
REMARK  14 active torsions:
REMARK  status: ('A' for Active; 'I' for Inactive)
REMARK    1  A    between atoms: C2_2  and  C3_3
REMARK    2  A    between atoms: C3_3  and  C5_5
REMARK    3  A    between atoms: C6_6  and  O1_7
REMARK    4  A    between atoms: C7_11  and  C8_12
REMARK    5  A    between atoms: C8_12  and  C9_13
REMARK    6  A    between atoms: C13_20  and  C14_21
REMARK    7  A    between atoms: C14_21  and  C15_22
REMARK    8  A    between atoms: C19_29  and  C20_30
REMARK    9  A    between atoms: C20_30  and  C21_31
REMARK   10  A    between atoms: C25_38  and  C26_39
REMARK   11  A    between atoms: C26_39  and  C27_40
REMARK   12  A    between atoms: C27_40  and  C28_41
REMARK   13  A    between atoms: C28_41  and  N5_42
REMARK   14  A    between atoms: C30_47  and  O5_48
ROOT
HETATM    1  C5  UNL     1      19.151 -14.503  20.116  1.00  0.00     0.067 C
HETATM    2  C6  UNL     1      20.205 -15.338  20.691  1.00  0.00     0.160 C
HETATM    3  N1  UNL     1      20.396 -15.972  21.894  1.00  0.00    -0.356 N
ATOM      4  H1  UNL     1      20.520 -16.982  21.819  1.00  0.00     0.162 HD
HETATM    5  C7  UNL     1      20.455 -15.467  23.256  1.00  0.00     0.176 C
HETATM    6  C12 UNL     1      20.625 -16.618  24.203  1.00  0.00     0.241 C
HETATM    7  O2  UNL     1      21.759 -17.164  24.138  1.00  0.00    -0.271 OA
HETATM    8  N2  UNL     1      19.678 -17.119  25.108  1.00  0.00    -0.346 N
ATOM      9  H2  UNL     1      19.489 -18.118  25.021  1.00  0.00     0.163 HD
HETATM   10  C13 UNL     1      18.936 -16.458  26.132  1.00  0.00     0.177 C
HETATM   11  C18 UNL     1      17.634 -15.880  25.721  1.00  0.00     0.241 C
HETATM   12  O3  UNL     1      17.128 -15.171  26.682  1.00  0.00    -0.271 OA
HETATM   13  N3  UNL     1      16.906 -15.962  24.555  1.00  0.00    -0.346 N
ATOM     14  H3  UNL     1      16.748 -15.053  24.120  1.00  0.00     0.163 HD
HETATM   15  C19 UNL     1      16.323 -17.041  23.820  1.00  0.00     0.177 C
HETATM   16  C24 UNL     1      16.965 -17.339  22.518  1.00  0.00     0.241 C
HETATM   17  O4  UNL     1      17.728 -18.350  22.459  1.00  0.00    -0.271 OA
HETATM   18  N4  UNL     1      16.804 -16.594  21.315  1.00  0.00    -0.347 N
ATOM     19  H4  UNL     1      17.228 -16.988  20.475  1.00  0.00     0.163 HD
HETATM   20  C25 UNL     1      16.120 -15.372  21.163  1.00  0.00     0.159 C
HETATM   21  C30 UNL     1      16.849 -14.121  21.084  1.00  0.00     0.141 C
HETATM   22  N8  UNL     1      18.230 -13.827  20.947  1.00  0.00    -0.334 N
HETATM   23  C31 UNL     1      18.692 -12.674  21.737  1.00  0.00     0.158 C
ENDROOT
BRANCH  20  24
HETATM   24  C26 UNL     1      15.047 -15.392  20.079  1.00  0.00     0.035 C
BRANCH  24  25
HETATM   25  C27 UNL     1      13.671 -15.635  20.576  1.00  0.00     0.022 C
BRANCH  25  26
HETATM   26  C28 UNL     1      12.854 -14.378  20.396  1.00  0.00     0.122 C
BRANCH  26  27
HETATM   27  N5  UNL     1      12.764 -13.607  21.618  1.00  0.00    -0.367 N
HETATM   28  C29 UNL     1      12.996 -12.341  21.662  1.00  0.00     0.196 C
HETATM   29  N6  UNL     1      12.880 -11.679  22.912  1.00  0.00    -0.067 NA
HETATM   30  N7  UNL     1      13.354 -11.659  20.479  1.00  0.00    -0.067 NA
ATOM     31  H5  UNL     1      12.505 -14.088  22.480  1.00  0.00     0.161 HD
ENDBRANCH  26  27
ENDBRANCH  25  26
ENDBRANCH  24  25
ENDBRANCH  20  24
BRANCH  21  32
HETATM   32  O5  UNL     1      16.025 -13.106  21.156  1.00  0.00    -0.348 OA
ATOM     33  H5  UNL     1      15.982 -12.653  20.323  1.00  0.00     0.219 HD
ENDBRANCH  21  32
BRANCH  15  34
HETATM   34  C20 UNL     1      16.060 -18.303  24.592  1.00  0.00     0.038 C
BRANCH  34  35
HETATM   35  C21 UNL     1      14.667 -18.815  24.506  1.00  0.00    -0.020 C
HETATM   36  C22 UNL     1      14.662 -19.980  23.533  1.00  0.00     0.009 C
HETATM   37  C23 UNL     1      14.271 -19.346  25.870  1.00  0.00     0.009 C
ENDBRANCH  34  35
ENDBRANCH  15  34
BRANCH   1  38
HETATM   38  C3  UNL     1      19.708 -13.645  18.990  1.00  0.00     0.036 C
HETATM   39  C4  UNL     1      18.875 -13.633  17.754  1.00  0.00     0.016 C
BRANCH  38  40
HETATM   40  C2  UNL     1      20.131 -12.275  19.378  1.00  0.00     0.006 C
HETATM   41  C1  UNL     1      21.657 -12.138  19.403  1.00  0.00     0.006 C
ENDBRANCH  38  40
ENDBRANCH   1  38
BRANCH   2  42
HETATM   42  O1  UNL     1      21.179 -15.507  19.833  1.00  0.00    -0.345 OA
ATOM     43  H1  UNL     1      21.992 -15.152  20.174  1.00  0.00     0.219 HD
ENDBRANCH   2  42
BRANCH  10  44
HETATM   44  C14 UNL     1      18.644 -17.332  27.335  1.00  0.00     0.038 C
BRANCH  44  45
HETATM   45  C15 UNL     1      18.714 -18.793  27.111  1.00  0.00    -0.020 C
HETATM   46  C16 UNL     1      19.948 -19.276  27.909  1.00  0.00     0.009 C
HETATM   47  C17 UNL     1      17.575 -19.613  27.623  1.00  0.00     0.009 C
ENDBRANCH  44  45
ENDBRANCH  10  44
BRANCH   5  48
HETATM   48  C8  UNL     1      21.724 -14.639  23.465  1.00  0.00     0.038 C
BRANCH  48  49
HETATM   49  C9  UNL     1      21.595 -13.547  24.455  1.00  0.00    -0.020 C
HETATM   50  C10 UNL     1      22.190 -13.880  25.806  1.00  0.00     0.009 C
HETATM   51  C11 UNL     1      20.114 -13.294  24.689  1.00  0.00     0.009 C
ENDBRANCH  48  49
ENDBRANCH   5  48
TORSDOF 14
ENDMDL