MODEL 3
REMARK VINA RESULT: -7.281223427      2.125      7.813
REMARK  12 active torsions:
REMARK  status: ('A' for Active; 'I' for Inactive)
REMARK    1  A    between atoms: C3_3  and  C4_4
REMARK    2  A    between atoms: C4_4  and  C5_5
REMARK    3  A    between atoms: C5_5  and  C6_6
REMARK    4  A    between atoms: C6_6  and  C7_7
REMARK    5  A    between atoms: C7_7  and  C8_8
REMARK    6  A    between atoms: C9_11  and  O1_12
REMARK    7  A    between atoms: C10_14  and  C11_15
REMARK    8  A    between atoms: C11_15  and  C12_16
REMARK    9  A    between atoms: C16_23  and  C17_24
REMARK   10  A    between atoms: C17_24  and  C18_25
REMARK   11  A    between atoms: C22_32  and  C23_33
REMARK   12  A    between atoms: C23_33  and  C25_35
ROOT
HETATM    1  C1  UNL     1      11.684  -9.576  23.874  1.00  0.00     0.012 C
HETATM    2  C2  UNL     1      12.438  -9.816  22.964  1.00  0.00    -0.117 C
HETATM    3  C3  UNL     1      13.352 -10.082  21.850  1.00  0.00     0.093 C
ENDROOT
BRANCH   3   4
HETATM    4  C4  UNL     1      13.802 -11.520  21.894  1.00  0.00     0.012 C
BRANCH   4   5
HETATM    5  C5  UNL     1      12.675 -12.458  21.615  1.00  0.00     0.001 C
BRANCH   5   6
HETATM    6  C6  UNL     1      13.051 -13.894  21.939  1.00  0.00     0.002 C
BRANCH   6   7
HETATM    7  C7  UNL     1      13.687 -14.554  20.757  1.00  0.00     0.035 C
BRANCH   7   8
HETATM    8  C8  UNL     1      15.076 -15.126  21.039  1.00  0.00     0.175 C
HETATM    9  N1  UNL     1      16.059 -14.370  20.300  1.00  0.00    -0.359 N
HETATM   10  C9  UNL     1      17.000 -13.441  20.706  1.00  0.00     0.135 C
ATOM     11  H1  UNL     1      16.060 -14.555  19.296  1.00  0.00     0.162 HD
HETATM   12  C10 UNL     1      18.151 -13.561  21.631  1.00  0.00     0.159 C
HETATM   13  N2  UNL     1      18.399 -14.910  22.079  1.00  0.00    -0.347 N
HETATM   14  C15 UNL     1      19.541 -15.454  22.634  1.00  0.00     0.241 C
ATOM     15  H2  UNL     1      17.618 -15.557  21.969  1.00  0.00     0.163 HD
HETATM   16  O2  UNL     1      20.081 -16.459  22.032  1.00  0.00    -0.271 OA
HETATM   17  C16 UNL     1      20.281 -15.060  23.857  1.00  0.00     0.177 C
HETATM   18  N3  UNL     1      20.848 -16.174  24.579  1.00  0.00    -0.346 N
HETATM   19  C21 UNL     1      20.352 -17.460  24.761  1.00  0.00     0.241 C
ATOM     20  H3  UNL     1      21.748 -15.989  25.023  1.00  0.00     0.163 HD
HETATM   21  O3  UNL     1      21.133 -18.430  24.419  1.00  0.00    -0.271 OA
HETATM   22  C22 UNL     1      19.058 -17.903  25.291  1.00  0.00     0.180 C
HETATM   23  N4  UNL     1      18.354 -18.577  24.183  1.00  0.00    -0.346 N
HETATM   24  C27 UNL     1      16.980 -18.806  24.129  1.00  0.00     0.236 C
ATOM     25  H4  UNL     1      18.917 -18.901  23.396  1.00  0.00     0.163 HD
HETATM   26  O4  UNL     1      16.619 -19.936  23.646  1.00  0.00    -0.272 OA
HETATM   27  C28 UNL     1      15.916 -17.861  24.579  1.00  0.00     0.225 C
HETATM   28  N5  UNL     1      14.650 -18.552  24.536  1.00  0.00    -0.351 N
HETATM   29  C29 UNL     1      13.939 -18.786  23.331  1.00  0.00     0.240 C
ATOM     30  H5  UNL     1      14.248 -18.886  25.411  1.00  0.00     0.163 HD
HETATM   31  O5  UNL     1      13.463 -19.950  23.077  1.00  0.00    -0.271 OA
HETATM   32  C30 UNL     1      13.698 -17.737  22.307  1.00  0.00     0.172 C
HETATM   33  C31 UNL     1      12.412 -18.164  21.576  1.00  0.00     0.042 C
HETATM   34  N6  UNL     1      14.791 -17.651  21.359  1.00  0.00    -0.346 N
HETATM   35  C32 UNL     1      15.002 -16.527  20.542  1.00  0.00     0.241 C
ATOM     36  H6  UNL     1      15.434 -18.440  21.282  1.00  0.00     0.163 HD
HETATM   37  O6  UNL     1      15.143 -16.698  19.302  1.00  0.00    -0.271 OA
BRANCH  10  38
HETATM   38  O1  UNL     1      16.945 -12.214  20.243  1.00  0.00    -0.348 OA
ATOM     39  H1  UNL     1      17.450 -11.976  19.474  1.00  0.00     0.219 HD
ENDBRANCH  10  38
BRANCH  12  40
HETATM   40  C11 UNL     1      19.369 -12.866  21.140  1.00  0.00     0.037 C
BRANCH  40  41
HETATM   41  C12 UNL     1      20.164 -13.427  20.053  1.00  0.00    -0.020 C
HETATM   42  C13 UNL     1      20.081 -12.861  18.689  1.00  0.00     0.009 C
HETATM   43  C14 UNL     1      21.645 -13.254  20.469  1.00  0.00     0.009 C
ENDBRANCH  40  41
ENDBRANCH  12  40
BRANCH  17  44
HETATM   44  C17 UNL     1      19.509 -14.212  24.806  1.00  0.00     0.038 C
BRANCH  44  45
HETATM   45  C18 UNL     1      20.293 -12.951  25.103  1.00  0.00    -0.020 C
HETATM   46  C19 UNL     1      20.789 -12.965  26.525  1.00  0.00     0.009 C
HETATM   47  C20 UNL     1      21.561 -13.019  24.234  1.00  0.00     0.009 C
ENDBRANCH  44  45
ENDBRANCH  17  44
BRANCH  22  48
HETATM   48  C23 UNL     1      19.095 -18.897  26.398  1.00  0.00     0.013 C
HETATM   49  C24 UNL     1      18.150 -18.512  27.541  1.00  0.00     0.012 C
BRANCH  48  50
HETATM   50  C25 UNL     1      18.921 -20.322  26.062  1.00  0.00     0.002 C
HETATM   51  C26 UNL     1      17.955 -21.111  26.867  1.00  0.00     0.005 C
ENDBRANCH  48  50
ENDBRANCH  22  48
ENDBRANCH   7   8
ENDBRANCH   6   7
ENDBRANCH   5   6
ENDBRANCH   4   5
ENDBRANCH   3   4
TORSDOF 12
ENDMDL