MODEL 3
REMARK VINA RESULT: -6.346987274      2.154      3.337
REMARK  12 active torsions:
REMARK  status: ('A' for Active; 'I' for Inactive)
REMARK    1  A    between atoms: C2_2  and  C3_3
REMARK    2  A    between atoms: C6_12  and  C7_13
REMARK    3  A    between atoms: C7_13  and  C8_14
REMARK    4  A    between atoms: C12_21  and  C13_22
REMARK    5  A    between atoms: C13_22  and  C14_23
REMARK    6  A    between atoms: C18_30  and  C19_31
REMARK    7  A    between atoms: C19_31  and  C20_32
REMARK    8  A    between atoms: C24_39  and  C25_40
REMARK    9  A    between atoms: C25_40  and  C26_41
REMARK   10  A    between atoms: C26_41  and  C27_42
REMARK   11  A    between atoms: C27_42  and  C28_43
REMARK   12  A    between atoms: C28_43  and  N6_44
ROOT
HETATM    1  C3  UNL     1      14.150 -16.257  21.249  1.00  0.00     0.175 C
HETATM    2  N1  UNL     1      13.425 -17.103  22.148  1.00  0.00    -0.354 N
ATOM      3  H1  UNL     1      12.714 -16.653  22.724  1.00  0.00     0.162 HD
HETATM    4  C4  UNL     1      13.586 -18.492  22.322  1.00  0.00     0.175 C
HETATM    5  S1  UNL     1      12.248 -19.469  22.470  1.00  0.00    -0.041 SA
HETATM    6  N2  UNL     1      14.851 -19.161  22.385  1.00  0.00    -0.302 N
ATOM      7  H2  UNL     1      14.959 -20.028  21.859  1.00  0.00     0.171 HD
HETATM    8  C5  UNL     1      15.965 -18.694  23.136  1.00  0.00     0.246 C
HETATM    9  O1  UNL     1      17.085 -18.807  22.565  1.00  0.00    -0.271 OA
HETATM   10  C6  UNL     1      15.939 -18.103  24.481  1.00  0.00     0.177 C
HETATM   11  N3  UNL     1      16.391 -16.727  24.523  1.00  0.00    -0.346 N
ATOM     12  H3  UNL     1      15.787 -16.093  24.000  1.00  0.00     0.163 HD
HETATM   13  C11 UNL     1      17.446 -16.093  25.109  1.00  0.00     0.241 C
HETATM   14  O2  UNL     1      17.204 -15.242  26.047  1.00  0.00    -0.271 OA
HETATM   15  C12 UNL     1      18.936 -16.205  24.849  1.00  0.00     0.177 C
HETATM   16  N4  UNL     1      19.362 -14.843  24.536  1.00  0.00    -0.346 N
ATOM     17  H4  UNL     1      19.690 -14.300  25.334  1.00  0.00     0.163 HD
HETATM   18  C17 UNL     1      19.389 -14.177  23.327  1.00  0.00     0.241 C
HETATM   19  O3  UNL     1      20.313 -13.288  23.205  1.00  0.00    -0.271 OA
HETATM   20  C18 UNL     1      18.524 -14.310  22.136  1.00  0.00     0.177 C
HETATM   21  N5  UNL     1      17.675 -13.120  21.992  1.00  0.00    -0.346 N
ATOM     22  H5  UNL     1      18.132 -12.224  22.164  1.00  0.00     0.163 HD
HETATM   23  C23 UNL     1      16.326 -13.058  21.649  1.00  0.00     0.241 C
HETATM   24  O4  UNL     1      15.509 -12.450  22.388  1.00  0.00    -0.271 OA
HETATM   25  C24 UNL     1      15.716 -13.683  20.403  1.00  0.00     0.176 C
HETATM   26  N7  UNL     1      14.301 -13.794  20.672  1.00  0.00    -0.346 N
ATOM     27  H7  UNL     1      13.710 -13.014  20.384  1.00  0.00     0.163 HD
HETATM   28  C29 UNL     1      13.666 -14.889  21.298  1.00  0.00     0.241 C
HETATM   29  O5  UNL     1      12.592 -14.646  21.950  1.00  0.00    -0.271 OA
ENDROOT
BRANCH  25  30
HETATM   30  C25 UNL     1      15.994 -12.723  19.287  1.00  0.00     0.035 C
BRANCH  30  31
HETATM   31  C26 UNL     1      15.017 -11.675  18.977  1.00  0.00     0.004 C
BRANCH  31  32
HETATM   32  C27 UNL     1      15.250 -10.383  19.676  1.00  0.00     0.027 C
BRANCH  32  33
HETATM   33  C28 UNL     1      13.921  -9.842  20.250  1.00  0.00     0.229 C
BRANCH  33  34
HETATM   34  N6  UNL     1      13.987 -10.008  21.674  1.00  0.00    -0.079 N
ATOM     35  H63 UNL     1      14.822  -9.595  22.090  1.00  0.00     0.274 HD
ATOM     36  H62 UNL     1      13.301  -9.444  22.177  1.00  0.00     0.274 HD
ATOM     37  H61 UNL     1      13.899 -11.007  21.859  1.00  0.00     0.274 HD
ENDBRANCH  33  34
ENDBRANCH  32  33
ENDBRANCH  31  32
ENDBRANCH  30  31
ENDBRANCH  25  30
BRANCH  20  38
HETATM   38  C19 UNL     1      19.268 -14.428  20.860  1.00  0.00     0.038 C
BRANCH  38  39
HETATM   39  C20 UNL     1      18.814 -15.368  19.825  1.00  0.00    -0.020 C
HETATM   40  C21 UNL     1      19.336 -16.781  19.973  1.00  0.00     0.009 C
HETATM   41  C22 UNL     1      18.885 -14.875  18.403  1.00  0.00     0.009 C
ENDBRANCH  38  39
ENDBRANCH  20  38
BRANCH   1  42
HETATM   42  C2  UNL     1      14.123 -16.799  19.837  1.00  0.00     0.030 C
HETATM   43  C1  UNL     1      15.503 -17.187  19.367  1.00  0.00     0.007 C
ENDBRANCH   1  42
BRANCH  15  44
HETATM   44  C13 UNL     1      19.614 -16.728  26.103  1.00  0.00     0.038 C
BRANCH  44  45
HETATM   45  C14 UNL     1      20.267 -18.059  25.968  1.00  0.00    -0.020 C
HETATM   46  C15 UNL     1      19.924 -19.090  26.977  1.00  0.00     0.009 C
HETATM   47  C16 UNL     1      20.063 -18.642  24.570  1.00  0.00     0.009 C
ENDBRANCH  44  45
ENDBRANCH  15  44
BRANCH  10  48
HETATM   48  C7  UNL     1      16.490 -18.924  25.593  1.00  0.00     0.038 C
BRANCH  48  49
HETATM   49  C8  UNL     1      15.604 -19.855  26.323  1.00  0.00    -0.020 C
HETATM   50  C9  UNL     1      14.162 -19.585  26.199  1.00  0.00     0.009 C
HETATM   51  C10 UNL     1      15.939 -19.896  27.822  1.00  0.00     0.009 C
ENDBRANCH  48  49
ENDBRANCH  10  48
TORSDOF 12
ENDMDL