MODEL 5
REMARK VINA RESULT: -6.455621751      2.527      6.300
REMARK  11 active torsions:
REMARK  status: ('A' for Active; 'I' for Inactive)
REMARK    1  A    between atoms: C2_2  and  C3_3
REMARK    2  A    between atoms: C3_3  and  C4_4
REMARK    3  A    between atoms: C5_7  and  O1_8
REMARK    4  A    between atoms: C9_13  and  C10_14
REMARK    5  A    between atoms: C14_23  and  C15_24
REMARK    6  A    between atoms: C15_24  and  C16_25
REMARK    7  A    between atoms: C16_25  and  N4_26
REMARK    8  A    between atoms: N4_26  and  C18_28
REMARK    9  A    between atoms: N4_26  and  C20_30
REMARK   10  A    between atoms: C23_36  and  C24_37
REMARK   11  A    between atoms: C24_37  and  C25_38
ROOT
HETATM    1  C4  UNL     1      19.178 -18.602  23.157  1.00  0.00     0.175 C
HETATM    2  N1  UNL     1      18.951 -17.189  22.979  1.00  0.00    -0.360 N
ATOM      3  H1  UNL     1      18.822 -16.906  22.008  1.00  0.00     0.162 HD
HETATM    4  C5  UNL     1      18.874 -16.150  23.889  1.00  0.00     0.126 C
HETATM    5  C6  UNL     1      19.958 -15.435  24.647  1.00  0.00     0.057 C
HETATM    6  C7  UNL     1      19.674 -15.870  26.120  1.00  0.00     0.030 C
HETATM    7  C8  UNL     1      21.320 -15.916  24.377  1.00  0.00     0.030 C
HETATM    8  C9  UNL     1      19.651 -13.992  24.558  1.00  0.00     0.023 C
HETATM    9  N2  UNL     1      18.912 -13.602  23.363  1.00  0.00    -0.305 N
ATOM     10  H2  UNL     1      18.045 -13.067  23.427  1.00  0.00     0.186 HD
HETATM   11  N3  UNL     1      19.422 -13.979  22.166  1.00  0.00    -0.268 N
ATOM     12  H3  UNL     1      20.391 -14.288  22.094  1.00  0.00     0.190 HD
HETATM   13  C13 UNL     1      18.592 -13.937  21.012  1.00  0.00     0.259 C
HETATM   14  O2  UNL     1      19.158 -13.954  19.861  1.00  0.00    -0.269 OA
HETATM   15  C14 UNL     1      17.112 -13.875  21.016  1.00  0.00     0.180 C
HETATM   16  N5  UNL     1      16.667 -14.654  19.880  1.00  0.00    -0.346 N
ATOM     17  H5  UNL     1      17.090 -14.438  18.977  1.00  0.00     0.163 HD
HETATM   18  C22 UNL     1      15.699 -15.687  19.906  1.00  0.00     0.241 C
HETATM   19  O3  UNL     1      15.861 -16.696  19.123  1.00  0.00    -0.271 OA
HETATM   20  C23 UNL     1      14.495 -15.722  20.761  1.00  0.00     0.177 C
HETATM   21  N6  UNL     1      14.714 -16.101  22.118  1.00  0.00    -0.346 N
ATOM     22  H6  UNL     1      14.690 -15.335  22.791  1.00  0.00     0.163 HD
HETATM   23  C28 UNL     1      14.957 -17.373  22.666  1.00  0.00     0.240 C
HETATM   24  O4  UNL     1      14.228 -17.788  23.636  1.00  0.00    -0.271 OA
HETATM   25  C29 UNL     1      15.998 -18.347  22.256  1.00  0.00     0.172 C
HETATM   26  C30 UNL     1      15.358 -19.566  21.585  1.00  0.00     0.042 C
HETATM   27  N7  UNL     1      16.625 -18.853  23.461  1.00  0.00    -0.346 N
ATOM     28  H7  UNL     1      16.042 -18.865  24.297  1.00  0.00     0.163 HD
HETATM   29  C31 UNL     1      17.925 -19.324  23.619  1.00  0.00     0.241 C
HETATM   30  O5  UNL     1      18.138 -20.434  24.185  1.00  0.00    -0.271 OA
ENDROOT
BRANCH  15  31
HETATM   31  C15 UNL     1      16.694 -12.434  20.927  1.00  0.00     0.063 C
BRANCH  31  32
HETATM   32  C16 UNL     1      15.460 -12.080  21.680  1.00  0.00     0.239 C
BRANCH  32  33
HETATM   33  N4  UNL     1      14.519 -11.309  20.906  1.00  0.00    -0.071 N
HETATM   34  C17 UNL     1      15.095 -10.077  20.405  1.00  0.00     0.272 C
BRANCH  33  35
HETATM   35  C18 UNL     1      14.213 -12.120  19.717  1.00  0.00     0.232 C
HETATM   36  C19 UNL     1      14.730 -11.465  18.456  1.00  0.00     0.035 C
ENDBRANCH  33  35
BRANCH  33  37
HETATM   37  C20 UNL     1      13.274 -11.045  21.555  1.00  0.00     0.232 C
HETATM   38  C21 UNL     1      13.224  -9.669  22.193  1.00  0.00     0.035 C
ENDBRANCH  33  37
ENDBRANCH  32  33
ENDBRANCH  31  32
ENDBRANCH  15  31
BRANCH  20  39
HETATM   39  C24 UNL     1      13.433 -16.543  20.044  1.00  0.00     0.038 C
BRANCH  39  40
HETATM   40  C25 UNL     1      12.045 -16.268  20.501  1.00  0.00    -0.020 C
HETATM   41  C26 UNL     1      11.550 -17.534  21.215  1.00  0.00     0.009 C
HETATM   42  C27 UNL     1      11.087 -16.047  19.352  1.00  0.00     0.009 C
ENDBRANCH  39  40
ENDBRANCH  20  39
BRANCH   8  43
HETATM   43  C10 UNL     1      20.654 -12.988  24.979  1.00  0.00     0.026 C
HETATM   44  C11 UNL     1      20.917 -12.791  26.417  1.00  0.00     0.016 C
HETATM   45  C12 UNL     1      22.023 -13.278  24.308  1.00  0.00     0.016 C
ENDBRANCH   8  43
BRANCH   4  46
HETATM   46  O1  UNL     1      17.713 -15.649  24.191  1.00  0.00    -0.349 OA
ATOM     47  H1  UNL     1      17.081 -16.183  24.657  1.00  0.00     0.219 HD
ENDBRANCH   4  46
BRANCH   1  48
HETATM   48  C3  UNL     1      19.500 -19.288  21.831  1.00  0.00     0.034 C
BRANCH  48  49
HETATM   49  C2  UNL     1      19.466 -18.286  20.726  1.00  0.00    -0.002 C
HETATM   50  C1  UNL     1      18.692 -18.688  19.516  1.00  0.00     0.005 C
ENDBRANCH  48  49
ENDBRANCH   1  48
TORSDOF 11
ENDMDL