MODEL 4
REMARK VINA RESULT: -7.998474853      1.784      2.257
REMARK  11 active torsions:
REMARK  status: ('A' for Active; 'I' for Inactive)
REMARK    1  A    between atoms: C2_2  and  C3_3
REMARK    2  A    between atoms: C3_3  and  C4_4
REMARK    3  A    between atoms: C4_4  and  C5_5
REMARK    4  A    between atoms: C7_10  and  C8_11
REMARK    5  A    between atoms: C8_11  and  C9_12
REMARK    6  A    between atoms: C10_13  and  C11_14
REMARK    7  A    between atoms: C11_14  and  N2_15
REMARK    8  A    between atoms: C15_22  and  C16_23
REMARK    9  A    between atoms: C22_34  and  C23_35
REMARK   10  A    between atoms: C27_42  and  C28_43
REMARK   11  A    between atoms: C28_43  and  C29_44
ROOT
HETATM    1  C5  UNL     1      19.318 -13.733  19.507  1.00  0.00     0.176 C
HETATM    2  N1  UNL     1      18.446 -14.681  20.194  1.00  0.00    -0.346 N
ATOM      3  H1  UNL     1      18.873 -15.593  20.357  1.00  0.00     0.163 HD
HETATM    4  C6  UNL     1      17.159 -14.575  20.661  1.00  0.00     0.241 C
HETATM    5  O1  UNL     1      16.972 -14.480  21.943  1.00  0.00    -0.271 OA
HETATM    6  C7  UNL     1      15.847 -14.546  19.970  1.00  0.00     0.180 C
HETATM    7  N3  UNL     1      14.943 -15.612  20.408  1.00  0.00    -0.346 N
ATOM      8  H3  UNL     1      13.951 -15.396  20.305  1.00  0.00     0.163 HD
HETATM    9  C14 UNL     1      15.208 -16.869  20.940  1.00  0.00     0.241 C
HETATM   10  O2  UNL     1      14.791 -17.057  22.154  1.00  0.00    -0.271 OA
HETATM   11  C15 UNL     1      15.879 -18.047  20.380  1.00  0.00     0.180 C
HETATM   12  N4  UNL     1      17.289 -18.163  20.582  1.00  0.00    -0.346 N
ATOM     13  H4  UNL     1      17.845 -17.711  19.856  1.00  0.00     0.163 HD
HETATM   14  C19 UNL     1      18.047 -18.768  21.569  1.00  0.00     0.235 C
HETATM   15  O3  UNL     1      18.864 -19.708  21.238  1.00  0.00    -0.272 OA
HETATM   16  C20 UNL     1      18.062 -18.478  23.038  1.00  0.00     0.217 C
HETATM   17  N5  UNL     1      18.653 -17.194  23.321  1.00  0.00    -0.411 N
ATOM     18  H5  UNL     1      18.209 -16.323  23.030  1.00  0.00     0.153 HD
HETATM   19  C21 UNL     1      19.898 -17.204  24.032  1.00  0.00     0.139 C
HETATM   20  C22 UNL     1      21.093 -17.284  23.168  1.00  0.00     0.105 C
HETATM   21  N6  UNL     1      21.776 -16.089  22.801  1.00  0.00    -0.353 N
ATOM     22  H6  UNL     1      22.785 -16.147  22.941  1.00  0.00     0.163 HD
HETATM   23  C26 UNL     1      21.367 -14.866  22.294  1.00  0.00     0.240 C
HETATM   24  O4  UNL     1      21.845 -14.517  21.152  1.00  0.00    -0.271 OA
HETATM   25  C27 UNL     1      20.441 -13.836  22.852  1.00  0.00     0.177 C
HETATM   26  N7  UNL     1      19.972 -12.896  21.879  1.00  0.00    -0.346 N
ATOM     27  H7  UNL     1      19.494 -12.089  22.281  1.00  0.00     0.163 HD
HETATM   28  C32 UNL     1      20.045 -12.873  20.477  1.00  0.00     0.241 C
HETATM   29  O5  UNL     1      20.838 -12.001  19.969  1.00  0.00    -0.271 OA
ENDROOT
BRANCH   6  30
HETATM   30  C8  UNL     1      15.220 -13.200  20.465  1.00  0.00     0.061 C
BRANCH  30  31
HETATM   31  C9  UNL     1      13.764 -13.245  20.338  1.00  0.00    -0.026 C
HETATM   32  C10 UNL     1      12.932 -12.571  21.107  1.00  0.00    -0.001 C
BRANCH  32  33
HETATM   33  C11 UNL     1      13.262 -11.663  22.215  1.00  0.00     0.298 C
BRANCH  33  34
HETATM   34  N2  UNL     1      12.853 -10.312  21.798  1.00  0.00     0.083 N
HETATM   35  C12 UNL     1      12.222  -9.606  22.887  1.00  0.00     0.309 C
HETATM   36  C13 UNL     1      14.062  -9.652  21.354  1.00  0.00     0.309 C
ENDBRANCH  33  34
ENDBRANCH  32  33
ENDBRANCH  30  31
ENDBRANCH   6  30
BRANCH   1  37
HETATM   37  C4  UNL     1      18.598 -13.029  18.398  1.00  0.00     0.035 C
BRANCH  37  38
HETATM   38  C3  UNL     1      19.012 -13.436  17.012  1.00  0.00     0.002 C
BRANCH  38  39
HETATM   39  C2  UNL     1      20.525 -13.705  17.061  1.00  0.00    -0.004 C
HETATM   40  C1  UNL     1      21.169 -12.535  16.364  1.00  0.00     0.005 C
ENDBRANCH  38  39
ENDBRANCH  37  38
ENDBRANCH   1  37
BRANCH  11  41
HETATM   41  C16 UNL     1      15.605 -18.180  18.859  1.00  0.00     0.009 C
HETATM   42  C17 UNL     1      16.897 -17.690  18.200  1.00  0.00     0.012 C
HETATM   43  C18 UNL     1      15.499 -19.649  18.532  1.00  0.00     0.012 C
ENDBRANCH  11  41
BRANCH  25  44
HETATM   44  C28 UNL     1      21.146 -13.266  24.045  1.00  0.00     0.038 C
BRANCH  44  45
HETATM   45  C29 UNL     1      20.895 -13.758  25.401  1.00  0.00    -0.020 C
HETATM   46  C30 UNL     1      21.155 -12.499  26.314  1.00  0.00     0.009 C
HETATM   47  C31 UNL     1      19.426 -14.041  25.723  1.00  0.00     0.009 C
ENDBRANCH  44  45
ENDBRANCH  25  44
BRANCH  20  48
HETATM   48  C23 UNL     1      22.077 -18.218  23.877  1.00  0.00     0.002 C
HETATM   49  C24 UNL     1      22.513 -17.725  25.214  1.00  0.00     0.011 C
HETATM   50  C25 UNL     1      21.498 -19.601  24.040  1.00  0.00     0.011 C
ENDBRANCH  20  48
TORSDOF 11
ENDMDL