MODEL 2
REMARK VINA RESULT: -8.019759244      1.360      1.930
REMARK  11 active torsions:
REMARK  status: ('A' for Active; 'I' for Inactive)
REMARK    1  A    between atoms: C2_2  and  C3_3
REMARK    2  A    between atoms: C3_3  and  C4_4
REMARK    3  A    between atoms: C4_4  and  C5_5
REMARK    4  A    between atoms: C5_5  and  C6_6
REMARK    5  A    between atoms: C8_11  and  C9_12
REMARK    6  A    between atoms: C9_12  and  C10_13
REMARK    7  A    between atoms: C14_20  and  C15_21
REMARK    8  A    between atoms: C26_37  and  C27_38
REMARK    9  A    between atoms: C27_38  and  C28_39
REMARK   10  A    between atoms: C28_39  and  C29_40
REMARK   11  A    between atoms: C29_40  and  N5_41
ROOT
HETATM    1  C6  UNL     1      17.937 -13.399  19.247  1.00  0.00     0.176 C
HETATM    2  N1  UNL     1      16.520 -13.492  18.950  1.00  0.00    -0.346 N
ATOM      3  H1  UNL     1      16.291 -14.076  18.146  1.00  0.00     0.163 HD
HETATM    4  C7  UNL     1      15.425 -12.918  19.576  1.00  0.00     0.241 C
HETATM    5  O1  UNL     1      14.724 -12.076  18.907  1.00  0.00    -0.271 OA
HETATM    6  C8  UNL     1      14.903 -13.129  20.956  1.00  0.00     0.177 C
HETATM    7  N2  UNL     1      13.576 -13.762  20.832  1.00  0.00    -0.346 N
ATOM      8  H2  UNL     1      12.804 -13.194  20.484  1.00  0.00     0.163 HD
HETATM    9  C13 UNL     1      13.312 -15.109  21.169  1.00  0.00     0.241 C
HETATM   10  O2  UNL     1      12.193 -15.395  21.672  1.00  0.00    -0.271 OA
HETATM   11  C14 UNL     1      14.254 -16.243  20.976  1.00  0.00     0.180 C
HETATM   12  N3  UNL     1      14.124 -17.081  22.154  1.00  0.00    -0.347 N
ATOM     13  H3  UNL     1      13.285 -17.655  22.229  1.00  0.00     0.163 HD
HETATM   14  C18 UNL     1      15.056 -17.164  23.195  1.00  0.00     0.218 C
HETATM   15  O3  UNL     1      14.649 -17.649  24.298  1.00  0.00    -0.274 OA
HETATM   16  C19 UNL     1      16.457 -16.741  23.124  1.00  0.00     0.109 C
HETATM   17  C20 UNL     1      17.312 -17.665  22.279  1.00  0.00     0.013 C
HETATM   18  C21 UNL     1      17.021 -19.122  22.544  1.00  0.00     0.012 C
HETATM   19  C22 UNL     1      18.768 -17.314  22.487  1.00  0.00     0.087 C
HETATM   20  C23 UNL     1      19.611 -18.558  22.687  1.00  0.00     0.033 C
HETATM   21  N4  UNL     1      19.249 -16.617  21.297  1.00  0.00    -0.350 N
HETATM   22  C24 UNL     1      19.071 -17.347  20.029  1.00  0.00     0.153 C
HETATM   23  C25 UNL     1      19.851 -15.331  21.339  1.00  0.00     0.242 C
HETATM   24  O4  UNL     1      20.800 -15.144  20.530  1.00  0.00    -0.271 OA
HETATM   25  C26 UNL     1      19.473 -14.224  22.222  1.00  0.00     0.176 C
HETATM   26  N8  UNL     1      18.500 -13.305  21.781  1.00  0.00    -0.346 N
ATOM     27  H8  UNL     1      17.859 -13.000  22.512  1.00  0.00     0.163 HD
HETATM   28  C31 UNL     1      18.248 -12.733  20.529  1.00  0.00     0.241 C
HETATM   29  O5  UNL     1      18.276 -11.445  20.421  1.00  0.00    -0.271 OA
ENDROOT
BRANCH  25  30
HETATM   30  C27 UNL     1      20.765 -13.540  22.717  1.00  0.00     0.036 C
BRANCH  30  31
HETATM   31  C28 UNL     1      20.758 -13.759  24.225  1.00  0.00     0.022 C
BRANCH  31  32
HETATM   32  C29 UNL     1      21.751 -14.825  24.639  1.00  0.00     0.122 C
BRANCH  32  33
HETATM   33  N5  UNL     1      23.092 -14.439  24.252  1.00  0.00    -0.367 N
HETATM   34  C30 UNL     1      23.722 -15.149  23.394  1.00  0.00     0.196 C
HETATM   35  N6  UNL     1      25.046 -14.804  22.984  1.00  0.00    -0.067 NA
HETATM   36  N7  UNL     1      23.166 -16.323  22.790  1.00  0.00    -0.067 NA
ATOM     37  H5  UNL     1      23.528 -13.611  24.657  1.00  0.00     0.161 HD
ENDBRANCH  32  33
ENDBRANCH  31  32
ENDBRANCH  30  31
ENDBRANCH  25  30
BRANCH   1  38
HETATM   38  C5  UNL     1      18.566 -12.601  18.093  1.00  0.00     0.035 C
BRANCH  38  39
HETATM   39  C4  UNL     1      19.356 -13.452  17.168  1.00  0.00     0.006 C
BRANCH  39  40
HETATM   40  C3  UNL     1      20.805 -13.539  17.603  1.00  0.00     0.026 C
BRANCH  40  41
HETATM   41  C2  UNL     1      21.328 -12.261  18.096  1.00  0.00    -0.037 C
HETATM   42  C1  UNL     1      21.709 -12.126  19.361  1.00  0.00     0.007 C
ENDBRANCH  40  41
ENDBRANCH  39  40
ENDBRANCH  38  39
ENDBRANCH   1  38
BRANCH   6  43
HETATM   43  C9  UNL     1      14.687 -11.762  21.543  1.00  0.00     0.038 C
BRANCH  43  44
HETATM   44  C10 UNL     1      13.283 -11.287  21.621  1.00  0.00    -0.020 C
HETATM   45  C11 UNL     1      13.102  -9.832  21.235  1.00  0.00     0.009 C
HETATM   46  C12 UNL     1      12.530 -11.669  22.859  1.00  0.00     0.009 C
ENDBRANCH  43  44
ENDBRANCH   6  43
BRANCH  11  47
HETATM   47  C15 UNL     1      13.701 -17.041  19.796  1.00  0.00     0.009 C
HETATM   48  C16 UNL     1      14.773 -17.456  18.838  1.00  0.00     0.012 C
HETATM   49  C17 UNL     1      12.941 -18.256  20.240  1.00  0.00     0.012 C
ENDBRANCH  11  47
TORSDOF 11
ENDMDL