MODEL 2
REMARK VINA RESULT: -6.748369084      1.832      2.492
REMARK  14 active torsions:
REMARK  status: ('A' for Active; 'I' for Inactive)
REMARK    1  A    between atoms: C2_2  and  C4_4
REMARK    2  A    between atoms: C4_4  and  C5_5
REMARK    3  A    between atoms: C6_8  and  O1_9
REMARK    4  A    between atoms: C10_17  and  C11_18
REMARK    5  A    between atoms: C11_18  and  C12_19
REMARK    6  A    between atoms: C12_19  and  C13_20
REMARK    7  A    between atoms: C13_20  and  C14_21
REMARK    8  A    between atoms: C14_21  and  N3_22
REMARK    9  A    between atoms: C16_30  and  C17_31
REMARK   10  A    between atoms: C21_36  and  C22_37
REMARK   11  A    between atoms: C22_37  and  C23_38
REMARK   12  A    between atoms: C26_43  and  O5_44
REMARK   13  A    between atoms: C27_46  and  C28_47
REMARK   14  A    between atoms: C28_47  and  C29_48
ROOT
HETATM    1  C5  UNL     1      16.959 -12.670  18.476  1.00  0.00     0.199 C
HETATM    2  N1  UNL     1      18.159 -12.403  19.210  1.00  0.00    -0.356 N
ATOM      3  H1  UNL     1      18.110 -11.573  19.801  1.00  0.00     0.162 HD
HETATM    4  C6  UNL     1      19.366 -13.061  19.265  1.00  0.00     0.135 C
HETATM    5  C7  UNL     1      19.804 -14.439  19.222  1.00  0.00     0.155 C
HETATM    6  C8  UNL     1      20.974 -14.494  18.208  1.00  0.00     0.041 C
HETATM    7  N2  UNL     1      18.921 -15.463  18.834  1.00  0.00    -0.348 N
ATOM      8  H2  UNL     1      18.290 -15.292  18.051  1.00  0.00     0.163 HD
HETATM    9  C9  UNL     1      18.871 -16.717  19.480  1.00  0.00     0.241 C
HETATM   10  O2  UNL     1      18.469 -17.769  18.875  1.00  0.00    -0.271 OA
HETATM   11  C10 UNL     1      19.276 -16.955  20.918  1.00  0.00     0.176 C
HETATM   12  N4  UNL     1      18.472 -18.030  21.449  1.00  0.00    -0.347 N
ATOM     13  H4  UNL     1      18.236 -18.756  20.772  1.00  0.00     0.163 HD
HETATM   14  C15 UNL     1      17.967 -18.244  22.717  1.00  0.00     0.230 C
HETATM   15  O3  UNL     1      17.976 -19.474  23.128  1.00  0.00    -0.273 OA
HETATM   16  C16 UNL     1      17.409 -17.302  23.700  1.00  0.00     0.152 C
HETATM   17  C20 UNL     1      16.856 -16.063  23.197  1.00  0.00     0.162 C
HETATM   18  O4  UNL     1      17.199 -14.993  23.649  1.00  0.00    -0.295 OA
HETATM   19  C21 UNL     1      15.802 -16.024  22.059  1.00  0.00     0.154 C
HETATM   20  N5  UNL     1      15.960 -14.748  21.453  1.00  0.00    -0.361 N
ATOM     21  H5  UNL     1      16.858 -14.686  20.974  1.00  0.00     0.162 HD
HETATM   22  C26 UNL     1      15.251 -13.560  21.320  1.00  0.00     0.139 C
HETATM   23  C27 UNL     1      14.140 -13.106  20.520  1.00  0.00     0.182 C
HETATM   24  N6  UNL     1      14.562 -12.223  19.406  1.00  0.00    -0.344 N
ATOM     25  H6  UNL     1      13.802 -11.838  18.845  1.00  0.00     0.163 HD
HETATM   26  C32 UNL     1      15.820 -11.847  19.017  1.00  0.00     0.245 C
HETATM   27  O6  UNL     1      16.107 -10.594  19.121  1.00  0.00    -0.271 OA
ENDROOT
BRANCH  11  28
HETATM   28  C11 UNL     1      20.714 -17.529  20.788  1.00  0.00     0.035 C
BRANCH  28  29
HETATM   29  C12 UNL     1      21.674 -16.742  21.601  1.00  0.00     0.004 C
BRANCH  29  30
HETATM   30  C13 UNL     1      21.127 -15.520  22.250  1.00  0.00     0.027 C
BRANCH  30  31
HETATM   31  C14 UNL     1      21.971 -14.306  22.301  1.00  0.00     0.229 C
BRANCH  31  32
HETATM   32  N3  UNL     1      23.348 -14.495  22.679  1.00  0.00    -0.079 N
ATOM     33  H33 UNL     1      23.397 -15.087  23.509  1.00  0.00     0.274 HD
ATOM     34  H32 UNL     1      23.812 -15.093  21.996  1.00  0.00     0.274 HD
ATOM     35  H31 UNL     1      23.900 -13.650  22.828  1.00  0.00     0.274 HD
ENDBRANCH  31  32
ENDBRANCH  30  31
ENDBRANCH  29  30
ENDBRANCH  28  29
ENDBRANCH  11  28
BRANCH  16  36
HETATM   36  C17 UNL     1      18.441 -17.102  24.789  1.00  0.00    -0.002 C
HETATM   37  C18 UNL     1      19.628 -17.971  24.491  1.00  0.00     0.011 C
HETATM   38  C19 UNL     1      17.889 -17.426  26.159  1.00  0.00     0.011 C
ENDBRANCH  16  36
BRANCH   4  39
HETATM   39  O1  UNL     1      20.392 -12.260  19.389  1.00  0.00    -0.348 OA
ATOM     40  H1  UNL     1      20.692 -12.164  20.285  1.00  0.00     0.219 HD
ENDBRANCH   4  39
BRANCH  19  41
HETATM   41  C22 UNL     1      14.553 -16.417  22.713  1.00  0.00     0.037 C
BRANCH  41  42
HETATM   42  C23 UNL     1      13.514 -17.156  21.970  1.00  0.00    -0.020 C
HETATM   43  C24 UNL     1      14.137 -17.904  20.769  1.00  0.00     0.009 C
HETATM   44  C25 UNL     1      12.384 -16.272  21.479  1.00  0.00     0.009 C
ENDBRANCH  41  42
ENDBRANCH  19  41
BRANCH   1  45
HETATM   45  C4  UNL     1      17.034 -12.636  17.006  1.00  0.00     0.009 C
BRANCH  45  46
HETATM   46  C2  UNL     1      17.986 -11.832  16.260  1.00  0.00    -0.089 C
HETATM   47  C1  UNL     1      17.461 -10.739  15.382  1.00  0.00     0.042 C
HETATM   48  C3  UNL     1      19.139 -12.568  15.596  1.00  0.00     0.042 C
ENDBRANCH  45  46
ENDBRANCH   1  45
BRANCH  22  49
HETATM   49  O5  UNL     1      15.712 -12.622  22.112  1.00  0.00    -0.348 OA
ATOM     50  H5  UNL     1      15.072 -11.935  22.260  1.00  0.00     0.219 HD
ENDBRANCH  22  49
BRANCH  23  51
HETATM   51  C28 UNL     1      12.928 -12.567  21.145  1.00  0.00     0.008 C
BRANCH  51  52
HETATM   52  C29 UNL     1      12.879 -11.457  22.074  1.00  0.00    -0.089 C
HETATM   53  C30 UNL     1      11.823 -11.476  23.143  1.00  0.00     0.042 C
HETATM   54  C31 UNL     1      13.088 -10.060  21.574  1.00  0.00     0.042 C
ENDBRANCH  51  52
ENDBRANCH  23  51
TORSDOF 14
ENDMDL