MODEL 4
REMARK VINA RESULT: -7.860652227      2.243      6.591
REMARK  15 active torsions:
REMARK  status: ('A' for Active; 'I' for Inactive)
REMARK       I    between atoms: N1_2  and  C2_4
REMARK    1  A    between atoms: C2_4  and  C3_6
REMARK    2  A    between atoms: C3_6  and  C4_7
REMARK    3  A    between atoms: C4_7  and  C5_8
REMARK    4  A    between atoms: C5_8  and  C6_9
REMARK    5  A    between atoms: C6_9  and  C7_10
REMARK    6  A    between atoms: C9_15  and  C10_16
REMARK    7  A    between atoms: C10_16  and  C11_17
REMARK    8  A    between atoms: C14_22  and  O3_23
REMARK    9  A    between atoms: C15_25  and  C16_26
REMARK   10  A    between atoms: C19_31  and  O4_32
REMARK   11  A    between atoms: C20_34  and  C21_35
REMARK   12  A    between atoms: C21_35  and  C22_36
REMARK   13  A    between atoms: C25_41  and  O5_42
REMARK   14  A    between atoms: C26_44  and  C27_45
REMARK   15  A    between atoms: C30_50  and  O6_51
ROOT
HETATM    1  C7  UNL     1      19.602 -13.081  19.820  1.00  0.00     0.096 C
HETATM    2  N2  UNL     1      20.653 -12.892  20.751  1.00  0.00    -0.354 N
ATOM      3  H2  UNL     1      21.073 -11.964  20.712  1.00  0.00     0.162 HD
HETATM    4  C8  UNL     1      21.228 -13.729  21.710  1.00  0.00     0.240 C
HETATM    5  O2  UNL     1      22.431 -14.169  21.620  1.00  0.00    -0.271 OA
HETATM    6  C9  UNL     1      20.545 -14.228  22.982  1.00  0.00     0.175 C
HETATM    7  N3  UNL     1      20.981 -15.598  23.201  1.00  0.00    -0.359 N
ATOM      8  H3  UNL     1      21.964 -15.696  23.458  1.00  0.00     0.162 HD
HETATM    9  C14 UNL     1      20.285 -16.793  23.117  1.00  0.00     0.135 C
HETATM   10  C15 UNL     1      19.174 -17.297  23.965  1.00  0.00     0.161 C
HETATM   11  N4  UNL     1      18.046 -16.448  24.109  1.00  0.00    -0.360 N
ATOM     12  H4  UNL     1      17.926 -16.034  25.034  1.00  0.00     0.162 HD
HETATM   13  C19 UNL     1      17.068 -16.096  23.160  1.00  0.00     0.135 C
HETATM   14  C20 UNL     1      16.472 -16.892  22.138  1.00  0.00     0.158 C
HETATM   15  N5  UNL     1      15.492 -16.259  21.256  1.00  0.00    -0.357 N
ATOM     16  H5  UNL     1      15.265 -16.873  20.475  1.00  0.00     0.162 HD
HETATM   17  C25 UNL     1      14.794 -15.097  21.165  1.00  0.00     0.160 C
HETATM   18  C26 UNL     1      14.898 -13.791  20.476  1.00  0.00     0.065 C
HETATM   19  N6  UNL     1      15.974 -13.620  19.584  1.00  0.00    -0.340 N
ATOM     20  H6  UNL     1      15.902 -14.242  18.778  1.00  0.00     0.167 HD
HETATM   21  C30 UNL     1      17.120 -12.814  19.519  1.00  0.00     0.121 C
HETATM   22  C31 UNL     1      18.276 -12.716  20.431  1.00  0.00     0.079 C
HETATM   23  C32 UNL     1      18.365 -11.416  21.203  1.00  0.00     0.020 C
ENDROOT
BRANCH   1  24
HETATM   24  C6  UNL     1      19.975 -12.382  18.543  1.00  0.00     0.026 C
BRANCH  24  25
HETATM   25  C5  UNL     1      20.955 -13.062  17.665  1.00  0.00     0.002 C
BRANCH  25  26
HETATM   26  C4  UNL     1      20.483 -12.957  16.222  1.00  0.00     0.009 C
BRANCH  26  27
HETATM   27  C3  UNL     1      19.027 -13.238  16.069  1.00  0.00     0.103 C
BRANCH  27  28
HETATM   28  C2  UNL     1      18.448 -12.254  15.079  1.00  0.00     0.220 C
HETATM   29  N1  UNL     1      17.756 -11.123  15.610  1.00  0.00    -0.347 N
HETATM   30  C1  UNL     1      16.817 -10.579  14.931  1.00  0.00     0.121 C
ATOM     31  H1  UNL     1      18.007 -10.752  16.526  1.00  0.00     0.167 HD
HETATM   32  O1  UNL     1      18.597 -12.464  13.869  1.00  0.00    -0.273 OA
ENDBRANCH  27  28
ENDBRANCH  26  27
ENDBRANCH  25  26
ENDBRANCH  24  25
ENDBRANCH   1  24
BRANCH  21  33
HETATM   33  O6  UNL     1      17.256 -11.993  18.512  1.00  0.00    -0.349 OA
ATOM     34  H6  UNL     1      16.867 -11.128  18.570  1.00  0.00     0.219 HD
ENDBRANCH  21  33
BRANCH   6  35
HETATM   35  C10 UNL     1      21.153 -13.344  24.076  1.00  0.00     0.038 C
BRANCH  35  36
HETATM   36  C11 UNL     1      20.785 -13.724  25.468  1.00  0.00    -0.020 C
HETATM   37  C12 UNL     1      21.204 -12.564  26.364  1.00  0.00     0.009 C
HETATM   38  C13 UNL     1      19.265 -13.794  25.593  1.00  0.00     0.009 C
ENDBRANCH  35  36
ENDBRANCH   6  35
BRANCH  18  39
HETATM   39  C27 UNL     1      14.519 -12.602  21.336  1.00  0.00     0.032 C
HETATM   40  C28 UNL     1      14.429 -11.392  20.403  1.00  0.00     0.016 C
HETATM   41  C29 UNL     1      13.178 -12.748  21.967  1.00  0.00     0.016 C
ENDBRANCH  18  39
BRANCH   9  42
HETATM   42  O3  UNL     1      20.684 -17.569  22.142  1.00  0.00    -0.348 OA
ATOM     43  H3  UNL     1      21.556 -17.923  22.269  1.00  0.00     0.219 HD
ENDBRANCH   9  42
BRANCH  17  44
HETATM   44  O5  UNL     1      13.680 -15.098  21.888  1.00  0.00    -0.345 OA
ATOM     45  H5  UNL     1      12.904 -14.890  21.381  1.00  0.00     0.219 HD
ENDBRANCH  17  44
BRANCH  10  46
HETATM   46  C16 UNL     1      19.812 -17.718  25.289  1.00  0.00     0.008 C
HETATM   47  C17 UNL     1      18.950 -17.398  26.483  1.00  0.00     0.012 C
HETATM   48  C18 UNL     1      19.927 -19.238  25.262  1.00  0.00     0.012 C
ENDBRANCH  10  46
BRANCH  14  49
HETATM   49  C21 UNL     1      15.860 -18.160  22.687  1.00  0.00     0.037 C
BRANCH  49  50
HETATM   50  C22 UNL     1      14.881 -18.091  23.767  1.00  0.00    -0.020 C
HETATM   51  C23 UNL     1      13.711 -19.019  23.335  1.00  0.00     0.009 C
HETATM   52  C24 UNL     1      15.291 -18.671  25.100  1.00  0.00     0.009 C
ENDBRANCH  49  50
ENDBRANCH  14  49
BRANCH  13  53
HETATM   53  O4  UNL     1      16.635 -14.864  23.202  1.00  0.00    -0.348 OA
ATOM     54  H4  UNL     1      17.221 -14.198  22.860  1.00  0.00     0.219 HD
ENDBRANCH  13  53
TORSDOF 15
ENDMDL