MODEL 4
REMARK VINA RESULT: -7.237679050      1.965      7.714
REMARK  11 active torsions:
REMARK  status: ('A' for Active; 'I' for Inactive)
REMARK    1  A    between atoms: C2_2  and  C3_3
REMARK    2  A    between atoms: C3_3  and  C4_4
REMARK    3  A    between atoms: C4_4  and  C5_5
REMARK    4  A    between atoms: C7_10  and  C8_11
REMARK    5  A    between atoms: C8_11  and  C9_12
REMARK    6  A    between atoms: C9_12  and  C10_13
REMARK    7  A    between atoms: C13_19  and  C14_20
REMARK    8  A    between atoms: C14_20  and  C15_21
REMARK    9  A    between atoms: C21_33  and  C22_34
REMARK   10  A    between atoms: C22_34  and  C23_35
REMARK   11  A    between atoms: C27_42  and  C28_43
ROOT
HETATM    1  C5  UNL     1      14.701 -15.931  21.483  1.00  0.00     0.177 C
HETATM    2  N1  UNL     1      15.232 -14.784  22.164  1.00  0.00    -0.346 N
ATOM      3  H1  UNL     1      15.461 -14.902  23.151  1.00  0.00     0.163 HD
HETATM    4  C6  UNL     1      15.473 -13.504  21.601  1.00  0.00     0.241 C
HETATM    5  O1  UNL     1      16.272 -12.779  22.294  1.00  0.00    -0.271 OA
HETATM    6  C7  UNL     1      14.934 -12.944  20.377  1.00  0.00     0.176 C
HETATM    7  N2  UNL     1      15.574 -13.296  19.134  1.00  0.00    -0.346 N
ATOM      8  H2  UNL     1      15.100 -12.921  18.312  1.00  0.00     0.163 HD
HETATM    9  C12 UNL     1      16.694 -14.036  18.831  1.00  0.00     0.241 C
HETATM   10  O2  UNL     1      16.528 -15.111  18.127  1.00  0.00    -0.271 OA
HETATM   11  C13 UNL     1      18.124 -13.832  19.171  1.00  0.00     0.177 C
HETATM   12  N3  UNL     1      18.492 -12.531  19.599  1.00  0.00    -0.348 N
ATOM     13  H3  UNL     1      18.014 -11.728  19.193  1.00  0.00     0.163 HD
HETATM   14  C18 UNL     1      19.510 -12.303  20.578  1.00  0.00     0.219 C
HETATM   15  O3  UNL     1      20.177 -11.235  20.484  1.00  0.00    -0.274 OA
HETATM   16  C19 UNL     1      19.837 -13.215  21.680  1.00  0.00     0.130 C
HETATM   17  C20 UNL     1      20.954 -14.161  21.415  1.00  0.00     0.242 C
HETATM   18  N4  UNL     1      21.143 -14.973  22.622  1.00  0.00    -0.062 N
ATOM     19  H41 UNL     1      20.388 -14.810  23.289  1.00  0.00     0.278 HD
ATOM     20  H42 UNL     1      21.931 -14.628  23.170  1.00  0.00     0.278 HD
HETATM   21  C21 UNL     1      21.284 -16.346  22.357  1.00  0.00     0.277 C
HETATM   22  C26 UNL     1      20.066 -17.139  22.122  1.00  0.00     0.249 C
HETATM   23  O4  UNL     1      19.938 -17.619  20.934  1.00  0.00    -0.271 OA
HETATM   24  N5  UNL     1      19.029 -17.450  23.010  1.00  0.00    -0.346 N
ATOM     25  H5  UNL     1      18.897 -18.445  23.194  1.00  0.00     0.163 HD
HETATM   26  C27 UNL     1      18.113 -16.561  23.710  1.00  0.00     0.176 C
HETATM   27  C30 UNL     1      16.774 -17.210  23.869  1.00  0.00     0.247 C
HETATM   28  O5  UNL     1      16.291 -17.314  25.051  1.00  0.00    -0.271 OA
HETATM   29  N6  UNL     1      15.964 -17.734  22.850  1.00  0.00    -0.294 N
ATOM     30  H6  UNL     1      15.651 -18.693  23.003  1.00  0.00     0.171 HD
HETATM   31  C31 UNL     1      15.515 -17.153  21.656  1.00  0.00     0.247 C
HETATM   32  O6  UNL     1      15.845 -17.752  20.566  1.00  0.00    -0.271 OA
ENDROOT
BRANCH   1  33
HETATM   33  C4  UNL     1      13.262 -16.197  21.954  1.00  0.00     0.035 C
BRANCH  33  34
HETATM   34  C3  UNL     1      12.334 -15.487  21.012  1.00  0.00     0.002 C
BRANCH  34  35
HETATM   35  C2  UNL     1      12.286 -16.265  19.702  1.00  0.00    -0.004 C
HETATM   36  C1  UNL     1      10.843 -16.221  19.219  1.00  0.00     0.005 C
ENDBRANCH  34  35
ENDBRANCH  33  34
ENDBRANCH   1  33
BRANCH   6  37
HETATM   37  C8  UNL     1      14.812 -11.414  20.502  1.00  0.00     0.035 C
BRANCH  37  38
HETATM   38  C9  UNL     1      13.459 -11.053  21.055  1.00  0.00     0.002 C
BRANCH  38  39
HETATM   39  C10 UNL     1      13.644  -9.801  21.889  1.00  0.00    -0.004 C
HETATM   40  C11 UNL     1      12.386  -9.526  22.711  1.00  0.00     0.005 C
ENDBRANCH  38  39
ENDBRANCH  37  38
ENDBRANCH   6  37
BRANCH  26  41
HETATM   41  C28 UNL     1      18.693 -16.418  25.118  1.00  0.00     0.030 C
HETATM   42  C29 UNL     1      18.942 -14.956  25.388  1.00  0.00     0.007 C
ENDBRANCH  26  41
BRANCH  11  43
HETATM   43  C14 UNL     1      19.018 -14.287  18.032  1.00  0.00     0.038 C
BRANCH  43  44
HETATM   44  C15 UNL     1      19.630 -13.208  17.226  1.00  0.00    -0.020 C
HETATM   45  C16 UNL     1      18.811 -13.026  15.934  1.00  0.00     0.009 C
HETATM   46  C17 UNL     1      21.042 -13.466  16.753  1.00  0.00     0.009 C
ENDBRANCH  43  44
ENDBRANCH  11  43
BRANCH  21  47
HETATM   47  C22 UNL     1      22.193 -16.998  23.376  1.00  0.00     0.046 C
BRANCH  47  48
HETATM   48  C23 UNL     1      23.000 -16.011  24.143  1.00  0.00    -0.020 C
HETATM   49  C24 UNL     1      24.472 -16.452  23.957  1.00  0.00     0.009 C
HETATM   50  C25 UNL     1      22.770 -16.119  25.649  1.00  0.00     0.009 C
ENDBRANCH  47  48
ENDBRANCH  21  47
TORSDOF 11
ENDMDL