MODEL 2
REMARK VINA RESULT: -11.336917281      1.297      2.180
REMARK  6 active torsions:
REMARK  status: ('A' for Active; 'I' for Inactive)
REMARK    1  A    between atoms: C1_4  and  C2_6
REMARK    2  A    between atoms: C5_9  and  C6_10
REMARK    3  A    between atoms: C6_10  and  O1_11
REMARK    4  A    between atoms: O1_11  and  C7_12
REMARK    5  A    between atoms: C10_15  and  C11_16
REMARK    6  A    between atoms: C17_24  and  C18_25
ROOT
HETATM    1  C7  UNL     1      60.955   6.347  -3.980  1.00  0.00     0.080 A
HETATM    2  C8  UNL     1      61.469   7.520  -3.422  1.00  0.00     0.038 A
HETATM    3  C9  UNL     1      61.485   7.658  -2.073  1.00  0.00     0.016 A
HETATM    4  C10 UNL     1      60.999   6.649  -1.234  1.00  0.00    -0.009 A
HETATM    5  C16 UNL     1      60.498   5.508  -1.797  1.00  0.00     0.029 A
HETATM    6  C17 UNL     1      60.468   5.337  -3.186  1.00  0.00     0.011 A
ENDROOT
BRANCH   1   7
HETATM    7  O1  UNL     1      60.953   6.227  -5.369  1.00  0.00    -0.346 OA
BRANCH   7   8
HETATM    8  C6  UNL     1      62.183   6.099  -6.055  1.00  0.00     0.214 C
BRANCH   8   9
HETATM    9  C5  UNL     1      62.395   4.667  -6.377  1.00  0.00    -0.034 A
HETATM   10  C4  UNL     1      63.574   4.013  -6.113  1.00  0.00     0.010 A
HETATM   11  C3  UNL     1      63.771   2.662  -6.425  1.00  0.00     0.015 A
HETATM   12  C2  UNL     1      62.780   1.920  -7.020  1.00  0.00     0.004 A
HETATM   13  C27 UNL     1      61.582   2.593  -7.287  1.00  0.00     0.015 A
HETATM   14  C26 UNL     1      61.380   3.919  -6.983  1.00  0.00     0.010 A
BRANCH  12  15
HETATM   15  C1  UNL     1      62.899   0.516  -7.382  1.00  0.00     0.120 C
HETATM   16  N1  UNL     1      62.010  -0.061  -8.095  1.00  0.00    -0.387 N
ATOM     17  H12 UNL     1      62.094  -1.046  -8.348  1.00  0.00     0.157 HD
ATOM     18  H11 UNL     1      61.216   0.502  -8.398  1.00  0.00     0.157 HD
HETATM   19  N2  UNL     1      64.007  -0.270  -6.959  1.00  0.00    -0.082 NA
ENDBRANCH  12  15
ENDBRANCH   8   9
ENDBRANCH   7   8
ENDBRANCH   1   7
BRANCH   6  20
HETATM   20  C18 UNL     1      59.914   4.102  -3.745  1.00  0.00     0.005 A
HETATM   21  C19 UNL     1      58.654   3.957  -4.305  1.00  0.00     0.101 A
HETATM   22  N4  UNL     1      58.464   2.696  -4.712  1.00  0.00    -0.364 N
HETATM   23  C20 UNL     1      59.585   2.016  -4.423  1.00  0.00     0.043 A
ATOM     24  H4  UNL     1      57.626   2.322  -5.157  1.00  0.00     0.165 HD
HETATM   25  C21 UNL     1      59.922   0.696  -4.627  1.00  0.00     0.030 A
HETATM   26  C25 UNL     1      60.494   2.858  -3.828  1.00  0.00     0.003 A
HETATM   27  C22 UNL     1      61.151   0.215  -4.241  1.00  0.00     0.002 A
HETATM   28  C23 UNL     1      62.073   1.057  -3.641  1.00  0.00     0.001 A
HETATM   29  C24 UNL     1      61.729   2.382  -3.440  1.00  0.00     0.014 A
ENDBRANCH   6  20
BRANCH   4  30
HETATM   30  C11 UNL     1      61.071   6.888   0.202  1.00  0.00     0.042 A
HETATM   31  C12 UNL     1      60.754   8.105   0.741  1.00  0.00     0.030 A
HETATM   32  C13 UNL     1      60.803   8.361   2.105  1.00  0.00     0.004 A
HETATM   33  C14 UNL     1      61.192   7.335   2.948  1.00  0.00     0.017 A
HETATM   34  C15 UNL     1      61.510   6.113   2.387  1.00  0.00     0.088 A
HETATM   35  N3  UNL     1      61.448   5.907   1.049  1.00  0.00    -0.365 N
ATOM     36  H3  UNL     1      61.691   4.990   0.674  1.00  0.00     0.165 HD
ENDBRANCH   4  30
TORSDOF 6
ENDMDL