MODEL 5
REMARK VINA RESULT: -8.165965442      3.301      7.862
REMARK  6 active torsions:
REMARK  status: ('A' for Active; 'I' for Inactive)
REMARK    1  A    between atoms: C1_4  and  C2_6
REMARK    2  A    between atoms: C4_8  and  C5_9
REMARK    3  A    between atoms: C7_13  and  C8_14
REMARK    4  A    between atoms: C18_24  and  O1_25
REMARK    5  A    between atoms: O1_25  and  C19_26
REMARK    6  A    between atoms: C19_26  and  C20_27
ROOT
HETATM    1  C5  UNL     1      62.688   3.683  -3.075  1.00  0.00     0.005 A
HETATM    2  C6  UNL     1      62.945   3.312  -1.744  1.00  0.00     0.101 A
HETATM    3  N3  UNL     1      62.516   4.040  -0.737  1.00  0.00    -0.364 N
ATOM      4  H3  UNL     1      62.722   3.739   0.216  1.00  0.00     0.165 HD
HETATM    5  C7  UNL     1      61.802   5.185  -0.931  1.00  0.00     0.053 A
HETATM    6  C14 UNL     1      61.517   5.607  -2.191  1.00  0.00     0.005 A
HETATM    7  C15 UNL     1      60.834   6.754  -2.438  1.00  0.00     0.015 A
HETATM    8  C16 UNL     1      60.568   7.187  -3.735  1.00  0.00     0.004 A
HETATM    9  C17 UNL     1      60.996   6.461  -4.803  1.00  0.00     0.038 A
HETATM   10  C18 UNL     1      61.697   5.284  -4.565  1.00  0.00     0.081 A
HETATM   11  C26 UNL     1      61.976   4.829  -3.288  1.00  0.00     0.022 A
ENDROOT
BRANCH   1  12
HETATM   12  C4  UNL     1      63.159   2.833  -4.140  1.00  0.00    -0.006 A
HETATM   13  C3  UNL     1      64.167   3.089  -5.040  1.00  0.00     0.046 A
HETATM   14  C2  UNL     1      64.363   1.984  -5.864  1.00  0.00     0.074 A
HETATM   15  N4  UNL     1      63.450   1.070  -5.432  1.00  0.00    -0.362 N
HETATM   16  C27 UNL     1      62.731   1.559  -4.413  1.00  0.00     0.101 A
ATOM     17  H4  UNL     1      63.331   0.138  -5.830  1.00  0.00     0.165 HD
BRANCH  14  18
HETATM   18  C1  UNL     1      65.326   1.836  -6.944  1.00  0.00     0.137 C
HETATM   19  N1  UNL     1      64.958   2.166  -8.130  1.00  0.00    -0.386 N
ATOM     20  H12 UNL     1      65.633   2.063  -8.887  1.00  0.00     0.157 HD
ATOM     21  H11 UNL     1      64.009   2.515  -8.266  1.00  0.00     0.157 HD
HETATM   22  N2  UNL     1      66.642   1.351  -6.755  1.00  0.00    -0.081 NA
ENDBRANCH  14  18
ENDBRANCH   1  12
BRANCH  10  23
HETATM   23  O1  UNL     1      62.121   4.571  -5.643  1.00  0.00    -0.346 OA
BRANCH  23  24
HETATM   24  C19 UNL     1      61.419   4.217  -6.776  1.00  0.00     0.214 C
BRANCH  24  25
HETATM   25  C20 UNL     1      60.911   2.843  -6.853  1.00  0.00    -0.034 A
HETATM   26  C21 UNL     1      60.007   2.316  -5.923  1.00  0.00     0.009 A
HETATM   27  C22 UNL     1      59.540   1.022  -6.010  1.00  0.00     0.001 A
HETATM   28  C23 UNL     1      59.957   0.197  -7.031  1.00  0.00     0.000 A
HETATM   29  C24 UNL     1      60.841   0.697  -7.949  1.00  0.00     0.001 A
HETATM   30  C25 UNL     1      61.304   1.988  -7.858  1.00  0.00     0.009 A
ENDBRANCH  24  25
ENDBRANCH  23  24
ENDBRANCH  10  23
BRANCH   5  31
HETATM   31  C8  UNL     1      61.377   5.919   0.245  1.00  0.00    -0.009 A
HETATM   32  C9  UNL     1      61.794   7.171   0.610  1.00  0.00     0.014 A
HETATM   33  C10 UNL     1      61.337   7.775   1.752  1.00  0.00     0.001 A
HETATM   34  C11 UNL     1      60.437   7.156   2.591  1.00  0.00     0.000 A
HETATM   35  C12 UNL     1      60.008   5.909   2.247  1.00  0.00     0.001 A
HETATM   36  C13 UNL     1      60.466   5.302   1.101  1.00  0.00     0.014 A
ENDBRANCH   5  31
TORSDOF 6
ENDMDL