MODEL 2
REMARK VINA RESULT: -11.644561298      1.738      2.924
REMARK  6 active torsions:
REMARK  status: ('A' for Active; 'I' for Inactive)
REMARK    1  A    between atoms: C1_4  and  C2_6
REMARK    2  A    between atoms: C5_9  and  C6_10
REMARK    3  A    between atoms: C10_14  and  C11_15
REMARK    4  A    between atoms: C14_18  and  O1_19
REMARK    5  A    between atoms: O1_19  and  C15_20
REMARK    6  A    between atoms: C15_20  and  C16_21
ROOT
HETATM    1  C11 UNL     1      61.336   4.440  -2.996  1.00  0.00    -0.026 A
HETATM    2  C12 UNL     1      62.498   3.689  -2.929  1.00  0.00     0.015 A
HETATM    3  C13 UNL     1      62.585   2.432  -3.489  1.00  0.00     0.037 A
HETATM    4  C14 UNL     1      61.512   1.867  -4.144  1.00  0.00     0.069 A
HETATM    5  C23 UNL     1      60.355   2.604  -4.215  1.00  0.00     0.037 A
HETATM    6  C24 UNL     1      60.264   3.871  -3.651  1.00  0.00     0.015 A
ENDROOT
BRANCH   1   7
HETATM    7  C10 UNL     1      61.244   5.769  -2.400  1.00  0.00    -0.025 A
HETATM    8  C9  UNL     1      61.062   6.925  -3.128  1.00  0.00     0.012 A
HETATM    9  C8  UNL     1      60.976   8.171  -2.508  1.00  0.00     0.002 A
HETATM   10  C7  UNL     1      61.070   8.280  -1.136  1.00  0.00     0.012 A
HETATM   11  C6  UNL     1      61.252   7.134  -0.391  1.00  0.00    -0.025 A
HETATM   12  C25 UNL     1      61.336   5.899  -1.027  1.00  0.00     0.024 A
BRANCH  11  13
HETATM   13  C5  UNL     1      61.352   7.229   1.076  1.00  0.00    -0.026 A
HETATM   14  C4  UNL     1      60.831   8.303   1.766  1.00  0.00     0.013 A
HETATM   15  C3  UNL     1      60.919   8.404   3.125  1.00  0.00     0.015 A
HETATM   16  C2  UNL     1      61.549   7.414   3.874  1.00  0.00     0.004 A
HETATM   17  C27 UNL     1      62.078   6.331   3.197  1.00  0.00     0.015 A
HETATM   18  C26 UNL     1      61.976   6.249   1.826  1.00  0.00     0.013 A
BRANCH  16  19
HETATM   19  C1  UNL     1      61.653   7.509   5.316  1.00  0.00     0.120 C
HETATM   20  N1  UNL     1      61.285   8.577   5.909  1.00  0.00    -0.387 N
ATOM     21  H12 UNL     1      61.358   8.643   6.924  1.00  0.00     0.157 HD
ATOM     22  H11 UNL     1      60.918   9.363   5.373  1.00  0.00     0.157 HD
HETATM   23  N2  UNL     1      62.159   6.424   6.055  1.00  0.00    -0.082 NA
ENDBRANCH  16  19
ENDBRANCH  11  13
ENDBRANCH   1   7
BRANCH   4  24
HETATM   24  O1  UNL     1      61.647   0.585  -4.699  1.00  0.00    -0.347 OA
BRANCH  24  25
HETATM   25  C15 UNL     1      61.761   0.391  -6.077  1.00  0.00     0.215 C
BRANCH  25  26
HETATM   26  C16 UNL     1      63.072   0.876  -6.544  1.00  0.00    -0.019 A
HETATM   27  C17 UNL     1      63.193   2.032  -7.283  1.00  0.00     0.027 A
HETATM   28  C18 UNL     1      64.456   2.417  -7.682  1.00  0.00     0.090 A
HETATM   29  N3  UNL     1      65.565   1.697  -7.369  1.00  0.00    -0.352 N
HETATM   30  C19 UNL     1      65.424   0.582  -6.653  1.00  0.00     0.116 A
ATOM     31  H3  UNL     1      66.487   2.004  -7.677  1.00  0.00     0.166 HD
HETATM   32  N4  UNL     1      66.338  -0.319  -6.204  1.00  0.00    -0.352 N
HETATM   33  C22 UNL     1      64.198   0.133  -6.219  1.00  0.00     0.018 A
HETATM   34  C20 UNL     1      65.708  -1.298  -5.512  1.00  0.00     0.090 A
ATOM     35  H4  UNL     1      67.344  -0.266  -6.364  1.00  0.00     0.166 HD
HETATM   36  C21 UNL     1      64.355  -1.040  -5.505  1.00  0.00     0.033 A
ENDBRANCH  25  26
ENDBRANCH  24  25
ENDBRANCH   4  24
TORSDOF 6
ENDMDL