MODEL 5
REMARK VINA RESULT: -10.261572935      1.883     11.237
REMARK  7 active torsions:
REMARK  status: ('A' for Active; 'I' for Inactive)
REMARK       I    between atoms: C1_2  and  N1_3
REMARK       I    between atoms: C1_2  and  N2_11
REMARK    1  A    between atoms: N1_3  and  C2_5
REMARK    2  A    between atoms: N2_11  and  C8_13
REMARK    3  A    between atoms: C11_16  and  N3_17
REMARK    4  A    between atoms: N3_17  and  C12_18
REMARK    5  A    between atoms: C12_18  and  O2_19
REMARK    6  A    between atoms: C12_18  and  C13_21
REMARK    7  A    between atoms: C16_24  and  C17_25
ROOT
HETATM    1  C8  UNL     1      62.867   4.275  -5.390  1.00  0.00     0.108 A
HETATM    2  C9  UNL     1      62.850   5.651  -5.434  1.00  0.00     0.052 A
HETATM    3  C10 UNL     1      62.298   6.412  -4.452  1.00  0.00     0.050 A
HETATM    4  C11 UNL     1      61.706   5.779  -3.314  1.00  0.00     0.125 A
HETATM    5  C25 UNL     1      61.757   4.408  -3.334  1.00  0.00     0.134 A
HETATM    6  N4  UNL     1      62.309   3.684  -4.320  1.00  0.00    -0.349 N
ATOM      7  H4  UNL     1      62.305   2.667  -4.255  1.00  0.00     0.167 HD
ENDROOT
BRANCH   4   8
HETATM    8  N3  UNL     1      61.141   6.619  -2.376  1.00  0.00    -0.379 NA
BRANCH   8   9
HETATM    9  C12 UNL     1      60.596   7.430  -1.473  1.00  0.00     0.225 C
BRANCH   9  10
HETATM   10  O2  UNL     1      59.754   8.414  -1.683  1.00  0.00    -0.335 OA
ATOM     11  H2  UNL     1      59.911   9.345  -1.573  1.00  0.00     0.220 HD
ENDBRANCH   9  10
BRANCH   9  12
HETATM   12  C13 UNL     1      60.861   7.351  -0.008  1.00  0.00     0.029 A
HETATM   13  C14 UNL     1      60.533   8.407   0.773  1.00  0.00     0.018 A
HETATM   14  C15 UNL     1      60.767   8.386   2.128  1.00  0.00     0.013 A
HETATM   15  C16 UNL     1      61.346   7.266   2.686  1.00  0.00    -0.026 A
HETATM   16  C23 UNL     1      61.678   6.194   1.895  1.00  0.00     0.013 A
HETATM   17  C24 UNL     1      61.433   6.232   0.524  1.00  0.00     0.018 A
BRANCH  15  18
HETATM   18  C17 UNL     1      61.629   7.235   4.141  1.00  0.00    -0.026 A
HETATM   19  C18 UNL     1      62.186   6.141   4.731  1.00  0.00     0.012 A
HETATM   20  C19 UNL     1      62.473   6.096   6.091  1.00  0.00     0.001 A
HETATM   21  C20 UNL     1      62.163   7.233   6.837  1.00  0.00     0.000 A
HETATM   22  C21 UNL     1      61.596   8.363   6.268  1.00  0.00     0.001 A
HETATM   23  C22 UNL     1      61.337   8.344   4.927  1.00  0.00     0.012 A
ENDBRANCH  15  18
ENDBRANCH   9  12
ENDBRANCH   8   9
ENDBRANCH   4   8
BRANCH   1  24
HETATM   24  N2  UNL     1      63.471   3.525  -6.426  1.00  0.00    -0.294 N
HETATM   25  C1  UNL     1      64.400   2.481  -6.129  1.00  0.00     0.326 C
HETATM   26  O1  UNL     1      64.627   2.265  -4.918  1.00  0.00    -0.247 OA
HETATM   27  N1  UNL     1      65.020   1.749  -7.155  1.00  0.00    -0.309 N
ATOM     28  H1  UNL     1      64.779   1.986  -8.118  1.00  0.00     0.170 HD
ATOM     29  H2  UNL     1      63.240   3.732  -7.398  1.00  0.00     0.172 HD
BRANCH  27  30
HETATM   30  C2  UNL     1      65.946   0.713  -6.949  1.00  0.00     0.036 A
HETATM   31  C3  UNL     1      65.700  -0.619  -6.888  1.00  0.00     0.029 A
HETATM   32  C4  UNL     1      66.699  -1.562  -6.634  1.00  0.00     0.002 A
HETATM   33  C5  UNL     1      67.992  -1.152  -6.436  1.00  0.00     0.000 A
HETATM   34  C6  UNL     1      68.243   0.191  -6.497  1.00  0.00     0.002 A
HETATM   35  C7  UNL     1      67.273   1.127  -6.746  1.00  0.00     0.029 A
ENDBRANCH  27  30
ENDBRANCH   1  24
TORSDOF 7
ENDMDL