MODEL 5
REMARK VINA RESULT: -11.499900434      1.873     11.285
REMARK  6 active torsions:
REMARK  status: ('A' for Active; 'I' for Inactive)
REMARK    1  A    between atoms: C6_6  and  N1_7
REMARK       I    between atoms: N1_7  and  C7_9
REMARK    2  A    between atoms: C7_9  and  C8_11
REMARK    3  A    between atoms: C12_15  and  N2_16
REMARK       I    between atoms: N2_16  and  C13_18
REMARK    4  A    between atoms: C13_18  and  C14_20
REMARK    5  A    between atoms: C17_23  and  N3_24
REMARK    6  A    between atoms: N3_24  and  C18_26
ROOT
HETATM    1  N2  UNL     1      61.808   4.776  -3.878  1.00  0.00    -0.323 N
ATOM      2  H2  UNL     1      62.566   5.449  -3.763  1.00  0.00     0.169 HD
HETATM    3  C13 UNL     1      60.848   4.706  -2.872  1.00  0.00     0.256 C
HETATM    4  O2  UNL     1      59.880   3.888  -2.981  1.00  0.00    -0.267 OA
ENDROOT
BRANCH   1   5
HETATM    5  C12 UNL     1      61.810   3.987  -5.039  1.00  0.00     0.035 A
HETATM    6  C11 UNL     1      60.961   4.206  -6.077  1.00  0.00     0.029 A
HETATM    7  C10 UNL     1      61.027   3.410  -7.213  1.00  0.00     0.003 A
HETATM    8  C9  UNL     1      61.956   2.406  -7.268  1.00  0.00     0.017 A
HETATM    9  C8  UNL     1      62.817   2.172  -6.232  1.00  0.00     0.034 A
HETATM   10  C26 UNL     1      62.762   2.941  -5.118  1.00  0.00     0.046 A
BRANCH   9  11
HETATM   11  C7  UNL     1      63.829   1.078  -6.319  1.00  0.00     0.256 C
HETATM   12  N1  UNL     1      65.192   1.369  -6.499  1.00  0.00    -0.323 N
ATOM     13  H1  UNL     1      65.449   2.355  -6.559  1.00  0.00     0.169 HD
HETATM   14  O1  UNL     1      63.350  -0.076  -6.219  1.00  0.00    -0.267 OA
BRANCH  12  15
HETATM   15  C6  UNL     1      66.237   0.434  -6.604  1.00  0.00     0.035 A
HETATM   16  C5  UNL     1      66.699  -0.024  -7.800  1.00  0.00     0.029 A
HETATM   17  C4  UNL     1      67.731  -0.967  -7.809  1.00  0.00     0.003 A
HETATM   18  C3  UNL     1      68.286  -1.438  -6.647  1.00  0.00     0.007 A
HETATM   19  C2  UNL     1      67.791  -0.949  -5.451  1.00  0.00    -0.060 A
HETATM   20  C1  UNL     1      68.403  -1.470  -4.192  1.00  0.00     0.048 C
HETATM   21  C27 UNL     1      66.786  -0.030  -5.392  1.00  0.00     0.036 A
ENDBRANCH  12  15
ENDBRANCH   9  11
ENDBRANCH   1   5
BRANCH   3  22
HETATM   22  C14 UNL     1      60.907   5.558  -1.659  1.00  0.00     0.032 A
HETATM   23  C15 UNL     1      60.953   6.928  -1.803  1.00  0.00     0.019 A
HETATM   24  C16 UNL     1      61.010   7.798  -0.716  1.00  0.00     0.030 A
HETATM   25  C17 UNL     1      61.022   7.316   0.568  1.00  0.00     0.032 A
HETATM   26  C24 UNL     1      60.974   5.921   0.705  1.00  0.00     0.030 A
HETATM   27  C25 UNL     1      60.918   5.068  -0.382  1.00  0.00     0.019 A
BRANCH  25  28
HETATM   28  N3  UNL     1      61.105   8.104   1.744  1.00  0.00    -0.356 N
ATOM     29  H3  UNL     1      60.838   9.083   1.647  1.00  0.00     0.166 HD
BRANCH  28  30
HETATM   30  C18 UNL     1      61.508   7.701   3.025  1.00  0.00     0.032 A
HETATM   31  C19 UNL     1      62.315   6.613   3.213  1.00  0.00     0.029 A
HETATM   32  C20 UNL     1      62.709   6.266   4.512  1.00  0.00     0.002 A
HETATM   33  C21 UNL     1      62.313   6.982   5.621  1.00  0.00     0.000 A
HETATM   34  C22 UNL     1      61.499   8.076   5.420  1.00  0.00     0.002 A
HETATM   35  C23 UNL     1      61.111   8.419   4.151  1.00  0.00     0.029 A
ENDBRANCH  28  30
ENDBRANCH  25  28
ENDBRANCH   3  22
TORSDOF 6
ENDMDL