MODEL 2
REMARK VINA RESULT: -10.169277514      0.134      1.202
REMARK  6 active torsions:
REMARK  status: ('A' for Active; 'I' for Inactive)
REMARK    1  A    between atoms: C5_5  and  O1_6
REMARK    2  A    between atoms: O1_6  and  C6_7
REMARK    3  A    between atoms: C11_12  and  C12_13
REMARK       I    between atoms: C12_13  and  N1_15
REMARK    4  A    between atoms: N1_15  and  C13_17
REMARK    5  A    between atoms: C16_20  and  N2_21
REMARK       I    between atoms: N2_21  and  C17_23
REMARK    6  A    between atoms: C17_23  and  C18_25
ROOT
HETATM    1  C12 UNL     1      61.369   2.040  -4.877  1.00  0.00     0.259 C
HETATM    2  O2  UNL     1      61.091   1.303  -3.850  1.00  0.00    -0.267 OA
HETATM    3  N1  UNL     1      61.666   3.363  -4.604  1.00  0.00    -0.323 N
ATOM      4  H1  UNL     1      61.901   3.974  -5.386  1.00  0.00     0.169 HD
ENDROOT
BRANCH   3   5
HETATM    5  C13 UNL     1      61.663   3.914  -3.308  1.00  0.00     0.035 A
HETATM    6  C14 UNL     1      60.667   4.668  -2.761  1.00  0.00     0.032 A
HETATM    7  C15 UNL     1      60.718   5.147  -1.468  1.00  0.00     0.032 A
HETATM    8  C16 UNL     1      61.825   4.871  -0.651  1.00  0.00     0.035 A
HETATM    9  C22 UNL     1      62.835   4.118  -1.176  1.00  0.00     0.032 A
HETATM   10  C23 UNL     1      62.747   3.651  -2.490  1.00  0.00     0.032 A
BRANCH   8  11
HETATM   11  N2  UNL     1      61.837   5.384   0.652  1.00  0.00    -0.323 N
HETATM   12  C17 UNL     1      61.767   6.707   1.101  1.00  0.00     0.257 C
HETATM   13  O3  UNL     1      61.680   7.665   0.302  1.00  0.00    -0.267 OA
ATOM     14  H2  UNL     1      61.908   4.683   1.390  1.00  0.00     0.169 HD
BRANCH  12  15
HETATM   15  C18 UNL     1      61.789   7.044   2.531  1.00  0.00     0.049 A
HETATM   16  C19 UNL     1      62.642   6.559   3.518  1.00  0.00     0.035 A
HETATM   17  C20 UNL     1      62.317   7.138   4.719  1.00  0.00     0.088 A
HETATM   18  N3  UNL     1      61.292   7.958   4.475  1.00  0.00    -0.374 N
HETATM   19  C21 UNL     1      60.949   7.925   3.164  1.00  0.00     0.104 A
ATOM     20  H3  UNL     1      60.830   8.533   5.180  1.00  0.00     0.164 HD
ENDBRANCH  12  15
ENDBRANCH   8  11
ENDBRANCH   3   5
BRANCH   1  21
HETATM   21  C11 UNL     1      61.318   1.337  -6.136  1.00  0.00     0.066 A
HETATM   22  C6  UNL     1      62.377   1.279  -6.993  1.00  0.00     0.091 A
HETATM   23  C7  UNL     1      62.219   0.568  -8.192  1.00  0.00     0.038 A
HETATM   24  C8  UNL     1      61.057  -0.069  -8.542  1.00  0.00     0.003 A
HETATM   25  C9  UNL     1      59.993  -0.007  -7.672  1.00  0.00     0.001 A
HETATM   26  C10 UNL     1      60.113   0.682  -6.489  1.00  0.00     0.020 A
BRANCH  22  27
HETATM   27  O1  UNL     1      63.571   1.887  -6.719  1.00  0.00    -0.310 OA
BRANCH  27  28
HETATM   28  C5  UNL     1      64.699   1.134  -6.434  1.00  0.00     0.076 A
HETATM   29  C4  UNL     1      64.564  -0.198  -6.074  1.00  0.00     0.038 A
HETATM   30  C3  UNL     1      65.663  -0.980  -5.783  1.00  0.00     0.009 A
HETATM   31  C2  UNL     1      66.942  -0.470  -5.834  1.00  0.00    -0.062 A
HETATM   32  C1  UNL     1      68.096  -1.349  -5.512  1.00  0.00     0.048 C
HETATM   33  C25 UNL     1      67.088   0.852  -6.190  1.00  0.00     0.009 A
HETATM   34  C24 UNL     1      65.984   1.636  -6.483  1.00  0.00     0.038 A
ENDBRANCH  27  28
ENDBRANCH  22  27
ENDBRANCH   1  21
TORSDOF 6
ENDMDL