MODEL 3
REMARK VINA RESULT: -11.974761310      1.944      2.596
REMARK  7 active torsions:
REMARK  status: ('A' for Active; 'I' for Inactive)
REMARK       I    between atoms: C1_2  and  N1_3
REMARK       I    between atoms: C1_2  and  N2_11
REMARK    1  A    between atoms: N1_3  and  C2_5
REMARK    2  A    between atoms: N2_11  and  C8_13
REMARK    3  A    between atoms: C12_17  and  C13_18
REMARK    4  A    between atoms: C17_22  and  N3_23
REMARK    5  A    between atoms: N3_23  and  C18_24
REMARK    6  A    between atoms: C18_24  and  O2_25
REMARK    7  A    between atoms: C18_24  and  C19_27
ROOT
HETATM    1  C8  UNL     1      63.414   2.750  -7.283  1.00  0.00     0.037 A
HETATM    2  C9  UNL     1      62.361   1.876  -7.562  1.00  0.00     0.029 A
HETATM    3  C10 UNL     1      61.116   2.125  -7.057  1.00  0.00     0.003 A
HETATM    4  C11 UNL     1      60.847   3.225  -6.268  1.00  0.00     0.012 A
HETATM    5  C12 UNL     1      61.885   4.094  -5.995  1.00  0.00    -0.024 A
HETATM    6  C25 UNL     1      63.144   3.840  -6.507  1.00  0.00     0.042 A
ENDROOT
BRANCH   5   7
HETATM    7  C13 UNL     1      61.578   5.180  -5.070  1.00  0.00    -0.023 A
HETATM    8  C14 UNL     1      61.596   6.469  -5.522  1.00  0.00     0.012 A
HETATM    9  C15 UNL     1      61.442   7.498  -4.639  1.00  0.00     0.004 A
HETATM   10  C16 UNL     1      61.268   7.307  -3.304  1.00  0.00     0.045 A
HETATM   11  C17 UNL     1      61.243   6.017  -2.766  1.00  0.00     0.111 A
HETATM   12  C24 UNL     1      61.403   4.981  -3.740  1.00  0.00     0.057 A
BRANCH  11  13
HETATM   13  N3  UNL     1      61.305   5.693  -1.459  1.00  0.00    -0.380 NA
BRANCH  13  14
HETATM   14  C18 UNL     1      61.369   5.371  -0.162  1.00  0.00     0.229 C
BRANCH  14  15
HETATM   15  O2  UNL     1      61.614   4.155   0.252  1.00  0.00    -0.335 OA
ATOM     16  H2  UNL     1      62.466   3.885   0.577  1.00  0.00     0.220 HD
ENDBRANCH  14  15
BRANCH  14  17
HETATM   17  C19 UNL     1      61.192   6.296   1.001  1.00  0.00     0.085 A
HETATM   18  C20 UNL     1      61.953   6.070   2.143  1.00  0.00     0.023 A
HETATM   19  C21 UNL     1      61.833   6.975   3.194  1.00  0.00     0.018 A
HETATM   20  C22 UNL     1      60.995   8.064   3.119  1.00  0.00     0.090 A
HETATM   21  N4  UNL     1      60.273   8.251   1.998  1.00  0.00    -0.342 N
HETATM   22  C23 UNL     1      60.386   7.359   0.956  1.00  0.00     0.203 A
ATOM     23  H4  UNL     1      59.644   9.051   1.921  1.00  0.00     0.167 HD
HETATM   24  F1  UNL     1      59.569   7.650  -0.078  1.00  0.00    -0.185 F
ENDBRANCH  14  17
ENDBRANCH  13  14
ENDBRANCH  11  13
ENDBRANCH   5   7
BRANCH   1  25
HETATM   25  N2  UNL     1      64.715   2.402  -7.691  1.00  0.00    -0.309 N
HETATM   26  C1  UNL     1      65.394   1.282  -7.065  1.00  0.00     0.325 C
HETATM   27  O1  UNL     1      64.805   0.659  -6.168  1.00  0.00    -0.247 OA
HETATM   28  N1  UNL     1      66.708   0.877  -7.439  1.00  0.00    -0.309 N
ATOM     29  H1  UNL     1      67.208   1.362  -8.184  1.00  0.00     0.170 HD
ATOM     30  H2  UNL     1      65.180   2.935  -8.425  1.00  0.00     0.170 HD
BRANCH  28  31
HETATM   31  C2  UNL     1      67.311  -0.218  -6.752  1.00  0.00     0.036 A
HETATM   32  C3  UNL     1      67.647  -0.243  -5.432  1.00  0.00     0.029 A
HETATM   33  C4  UNL     1      68.211  -1.349  -4.827  1.00  0.00     0.002 A
HETATM   34  C5  UNL     1      68.434  -2.448  -5.602  1.00  0.00     0.000 A
HETATM   35  C6  UNL     1      68.108  -2.454  -6.924  1.00  0.00     0.002 A
HETATM   36  C7  UNL     1      67.548  -1.356  -7.519  1.00  0.00     0.029 A
ENDBRANCH  28  31
ENDBRANCH   1  25
TORSDOF 7
ENDMDL