MODEL 1
REMARK VINA RESULT: -8.293440319      0.000      0.000
REMARK  6 active torsions:
REMARK  status: ('A' for Active; 'I' for Inactive)
REMARK    1  A    between atoms: C1_2  and  C14_19
REMARK    2  A    between atoms: N2_3  and  C2_5
REMARK    3  A    between atoms: C6_9  and  O1_10
REMARK    4  A    between atoms: C7_12  and  C8_13
REMARK    5  A    between atoms: C17_22  and  N3_23
REMARK       I    between atoms: N3_23  and  C18_25
REMARK    6  A    between atoms: C18_25  and  C19_27
ROOT
HETATM    1  N1  UNL     1      59.157   4.302  -3.271  1.00  0.00    -0.082 NA
HETATM    2  C1  UNL     1      60.413   4.068  -2.600  1.00  0.00     0.127 C
HETATM    3  N2  UNL     1      61.259   3.193  -3.047  1.00  0.00    -0.343 N
ATOM      4  H2  UNL     1      62.147   3.028  -2.573  1.00  0.00     0.167 HD
ENDROOT
BRANCH   2   5
HETATM    5  C14 UNL     1      60.668   4.854  -1.413  1.00  0.00     0.005 A
HETATM    6  C15 UNL     1      61.178   6.127  -1.450  1.00  0.00     0.017 A
HETATM    7  C16 UNL     1      61.414   6.875  -0.282  1.00  0.00     0.030 A
HETATM    8  C17 UNL     1      61.138   6.351   0.926  1.00  0.00     0.035 A
HETATM    9  C25 UNL     1      60.620   5.059   0.967  1.00  0.00     0.030 A
HETATM   10  C26 UNL     1      60.386   4.315  -0.171  1.00  0.00     0.017 A
BRANCH   8  11
HETATM   11  N3  UNL     1      61.326   7.044   2.132  1.00  0.00    -0.323 N
HETATM   12  C18 UNL     1      62.212   6.755   3.180  1.00  0.00     0.256 C
HETATM   13  O2  UNL     1      62.997   5.760   3.126  1.00  0.00    -0.267 OA
ATOM     14  H3  UNL     1      60.740   7.868   2.264  1.00  0.00     0.169 HD
BRANCH  12  15
HETATM   15  C19 UNL     1      62.256   7.603   4.376  1.00  0.00     0.032 A
HETATM   16  C20 UNL     1      63.395   8.330   4.668  1.00  0.00     0.017 A
HETATM   17  C21 UNL     1      63.484   9.134   5.785  1.00  0.00     0.001 A
HETATM   18  C22 UNL     1      62.418   9.230   6.650  1.00  0.00     0.000 A
HETATM   19  C23 UNL     1      61.280   8.512   6.371  1.00  0.00     0.001 A
HETATM   20  C24 UNL     1      61.201   7.701   5.236  1.00  0.00     0.017 A
ENDBRANCH  12  15
ENDBRANCH   8  11
ENDBRANCH   2   5
BRANCH   3  21
HETATM   21  C2  UNL     1      60.906   2.477  -4.214  1.00  0.00     0.047 A
HETATM   22  C3  UNL     1      60.321   1.228  -4.151  1.00  0.00     0.030 A
HETATM   23  C4  UNL     1      59.971   0.518  -5.279  1.00  0.00     0.005 A
HETATM   24  C5  UNL     1      60.217   1.082  -6.516  1.00  0.00     0.037 A
HETATM   25  C6  UNL     1      60.810   2.348  -6.584  1.00  0.00     0.079 A
HETATM   26  C7  UNL     1      61.150   3.036  -5.440  1.00  0.00     0.034 A
BRANCH  25  27
HETATM   27  O1  UNL     1      61.083   2.970  -7.795  1.00  0.00    -0.360 OA
ATOM     28  H1  UNL     1      61.898   3.431  -7.952  1.00  0.00     0.217 HD
ENDBRANCH  25  27
BRANCH  26  29
HETATM   29  C8  UNL     1      61.765   4.346  -5.512  1.00  0.00    -0.021 A
HETATM   30  C9  UNL     1      60.990   5.419  -5.891  1.00  0.00     0.012 A
HETATM   31  C10 UNL     1      61.503   6.703  -5.982  1.00  0.00     0.001 A
HETATM   32  C11 UNL     1      62.835   6.932  -5.685  1.00  0.00     0.000 A
HETATM   33  C12 UNL     1      63.608   5.879  -5.310  1.00  0.00     0.001 A
HETATM   34  C13 UNL     1      63.089   4.589  -5.220  1.00  0.00     0.012 A
ENDBRANCH  26  29
ENDBRANCH   3  21
TORSDOF 6
ENDMDL