MODEL 5
REMARK VINA RESULT: -6.744647629      1.381      1.776
REMARK  6 active torsions:
REMARK  status: ('A' for Active; 'I' for Inactive)
REMARK    1  A    between atoms: O1_2  and  C2_3
REMARK    2  A    between atoms: C7_8  and  N1_9
REMARK       I    between atoms: N1_9  and  C8_10
REMARK       I    between atoms: C8_10  and  N2_12
REMARK    3  A    between atoms: N2_12  and  C9_14
REMARK    4  A    between atoms: C12_17  and  C13_18
REMARK    5  A    between atoms: C17_24  and  C18_25
REMARK       I    between atoms: C18_25  and  N4_27
REMARK    6  A    between atoms: N4_27  and  C19_29
ROOT
HETATM    1  C9  UNL     1      60.891   4.436  -4.267  1.00  0.00     0.037 A
HETATM    2  C10 UNL     1      60.298   3.178  -4.301  1.00  0.00     0.030 A
HETATM    3  C11 UNL     1      60.369   2.342  -5.384  1.00  0.00     0.014 A
HETATM    4  C12 UNL     1      61.048   2.726  -6.511  1.00  0.00    -0.023 A
HETATM    5  C25 UNL     1      61.640   3.958  -6.503  1.00  0.00     0.014 A
HETATM    6  C26 UNL     1      61.578   4.826  -5.402  1.00  0.00     0.030 A
ENDROOT
BRANCH   4   7
HETATM    7  C13 UNL     1      61.161   1.895  -7.682  1.00  0.00     0.006 A
HETATM    8  C14 UNL     1      60.103   1.889  -8.619  1.00  0.00     0.016 A
HETATM    9  C15 UNL     1      60.195   1.149  -9.761  1.00  0.00     0.018 A
HETATM   10  C16 UNL     1      61.333   0.398 -10.004  1.00  0.00     0.088 A
HETATM   11  N3  UNL     1      62.321   0.414  -9.110  1.00  0.00    -0.361 N
HETATM   12  C17 UNL     1      62.256   1.147  -7.956  1.00  0.00     0.112 A
ATOM     13  H3  UNL     1      63.157  -0.141  -9.293  1.00  0.00     0.165 HD
BRANCH  12  14
HETATM   14  C18 UNL     1      63.389   1.058  -7.032  1.00  0.00     0.273 C
HETATM   15  O3  UNL     1      63.649   1.904  -6.178  1.00  0.00    -0.266 OA
HETATM   16  N4  UNL     1      64.239  -0.067  -7.119  1.00  0.00    -0.322 N
ATOM     17  H4  UNL     1      64.009  -0.770  -7.822  1.00  0.00     0.169 HD
BRANCH  16  18
HETATM   18  C19 UNL     1      65.374  -0.306  -6.321  1.00  0.00     0.035 A
HETATM   19  C20 UNL     1      66.432   0.543  -6.169  1.00  0.00     0.029 A
HETATM   20  C21 UNL     1      67.510   0.212  -5.327  1.00  0.00     0.002 A
HETATM   21  C22 UNL     1      67.551  -0.966  -4.626  1.00  0.00     0.000 A
HETATM   22  C23 UNL     1      66.466  -1.825  -4.790  1.00  0.00     0.002 A
HETATM   23  C24 UNL     1      65.432  -1.506  -5.597  1.00  0.00     0.029 A
ENDBRANCH  16  18
ENDBRANCH  12  14
ENDBRANCH   4   7
BRANCH   1  24
HETATM   24  N2  UNL     1      60.785   5.165  -3.077  1.00  0.00    -0.297 N
HETATM   25  C8  UNL     1      61.584   4.922  -1.880  1.00  0.00     0.398 C
HETATM   26  N1  UNL     1      61.395   5.663  -0.744  1.00  0.00    -0.349 NA
HETATM   27  O2  UNL     1      62.419   3.971  -2.079  1.00  0.00    -0.230 OA
ATOM     28  H2  UNL     1      60.100   5.919  -3.044  1.00  0.00     0.172 HD
BRANCH  26  29
HETATM   29  C7  UNL     1      61.207   6.389   0.371  1.00  0.00     0.146 A
HETATM   30  C2  UNL     1      60.552   7.665   0.255  1.00  0.00     0.108 A
HETATM   31  C3  UNL     1      60.337   8.503   1.273  1.00  0.00     0.040 A
HETATM   32  C4  UNL     1      60.760   8.147   2.528  1.00  0.00     0.003 A
HETATM   33  C5  UNL     1      61.384   6.968   2.729  1.00  0.00     0.003 A
HETATM   34  C6  UNL     1      61.598   6.108   1.650  1.00  0.00     0.048 A
BRANCH  30  35
HETATM   35  O1  UNL     1      60.143   7.986  -1.035  1.00  0.00    -0.353 OA
HETATM   36  C1  UNL     1      61.057   8.520  -1.967  1.00  0.00     0.210 C
ENDBRANCH  30  35
ENDBRANCH  26  29
ENDBRANCH   1  24
TORSDOF 6
ENDMDL