MODEL 2
REMARK VINA RESULT: -11.742328953      0.697      1.393
REMARK  5 active torsions:
REMARK  status: ('A' for Active; 'I' for Inactive)
REMARK    1  A    between atoms: C6_7  and  N2_8
REMARK       I    between atoms: N2_8  and  C7_10
REMARK    2  A    between atoms: C7_10  and  C8_12
REMARK    3  A    between atoms: C12_16  and  N3_17
REMARK       I    between atoms: N3_17  and  C13_19
REMARK    4  A    between atoms: C13_19  and  C14_21
REMARK    5  A    between atoms: C17_24  and  C18_25
ROOT
HETATM    1  C8  UNL     1      62.119   2.758  -6.379  1.00  0.00     0.034 A
HETATM    2  C9  UNL     1      61.114   3.244  -7.173  1.00  0.00     0.017 A
HETATM    3  C10 UNL     1      60.227   4.147  -6.642  1.00  0.00     0.003 A
HETATM    4  C11 UNL     1      60.391   4.516  -5.348  1.00  0.00     0.029 A
HETATM    5  C12 UNL     1      61.412   4.034  -4.507  1.00  0.00     0.035 A
HETATM    6  C26 UNL     1      62.291   3.137  -5.041  1.00  0.00     0.046 A
ENDROOT
BRANCH   5   7
HETATM    7  N3  UNL     1      61.491   4.512  -3.180  1.00  0.00    -0.323 N
HETATM    8  C13 UNL     1      61.090   5.762  -2.699  1.00  0.00     0.256 C
HETATM    9  O2  UNL     1      60.594   6.651  -3.454  1.00  0.00    -0.267 OA
ATOM     10  H3  UNL     1      61.887   3.870  -2.492  1.00  0.00     0.169 HD
BRANCH   8  11
HETATM   11  C14 UNL     1      61.241   6.077  -1.274  1.00  0.00     0.032 A
HETATM   12  C15 UNL     1      61.315   5.071  -0.320  1.00  0.00     0.018 A
HETATM   13  C16 UNL     1      61.468   5.332   1.024  1.00  0.00     0.013 A
HETATM   14  C17 UNL     1      61.549   6.652   1.413  1.00  0.00    -0.026 A
HETATM   15  C24 UNL     1      61.479   7.660   0.494  1.00  0.00     0.013 A
HETATM   16  C25 UNL     1      61.325   7.371  -0.850  1.00  0.00     0.018 A
BRANCH  14  17
HETATM   17  C18 UNL     1      61.710   7.036   2.816  1.00  0.00    -0.026 A
HETATM   18  C19 UNL     1      60.988   8.069   3.371  1.00  0.00     0.012 A
HETATM   19  C20 UNL     1      61.140   8.432   4.708  1.00  0.00     0.001 A
HETATM   20  C21 UNL     1      62.029   7.759   5.519  1.00  0.00     0.000 A
HETATM   21  C22 UNL     1      62.750   6.725   4.958  1.00  0.00     0.001 A
HETATM   22  C23 UNL     1      62.602   6.355   3.617  1.00  0.00     0.012 A
ENDBRANCH  14  17
ENDBRANCH   8  11
ENDBRANCH   5   7
BRANCH   1  23
HETATM   23  C7  UNL     1      63.112   1.790  -6.915  1.00  0.00     0.256 C
HETATM   24  N2  UNL     1      64.279   1.520  -6.185  1.00  0.00    -0.321 N
ATOM     25  H2  UNL     1      64.405   2.003  -5.296  1.00  0.00     0.169 HD
HETATM   26  O1  UNL     1      62.831   1.264  -8.017  1.00  0.00    -0.267 OA
BRANCH  24  27
HETATM   27  C6  UNL     1      65.286   0.632  -6.593  1.00  0.00     0.059 A
HETATM   28  C1  UNL     1      65.190  -0.696  -6.138  1.00  0.00     0.073 A
HETATM   29  N1  UNL     1      64.083  -1.028  -5.308  1.00  0.00    -0.100 NA
HETATM   30  C2  UNL     1      66.114  -1.661  -6.465  1.00  0.00     0.029 A
HETATM   31  C3  UNL     1      67.196  -1.379  -7.264  1.00  0.00     0.002 A
HETATM   32  C4  UNL     1      67.311  -0.092  -7.720  1.00  0.00     0.002 A
HETATM   33  C5  UNL     1      66.368   0.896  -7.387  1.00  0.00     0.031 A
ENDBRANCH  24  27
ENDBRANCH   1  23
TORSDOF 5
ENDMDL