MODEL 2
REMARK VINA RESULT: -7.164181527      1.047      1.091
REMARK  9 active torsions:
REMARK  status: ('A' for Active; 'I' for Inactive)
REMARK    1  A    between atoms: C3_6  and  N3_7
REMARK    2  A    between atoms: C4_9  and  C5_10
REMARK    3  A    between atoms: C5_10  and  N4_11
REMARK    4  A    between atoms: N4_11  and  C6_13
REMARK    5  A    between atoms: C6_13  and  C7_14
REMARK    6  A    between atoms: C7_14  and  C8_15
REMARK    7  A    between atoms: C8_15  and  C9_16
REMARK    8  A    between atoms: C9_16  and  N5_17
REMARK    9  A    between atoms: C10_23  and  N7_24
ROOT
HETATM    1  N1  UNL     1      -8.698  36.492  11.088  1.00  0.00    -0.188 NA
HETATM    2  C1  UNL     1      -9.533  37.095  10.543  1.00  0.00     0.138 C
HETATM    3  C2  UNL     1     -10.563  37.853   9.844  1.00  0.00     0.217 A
HETATM    4  N2  UNL     1     -11.853  37.514   9.944  1.00  0.00    -0.165 N
ATOM      5  H2  UNL     1     -12.108  36.710  10.518  1.00  0.00     0.186 HD
HETATM    6  C3  UNL     1     -12.849  38.210   9.299  1.00  0.00     0.698 A
HETATM    7  N6  UNL     1     -12.467  39.248   8.564  1.00  0.00    -0.022 N
ATOM      8  H6  UNL     1     -13.183  39.784   8.073  1.00  0.00     0.203 HD
HETATM    9  C10 UNL     1     -11.166  39.630   8.433  1.00  0.00     0.692 A
HETATM   10  N8  UNL     1     -10.231  38.907   9.091  1.00  0.00    -0.166 N
ATOM     11  H8  UNL     1      -9.249  39.172   9.010  1.00  0.00     0.186 HD
ENDROOT
BRANCH   6  12
HETATM   12  N3  UNL     1     -13.990  37.814   9.464  1.00  0.00    -0.203 N
HETATM   13  C4  UNL     1     -15.332  38.002   9.454  1.00  0.00     0.098 C
ATOM     14  H3  UNL     1     -13.876  36.845   9.762  1.00  0.00     0.183 HD
BRANCH  13  15
HETATM   15  C5  UNL     1     -15.868  39.118   8.557  1.00  0.00     0.159 C
BRANCH  15  16
HETATM   16  N4  UNL     1     -16.431  40.163   9.349  1.00  0.00    -0.417 N
ATOM     17  H4  UNL     1     -17.440  40.308   9.397  1.00  0.00     0.153 HD
BRANCH  16  18
HETATM   18  C6  UNL     1     -15.531  40.992  10.069  1.00  0.00     0.114 C
BRANCH  18  19
HETATM   19  C7  UNL     1     -16.211  41.865  11.109  1.00  0.00     0.021 C
BRANCH  19  20
HETATM   20  C8  UNL     1     -15.569  43.217  11.136  1.00  0.00     0.029 C
BRANCH  20  21
HETATM   21  C9  UNL     1     -15.898  44.093   9.965  1.00  0.00     0.229 C
BRANCH  21  22
HETATM   22  N5  UNL     1     -15.972  45.488  10.298  1.00  0.00    -0.079 N
ATOM     23  H53 UNL     1     -15.649  45.649  11.252  1.00  0.00     0.274 HD
ATOM     24  H52 UNL     1     -15.266  46.019   9.789  1.00  0.00     0.274 HD
ATOM     25  H51 UNL     1     -16.898  45.890  10.157  1.00  0.00     0.274 HD
ENDBRANCH  21  22
ENDBRANCH  20  21
ENDBRANCH  19  20
ENDBRANCH  18  19
ENDBRANCH  16  18
ENDBRANCH  15  16
ENDBRANCH  13  15
ENDBRANCH   6  12
BRANCH   9  26
HETATM   26  N7  UNL     1     -10.841  40.651   7.707  1.00  0.00    -0.234 N
ATOM     27  H72 UNL     1     -11.424  41.487   7.674  1.00  0.00     0.174 HD
ATOM     28  H71 UNL     1      -9.990  40.646   7.143  1.00  0.00     0.174 HD
ENDBRANCH   9  26
TORSDOF 9
ENDMDL