MODEL 2
REMARK VINA RESULT: -7.056984504      1.528      1.968
REMARK  8 active torsions:
REMARK  status: ('A' for Active; 'I' for Inactive)
REMARK    1  A    between atoms: N1_2  and  C2_5
REMARK    2  A    between atoms: C2_5  and  C3_6
REMARK    3  A    between atoms: C3_6  and  O1_7
REMARK    4  A    between atoms: O1_7  and  C4_8
REMARK    5  A    between atoms: C4_8  and  C5_9
REMARK    6  A    between atoms: C5_9  and  N2_10
REMARK    7  A    between atoms: N2_10  and  C6_12
REMARK    8  A    between atoms: C7_15  and  N4_16
ROOT
HETATM    1  C6  UNL     1     -15.698  42.211  10.442  1.00  0.00     0.149 A
HETATM    2  N3  UNL     1     -16.609  41.810  11.315  1.00  0.00    -0.175 N
ATOM      3  H3  UNL     1     -16.662  40.813  11.522  1.00  0.00     0.186 HD
HETATM    4  C7  UNL     1     -17.478  42.636  11.953  1.00  0.00     0.679 A
HETATM    5  N5  UNL     1     -17.395  43.943  11.670  1.00  0.00    -0.173 N
ATOM      6  H5  UNL     1     -18.029  44.598  12.128  1.00  0.00     0.186 HD
HETATM    7  C8  UNL     1     -16.481  44.406  10.787  1.00  0.00     0.167 A
HETATM    8  N6  UNL     1     -15.920  45.428  10.129  1.00  0.00    -0.282 N
ATOM      9  H6  UNL     1     -16.086  46.435  10.116  1.00  0.00     0.188 HD
HETATM   10  N7  UNL     1     -15.073  44.638   9.505  1.00  0.00    -0.292 N
ATOM     11  H7  UNL     1     -14.326  44.776   8.823  1.00  0.00     0.187 HD
HETATM   12  C9  UNL     1     -15.602  43.567  10.143  1.00  0.00     0.138 A
ENDROOT
BRANCH   1  13
HETATM   13  N2  UNL     1     -14.879  41.423   9.819  1.00  0.00    -0.372 N
ATOM     14  H2  UNL     1     -14.395  41.796   9.002  1.00  0.00     0.161 HD
BRANCH  13  15
HETATM   15  C5  UNL     1     -14.600  40.066  10.193  1.00  0.00     0.147 C
BRANCH  15  16
HETATM   16  C4  UNL     1     -13.547  40.061  11.280  1.00  0.00     0.187 C
BRANCH  16  17
HETATM   17  O1  UNL     1     -12.276  40.168  10.812  1.00  0.00    -0.388 OA
BRANCH  17  18
HETATM   18  C3  UNL     1     -11.891  39.445   9.737  1.00  0.00     0.195 C
BRANCH  18  19
HETATM   19  C2  UNL     1     -11.029  40.103   8.719  1.00  0.00     0.258 C
BRANCH  19  20
HETATM   20  N1  UNL     1     -11.958  40.809   7.811  1.00  0.00    -0.077 N
HETATM   21  C1  UNL     1     -11.316  40.986   6.514  1.00  0.00     0.267 C
ATOM     22  H12 UNL     1     -12.289  41.690   8.203  1.00  0.00     0.276 HD
ATOM     23  H11 UNL     1     -12.860  40.338   7.736  1.00  0.00     0.276 HD
ENDBRANCH  19  20
ENDBRANCH  18  19
ENDBRANCH  17  18
ENDBRANCH  16  17
ENDBRANCH  15  16
ENDBRANCH  13  15
ENDBRANCH   1  13
BRANCH   4  24
HETATM   24  N4  UNL     1     -18.341  42.183  12.795  1.00  0.00    -0.234 N
ATOM     25  H42 UNL     1     -18.056  41.789  13.692  1.00  0.00     0.174 HD
ATOM     26  H41 UNL     1     -19.341  42.199  12.594  1.00  0.00     0.174 HD
ENDBRANCH   4  24
TORSDOF 8
ENDMDL