MODEL 4
REMARK VINA RESULT: -6.571697270      1.380      1.574
REMARK  8 active torsions:
REMARK  status: ('A' for Active; 'I' for Inactive)
REMARK    1  A    between atoms: N1_2  and  C2_5
REMARK    2  A    between atoms: C2_5  and  C3_6
REMARK    3  A    between atoms: C3_6  and  C4_7
REMARK    4  A    between atoms: C6_11  and  N3_12
REMARK    5  A    between atoms: N3_12  and  C7_14
REMARK    6  A    between atoms: C7_14  and  C8_15
REMARK    7  A    between atoms: C8_15  and  N4_16
REMARK    8  A    between atoms: C9_22  and  N6_23
ROOT
HETATM    1  C4  UNL     1     -13.918  40.268  10.273  1.00  0.00     0.085 A
HETATM    2  N2  UNL     1     -14.874  40.727   9.453  1.00  0.00    -0.340 N
ATOM      3  H2  UNL     1     -14.891  40.597   8.442  1.00  0.00     0.167 HD
HETATM    4  C5  UNL     1     -15.806  41.383  10.162  1.00  0.00     0.123 A
HETATM    5  C6  UNL     1     -16.967  42.033   9.839  1.00  0.00     0.147 A
HETATM    6  N5  UNL     1     -17.678  42.594  10.832  1.00  0.00    -0.175 N
ATOM      7  H5  UNL     1     -18.542  43.079  10.592  1.00  0.00     0.186 HD
HETATM    8  C9  UNL     1     -17.308  42.551  12.134  1.00  0.00     0.679 A
HETATM    9  N7  UNL     1     -16.174  41.918  12.457  1.00  0.00    -0.174 N
ATOM     10  H7  UNL     1     -15.876  41.873  13.431  1.00  0.00     0.186 HD
HETATM   11  C10 UNL     1     -15.430  41.343  11.504  1.00  0.00     0.153 A
HETATM   12  N8  UNL     1     -14.264  40.646  11.510  1.00  0.00    -0.330 N
ATOM     13  H8  UNL     1     -13.721  40.437  12.348  1.00  0.00     0.168 HD
ENDROOT
BRANCH   5  14
HETATM   14  N3  UNL     1     -17.359  42.105   8.631  1.00  0.00    -0.372 N
ATOM     15  H3  UNL     1     -16.729  41.756   7.910  1.00  0.00     0.161 HD
BRANCH  14  16
HETATM   16  C7  UNL     1     -18.615  42.638   8.207  1.00  0.00     0.148 C
BRANCH  16  17
HETATM   17  C8  UNL     1     -18.327  43.986   7.537  1.00  0.00     0.249 C
BRANCH  17  18
HETATM   18  N4  UNL     1     -18.645  44.989   8.547  1.00  0.00    -0.078 N
ATOM     19  H43 UNL     1     -17.919  45.106   9.254  1.00  0.00     0.274 HD
ATOM     20  H42 UNL     1     -18.624  45.947   8.197  1.00  0.00     0.274 HD
ATOM     21  H41 UNL     1     -19.549  44.707   8.926  1.00  0.00     0.274 HD
ENDBRANCH  17  18
ENDBRANCH  16  17
ENDBRANCH  14  16
ENDBRANCH   5  14
BRANCH   8  22
HETATM   22  N6  UNL     1     -18.053  43.119  13.044  1.00  0.00    -0.234 N
ATOM     23  H62 UNL     1     -18.794  43.774  12.793  1.00  0.00     0.174 HD
ATOM     24  H61 UNL     1     -17.900  42.912  14.031  1.00  0.00     0.174 HD
ENDBRANCH   8  22
BRANCH   1  25
HETATM   25  C3  UNL     1     -12.697  39.472   9.909  1.00  0.00     0.104 C
BRANCH  25  26
HETATM   26  C2  UNL     1     -13.065  38.119   9.399  1.00  0.00     0.239 C
BRANCH  26  27
HETATM   27  N1  UNL     1     -12.017  37.155   9.383  1.00  0.00    -0.079 N
HETATM   28  C1  UNL     1     -10.771  37.618   9.950  1.00  0.00     0.267 C
ATOM     29  H12 UNL     1     -11.869  36.805   8.436  1.00  0.00     0.276 HD
ATOM     30  H11 UNL     1     -12.318  36.295   9.842  1.00  0.00     0.276 HD
ENDBRANCH  26  27
ENDBRANCH  25  26
ENDBRANCH   1  25
TORSDOF 8
ENDMDL