MODEL 2
REMARK VINA RESULT: -7.265313512      1.656      1.865
REMARK  8 active torsions:
REMARK  status: ('A' for Active; 'I' for Inactive)
REMARK       I    between atoms: C1_4  and  N3_6
REMARK    1  A    between atoms: N3_6  and  C2_8
REMARK    2  A    between atoms: C2_8  and  C3_9
REMARK    3  A    between atoms: C3_9  and  S1_10
REMARK    4  A    between atoms: S1_10  and  C4_11
REMARK    5  A    between atoms: C4_11  and  C5_12
REMARK    6  A    between atoms: C5_12  and  C6_13
REMARK    7  A    between atoms: C7_18  and  N6_19
REMARK    8  A    between atoms: N6_19  and  N7_21
ROOT
HETATM    1  C6  UNL     1     -15.386  42.671  11.134  1.00  0.00     0.113 A
HETATM    2  N4  UNL     1     -15.029  43.725  11.867  1.00  0.00    -0.274 N
ATOM      3  H4  UNL     1     -14.781  43.681  12.856  1.00  0.00     0.189 HD
HETATM    4  N5  UNL     1     -15.038  44.830  11.151  1.00  0.00    -0.129 N
ATOM      5  H5  UNL     1     -14.808  45.772  11.468  1.00  0.00     0.205 HD
HETATM    6  C7  UNL     1     -15.413  44.458   9.921  1.00  0.00     0.712 A
HETATM    7  N8  UNL     1     -15.633  43.113   9.899  1.00  0.00    -0.177 N
ATOM      8  H8  UNL     1     -15.928  42.554   9.098  1.00  0.00     0.185 HD
ENDROOT
BRANCH   1   9
HETATM    9  C5  UNL     1     -15.505  41.233  11.571  1.00  0.00     0.088 C
BRANCH   9  10
HETATM   10  C4  UNL     1     -14.101  40.724  11.788  1.00  0.00     0.081 C
BRANCH  10  11
HETATM   11  S1  UNL     1     -13.785  39.225  10.816  1.00  0.00    -0.167 SA
BRANCH  11  12
HETATM   12  C3  UNL     1     -12.372  39.493   9.699  1.00  0.00     0.093 C
BRANCH  12  13
HETATM   13  C2  UNL     1     -11.797  38.131   9.372  1.00  0.00     0.132 C
BRANCH  13  14
HETATM   14  N3  UNL     1     -10.383  38.091   9.622  1.00  0.00    -0.364 N
HETATM   15  C1  UNL     1      -9.834  37.305  10.650  1.00  0.00     0.181 C
HETATM   16  N1  UNL     1      -8.611  36.911  10.572  1.00  0.00    -0.374 N
HETATM   17  N2  UNL     1     -10.600  36.936  11.771  1.00  0.00    -0.064 NA
ATOM     18  H12 UNL     1      -8.212  36.340  11.317  1.00  0.00     0.158 HD
ATOM     19  H11 UNL     1      -8.055  37.178   9.759  1.00  0.00     0.158 HD
ATOM     20  H3  UNL     1      -9.761  38.649   9.038  1.00  0.00     0.162 HD
ENDBRANCH  13  14
ENDBRANCH  12  13
ENDBRANCH  11  12
ENDBRANCH  10  11
ENDBRANCH   9  10
ENDBRANCH   1   9
BRANCH   6  21
HETATM   21  N6  UNL     1     -15.553  45.239   8.901  1.00  0.00    -0.137 N
ATOM     22  H6  UNL     1     -14.795  45.855   8.607  1.00  0.00     0.205 HD
BRANCH  21  23
HETATM   23  N7  UNL     1     -16.765  45.221   8.213  1.00  0.00    -0.331 N
ATOM     24  H72 UNL     1     -17.097  44.353   7.793  1.00  0.00     0.177 HD
ATOM     25  H71 UNL     1     -17.297  46.088   8.144  1.00  0.00     0.177 HD
ENDBRANCH  21  23
ENDBRANCH   6  21
TORSDOF 8
ENDMDL