MODEL 3
REMARK VINA RESULT: -7.150059494      1.355      2.037
REMARK  7 active torsions:
REMARK  status: ('A' for Active; 'I' for Inactive)
REMARK    1  A    between atoms: C1_4  and  O1_6
REMARK    2  A    between atoms: O1_6  and  C2_7
REMARK    3  A    between atoms: C6_11  and  N3_12
REMARK    4  A    between atoms: N3_12  and  C7_15
REMARK    5  A    between atoms: C7_15  and  C8_16
REMARK    6  A    between atoms: C8_16  and  C9_17
REMARK    7  A    between atoms: C9_17  and  N4_18
ROOT
HETATM    1  C2  UNL     1     -15.130  40.918   9.949  1.00  0.00     0.162 C
HETATM    2  C3  UNL     1     -15.936  40.078  10.937  1.00  0.00     0.035 C
HETATM    3  C4  UNL     1     -15.015  39.017  11.477  1.00  0.00     0.005 C
HETATM    4  C5  UNL     1     -13.633  39.542  11.061  1.00  0.00     0.036 C
HETATM    5  C6  UNL     1     -13.956  39.993   9.649  1.00  0.00     0.215 C
ENDROOT
BRANCH   5   6
HETATM    6  N3  UNL     1     -12.864  40.658   9.019  1.00  0.00    -0.068 N
ATOM      7  H32 UNL     1     -13.185  41.500   8.541  1.00  0.00     0.277 HD
ATOM      8  H31 UNL     1     -12.252  41.079   9.718  1.00  0.00     0.277 HD
BRANCH   6   9
HETATM    9  C7  UNL     1     -12.109  39.826   8.123  1.00  0.00     0.234 C
BRANCH   9  10
HETATM   10  C8  UNL     1     -10.931  39.266   8.834  1.00  0.00     0.047 C
BRANCH  10  11
HETATM   11  C9  UNL     1     -11.002  37.810   9.157  1.00  0.00     0.123 C
BRANCH  11  12
HETATM   12  N4  UNL     1     -10.772  37.457  10.514  1.00  0.00    -0.367 N
HETATM   13  C10 UNL     1      -9.655  36.930  10.854  1.00  0.00     0.196 C
HETATM   14  N5  UNL     1      -8.654  36.702   9.881  1.00  0.00    -0.067 NA
HETATM   15  N6  UNL     1      -9.384  36.564  12.193  1.00  0.00    -0.067 NA
ATOM     16  H4  UNL     1     -11.495  37.622  11.215  1.00  0.00     0.161 HD
ENDBRANCH  11  12
ENDBRANCH  10  11
ENDBRANCH   9  10
ENDBRANCH   6   9
ENDBRANCH   5   6
BRANCH   1  17
HETATM   17  O1  UNL     1     -14.697  42.064  10.661  1.00  0.00    -0.317 OA
BRANCH  17  18
HETATM   18  C1  UNL     1     -15.162  43.338  10.384  1.00  0.00     0.225 C
HETATM   19  N1  UNL     1     -15.957  43.473   9.390  1.00  0.00    -0.368 N
ATOM     20  H12 UNL     1     -16.299  44.412   9.186  1.00  0.00     0.159 HD
ATOM     21  H11 UNL     1     -16.217  42.650   8.845  1.00  0.00     0.159 HD
HETATM   22  N2  UNL     1     -14.801  44.478  11.139  1.00  0.00    -0.057 NA
ENDBRANCH  17  18
ENDBRANCH   1  17
TORSDOF 7
ENDMDL