MODEL 3
REMARK VINA RESULT: -6.814555167      1.652      2.669
REMARK  8 active torsions:
REMARK  status: ('A' for Active; 'I' for Inactive)
REMARK    1  A    between atoms: C2_7  and  C3_8
REMARK    2  A    between atoms: C3_8  and  N3_9
REMARK    3  A    between atoms: C5_14  and  N4_15
REMARK    4  A    between atoms: N4_15  and  C6_17
REMARK    5  A    between atoms: C6_17  and  C7_18
REMARK    6  A    between atoms: C7_18  and  C8_19
REMARK    7  A    between atoms: C8_19  and  N5_20
REMARK    8  A    between atoms: N5_20  and  C9_23
ROOT
HETATM    1  N1  UNL     1     -17.716  43.830  12.742  1.00  0.00    -0.234 N
ATOM      2  H11 UNL     1     -17.338  43.179  13.430  1.00  0.00     0.174 HD
ATOM      3  H12 UNL     1     -18.168  44.708  12.996  1.00  0.00     0.174 HD
HETATM    4  C1  UNL     1     -17.574  43.458  11.503  1.00  0.00     0.677 A
HETATM    5  N2  UNL     1     -18.082  44.329  10.581  1.00  0.00    -0.194 N
ATOM      6  H2  UNL     1     -18.530  45.201  10.861  1.00  0.00     0.184 HD
HETATM    7  C2  UNL     1     -17.963  43.983   9.285  1.00  0.00     0.055 A
HETATM    8  C4  UNL     1     -17.359  42.812   8.928  1.00  0.00     0.076 A
HETATM    9  C5  UNL     1     -16.861  41.958   9.880  1.00  0.00     0.118 A
HETATM   10  N7  UNL     1     -16.979  42.302  11.168  1.00  0.00    -0.177 N
ATOM     11  H7  UNL     1     -16.617  41.687  11.895  1.00  0.00     0.185 HD
ENDROOT
BRANCH   9  12
HETATM   12  N4  UNL     1     -16.323  40.882   9.479  1.00  0.00    -0.376 N
ATOM     13  H4  UNL     1     -16.230  40.790   8.468  1.00  0.00     0.161 HD
BRANCH  12  14
HETATM   14  C6  UNL     1     -15.830  39.783  10.238  1.00  0.00     0.123 C
BRANCH  14  15
HETATM   15  C7  UNL     1     -15.212  38.767   9.301  1.00  0.00     0.047 C
BRANCH  15  16
HETATM   16  C8  UNL     1     -13.707  38.944   9.347  1.00  0.00     0.234 C
BRANCH  16  17
HETATM   17  N5  UNL     1     -13.055  37.648   9.395  1.00  0.00    -0.068 N
ATOM     18  H52 UNL     1     -13.164  37.202  10.305  1.00  0.00     0.277 HD
ATOM     19  H51 UNL     1     -13.544  36.956   8.827  1.00  0.00     0.277 HD
BRANCH  17  20
HETATM   20  C9  UNL     1     -11.685  37.766   9.022  1.00  0.00     0.236 C
HETATM   21  C10 UNL     1     -10.771  37.176  10.076  1.00  0.00     0.267 C
HETATM   22  N6  UNL     1      -9.851  38.288   9.832  1.00  0.00    -0.071 N
HETATM   23  C11 UNL     1     -11.001  39.052   9.359  1.00  0.00     0.267 C
ATOM     24  H62 UNL     1      -9.250  38.646  10.575  1.00  0.00     0.277 HD
ATOM     25  H61 UNL     1      -9.022  38.168   9.250  1.00  0.00     0.277 HD
ENDBRANCH  17  20
ENDBRANCH  16  17
ENDBRANCH  15  16
ENDBRANCH  14  15
ENDBRANCH  12  14
ENDBRANCH   9  12
BRANCH   7  26
HETATM   26  C3  UNL     1     -18.503  44.865   8.216  1.00  0.00     0.287 C
BRANCH  26  27
HETATM   27  N3  UNL     1     -17.406  45.315   7.401  1.00  0.00    -0.074 N
ATOM     28  H33 UNL     1     -16.653  45.730   7.950  1.00  0.00     0.274 HD
ATOM     29  H32 UNL     1     -16.874  44.544   6.997  1.00  0.00     0.274 HD
ATOM     30  H31 UNL     1     -17.771  45.952   6.692  1.00  0.00     0.274 HD
ENDBRANCH  26  27
ENDBRANCH   7  26
TORSDOF 8
ENDMDL