MODEL 5
REMARK VINA RESULT: -6.568364502      1.350      2.913
REMARK  11 active torsions:
REMARK  status: ('A' for Active; 'I' for Inactive)
REMARK    1  A    between atoms: N1_1  and  C1_4
REMARK    2  A    between atoms: C2_7  and  N3_8
REMARK    3  A    between atoms: N3_8  and  N4_10
REMARK    4  A    between atoms: C3_15  and  N6_16
REMARK    5  A    between atoms: N6_16  and  C4_18
REMARK    6  A    between atoms: C4_18  and  C5_19
REMARK    7  A    between atoms: C5_19  and  C6_20
REMARK    8  A    between atoms: C6_20  and  C7_21
REMARK    9  A    between atoms: C7_21  and  C8_22
REMARK   10  A    between atoms: C8_22  and  C9_23
REMARK   11  A    between atoms: C9_23  and  N7_24
ROOT
HETATM    1  C1  UNL     1     -17.349  42.776  11.988  1.00  0.00     0.705 A
HETATM    2  N2  UNL     1     -16.951  44.020  11.666  1.00  0.00    -0.020 N
ATOM      3  H2  UNL     1     -17.116  44.808  12.292  1.00  0.00     0.203 HD
HETATM    4  C2  UNL     1     -16.325  44.186  10.486  1.00  0.00     0.725 A
HETATM    5  N5  UNL     1     -16.105  43.145   9.661  1.00  0.00    -0.020 N
ATOM      6  H5  UNL     1     -15.627  43.305   8.774  1.00  0.00     0.203 HD
HETATM    7  C3  UNL     1     -16.502  41.895   9.978  1.00  0.00     0.707 A
HETATM    8  N8  UNL     1     -17.126  41.741  11.159  1.00  0.00    -0.022 N
ATOM      9  H8  UNL     1     -17.441  40.812  11.434  1.00  0.00     0.203 HD
ENDROOT
BRANCH   7  10
HETATM   10  N6  UNL     1     -16.283  40.909   9.174  1.00  0.00    -0.225 N
ATOM     11  H6  UNL     1     -16.014  41.083   8.206  1.00  0.00     0.177 HD
BRANCH  10  12
HETATM   12  C4  UNL     1     -16.423  39.547   9.664  1.00  0.00     0.138 C
BRANCH  12  13
HETATM   13  C5  UNL     1     -15.662  38.562   8.830  1.00  0.00     0.020 C
BRANCH  13  14
HETATM   14  C6  UNL     1     -14.389  38.206   9.573  1.00  0.00     0.002 C
BRANCH  14  15
HETATM   15  C7  UNL     1     -13.221  39.031   9.032  1.00  0.00     0.002 C
BRANCH  15  16
HETATM   16  C8  UNL     1     -12.599  39.712  10.235  1.00  0.00     0.027 C
BRANCH  16  17
HETATM   17  C9  UNL     1     -13.396  39.444  11.497  1.00  0.00     0.229 C
BRANCH  17  18
HETATM   18  N7  UNL     1     -13.483  40.703  12.212  1.00  0.00    -0.079 N
ATOM     19  H73 UNL     1     -12.630  40.938  12.718  1.00  0.00     0.274 HD
ATOM     20  H72 UNL     1     -13.496  41.515  11.596  1.00  0.00     0.274 HD
ATOM     21  H71 UNL     1     -14.304  40.642  12.816  1.00  0.00     0.274 HD
ENDBRANCH  17  18
ENDBRANCH  16  17
ENDBRANCH  15  16
ENDBRANCH  14  15
ENDBRANCH  13  14
ENDBRANCH  12  13
ENDBRANCH  10  12
ENDBRANCH   7  10
BRANCH   4  22
HETATM   22  N3  UNL     1     -15.933  45.349  10.145  1.00  0.00    -0.138 N
ATOM     23  H3  UNL     1     -15.874  46.071  10.863  1.00  0.00     0.205 HD
BRANCH  22  24
HETATM   24  N4  UNL     1     -15.584  45.680   8.849  1.00  0.00    -0.331 N
ATOM     25  H42 UNL     1     -16.061  46.475   8.423  1.00  0.00     0.177 HD
ATOM     26  H41 UNL     1     -14.883  45.171   8.311  1.00  0.00     0.177 HD
ENDBRANCH  22  24
ENDBRANCH   4  22
BRANCH   1  27
HETATM   27  N1  UNL     1     -17.961  42.569  13.126  1.00  0.00    -0.234 N
ATOM     28  H12 UNL     1     -18.748  43.162  13.387  1.00  0.00     0.174 HD
ATOM     29  H11 UNL     1     -17.645  41.816  13.737  1.00  0.00     0.174 HD
ENDBRANCH   1  27
TORSDOF 11
ENDMDL