MODEL 1
REMARK VINA RESULT: -8.385895408      0.000      0.000
REMARK  5 active torsions:
REMARK  status: ('A' for Active; 'I' for Inactive)
REMARK       I    between atoms: N2_3  and  C2_5
REMARK       I    between atoms: C2_5  and  N4_9
REMARK    1  A    between atoms: N4_9  and  C3_11
REMARK    2  A    between atoms: C3_11  and  C4_12
REMARK    3  A    between atoms: C4_12  and  C5_13
REMARK    4  A    between atoms: C5_13  and  C6_14
REMARK    5  A    between atoms: C6_14  and  C7_15
ROOT
HETATM    1  N1  UNL     1      -8.392  36.780  10.420  1.00  0.00    -0.171 NA
HETATM    2  C1  UNL     1      -9.507  37.055  10.621  1.00  0.00     0.196 C
HETATM    3  N2  UNL     1     -10.861  37.406  10.845  1.00  0.00    -0.127 N
ATOM      4  H2  UNL     1     -11.167  37.834  11.718  1.00  0.00     0.197 HD
HETATM    5  C2  UNL     1     -11.766  37.131   9.795  1.00  0.00     0.680 C
HETATM    6  N3  UNL     1     -11.660  35.946   9.253  1.00  0.00    -0.234 N
ATOM      7  H31 UNL     1     -12.313  35.748   8.495  1.00  0.00     0.174 HD
ATOM      8  H32 UNL     1     -10.946  35.315   9.615  1.00  0.00     0.174 HD
HETATM    9  N4  UNL     1     -12.748  38.000   9.297  1.00  0.00    -0.226 N
ATOM     10  H4  UNL     1     -13.333  37.700   8.517  1.00  0.00     0.177 HD
ENDROOT
BRANCH   9  11
HETATM   11  C3  UNL     1     -12.943  39.304   9.866  1.00  0.00     0.138 C
BRANCH  11  12
HETATM   12  C4  UNL     1     -13.936  39.338  10.993  1.00  0.00     0.020 C
BRANCH  12  13
HETATM   13  C5  UNL     1     -15.229  40.051  10.627  1.00  0.00     0.004 C
BRANCH  13  14
HETATM   14  C6  UNL     1     -15.250  41.464  11.080  1.00  0.00     0.033 C
BRANCH  14  15
HETATM   15  C7  UNL     1     -16.310  42.261  10.372  1.00  0.00     0.151 A
HETATM   16  N5  UNL     1     -15.708  43.312   9.564  1.00  0.00    -0.353 N
HETATM   17  C8  UNL     1     -16.148  44.461   9.899  1.00  0.00     0.190 A
ATOM     18  H5  UNL     1     -15.023  43.151   8.827  1.00  0.00     0.163 HD
HETATM   19  N6  UNL     1     -15.753  45.717   9.299  1.00  0.00    -0.063 NA
HETATM   20  N7  UNL     1     -17.123  44.365  10.926  1.00  0.00    -0.319 N
HETATM   21  C9  UNL     1     -17.253  42.978  11.206  1.00  0.00     0.100 A
ATOM     22  H7  UNL     1     -17.626  45.134  11.371  1.00  0.00     0.169 HD
HETATM   23  N8  UNL     1     -18.102  42.533  12.056  1.00  0.00    -0.387 N
ATOM     24  H82 UNL     1     -18.196  41.537  12.257  1.00  0.00     0.157 HD
ATOM     25  H81 UNL     1     -18.766  43.037  12.643  1.00  0.00     0.157 HD
ENDBRANCH  14  15
ENDBRANCH  13  14
ENDBRANCH  12  13
ENDBRANCH  11  12
ENDBRANCH   9  11
TORSDOF 5
ENDMDL