MODEL 1
REMARK VINA RESULT: -6.866302605      0.000      0.000
REMARK  8 active torsions:
REMARK  status: ('A' for Active; 'I' for Inactive)
REMARK       I    between atoms: C1_4  and  N3_6
REMARK    1  A    between atoms: N3_6  and  C2_8
REMARK    2  A    between atoms: C3_9  and  N4_10
REMARK    3  A    between atoms: C4_14  and  C5_15
REMARK    4  A    between atoms: C5_15  and  C6_16
REMARK    5  A    between atoms: C6_16  and  O1_17
REMARK    6  A    between atoms: O1_17  and  N5_18
REMARK    7  A    between atoms: N5_18  and  C7_19
REMARK    8  A    between atoms: C7_19  and  N6_20
ROOT
HETATM    1  C2  UNL     1     -13.791  38.953  10.313  1.00  0.00     0.119 C
HETATM    2  C3  UNL     1     -14.272  39.913  11.362  1.00  0.00     0.211 C
HETATM    3  C4  UNL     1     -15.142  40.893  10.617  1.00  0.00     0.024 C
HETATM    4  C8  UNL     1     -15.643  40.216   9.396  1.00  0.00    -0.002 A
HETATM    5  C9  UNL     1     -16.130  38.831   9.360  1.00  0.00     0.012 A
HETATM    6  C10 UNL     1     -14.669  39.146   9.119  1.00  0.00     0.015 A
ENDROOT
BRANCH   3   7
HETATM    7  C5  UNL     1     -16.228  41.375  11.546  1.00  0.00     0.035 C
BRANCH   7   8
HETATM    8  C6  UNL     1     -16.260  42.878  11.656  1.00  0.00     0.196 C
BRANCH   8   9
HETATM    9  O1  UNL     1     -14.953  43.356  11.521  1.00  0.00    -0.285 OA
BRANCH   9  10
HETATM   10  N5  UNL     1     -14.916  44.553  10.941  1.00  0.00    -0.074 NA
BRANCH  10  11
HETATM   11  C7  UNL     1     -15.909  44.710   9.898  1.00  0.00     0.371 C
BRANCH  11  12
HETATM   12  N6  UNL     1     -15.424  45.505   8.798  1.00  0.00    -0.064 N
ATOM     13  H63 UNL     1     -14.559  45.985   9.044  1.00  0.00     0.275 HD
ATOM     14  H62 UNL     1     -15.073  44.915   8.043  1.00  0.00     0.275 HD
ATOM     15  H61 UNL     1     -16.126  46.161   8.457  1.00  0.00     0.275 HD
ENDBRANCH  11  12
ENDBRANCH  10  11
ENDBRANCH   9  10
ENDBRANCH   8   9
ENDBRANCH   7   8
ENDBRANCH   3   7
BRANCH   2  16
HETATM   16  N4  UNL     1     -13.227  40.584  12.070  1.00  0.00    -0.073 N
ATOM     17  H43 UNL     1     -12.733  39.932  12.678  1.00  0.00     0.274 HD
ATOM     18  H42 UNL     1     -12.470  40.836  11.434  1.00  0.00     0.274 HD
ATOM     19  H41 UNL     1     -13.534  41.401  12.599  1.00  0.00     0.274 HD
ENDBRANCH   2  16
BRANCH   1  20
HETATM   20  N3  UNL     1     -12.388  39.072  10.018  1.00  0.00    -0.358 N
HETATM   21  C1  UNL     1     -11.600  37.907   9.844  1.00  0.00     0.182 C
HETATM   22  N1  UNL     1     -12.055  36.945   9.132  1.00  0.00    -0.374 N
HETATM   23  N2  UNL     1     -10.314  37.798  10.449  1.00  0.00    -0.064 NA
ATOM     24  H12 UNL     1     -11.488  36.107   9.007  1.00  0.00     0.158 HD
ATOM     25  H11 UNL     1     -12.975  37.022   8.698  1.00  0.00     0.158 HD
ATOM     26  H3  UNL     1     -11.960  39.995   9.935  1.00  0.00     0.162 HD
ENDBRANCH   1  20
TORSDOF 8
ENDMDL