MODEL 3
REMARK VINA RESULT: -7.089123929      1.435      1.571
REMARK  7 active torsions:
REMARK  status: ('A' for Active; 'I' for Inactive)
REMARK    1  A    between atoms: C3_3  and  N1_4
REMARK       I    between atoms: C4_6  and  N2_7
REMARK       I    between atoms: C4_6  and  N4_12
REMARK    2  A    between atoms: N2_7  and  N3_9
REMARK    3  A    between atoms: N4_12  and  C5_14
REMARK    4  A    between atoms: C5_14  and  C6_15
REMARK    5  A    between atoms: C6_15  and  C7_16
REMARK    6  A    between atoms: C7_16  and  N5_17
REMARK    7  A    between atoms: N5_17  and  C8_19
ROOT
HETATM    1  C1  UNL     1      -9.586  40.010   5.688  1.00  0.00     0.014 C
HETATM    2  C2  UNL     1     -10.118  40.177   6.761  1.00  0.00    -0.097 C
HETATM    3  C3  UNL     1     -10.741  40.397   8.064  1.00  0.00     0.231 C
ENDROOT
BRANCH   3   4
HETATM    4  N1  UNL     1     -12.180  40.322   7.959  1.00  0.00    -0.215 N
HETATM    5  C4  UNL     1     -12.796  39.373   8.568  1.00  0.00     0.688 C
HETATM    6  N2  UNL     1     -12.069  38.422   9.331  1.00  0.00    -0.139 N
HETATM    7  N4  UNL     1     -14.221  39.299   8.474  1.00  0.00    -0.225 N
ATOM      8  H2  UNL     1     -11.272  38.704   9.901  1.00  0.00     0.205 HD
ATOM      9  H4  UNL     1     -14.676  39.489   7.580  1.00  0.00     0.177 HD
ATOM     10  H1  UNL     1     -12.698  41.009   7.410  1.00  0.00     0.178 HD
BRANCH   6  11
HETATM   11  N3  UNL     1     -12.478  37.093   9.278  1.00  0.00    -0.331 N
ATOM     12  H32 UNL     1     -11.926  36.370   9.741  1.00  0.00     0.177 HD
ATOM     13  H31 UNL     1     -13.334  36.874   8.769  1.00  0.00     0.177 HD
ENDBRANCH   6  11
BRANCH   7  14
HETATM   14  C5  UNL     1     -15.017  38.963   9.608  1.00  0.00     0.139 C
BRANCH  14  15
HETATM   15  C6  UNL     1     -14.951  39.994  10.709  1.00  0.00     0.040 C
BRANCH  15  16
HETATM   16  C7  UNL     1     -15.331  41.367  10.231  1.00  0.00     0.124 C
BRANCH  16  17
HETATM   17  N5  UNL     1     -16.652  41.438   9.657  1.00  0.00    -0.362 N
ATOM     18  H5  UNL     1     -17.186  40.580   9.522  1.00  0.00     0.162 HD
BRANCH  17  19
HETATM   19  C8  UNL     1     -17.231  42.703   9.271  1.00  0.00     0.171 C
HETATM   20  N6  UNL     1     -18.501  42.911   9.193  1.00  0.00    -0.361 N
HETATM   21  C9  UNL     1     -18.798  44.261   8.786  1.00  0.00     0.142 C
ATOM     22  H6  UNL     1     -19.209  42.205   9.395  1.00  0.00     0.162 HD
HETATM   23  C10 UNL     1     -17.464  44.879   8.458  1.00  0.00     0.142 C
HETATM   24  N7  UNL     1     -16.532  43.890   8.925  1.00  0.00    -0.361 N
ATOM     25  H7  UNL     1     -15.522  44.021   8.997  1.00  0.00     0.162 HD
ENDBRANCH  17  19
ENDBRANCH  16  17
ENDBRANCH  15  16
ENDBRANCH  14  15
ENDBRANCH   7  14
ENDBRANCH   3   4
TORSDOF 7
ENDMDL