MODEL 1
REMARK VINA RESULT: -7.848150629      0.000      0.000
REMARK  9 active torsions:
REMARK  status: ('A' for Active; 'I' for Inactive)
REMARK    1  A    between atoms: C2_2  and  C3_3
REMARK    2  A    between atoms: C3_3  and  C5_5
REMARK    3  A    between atoms: C5_5  and  C6_6
REMARK    4  A    between atoms: C5_5  and  C13_15
REMARK    5  A    between atoms: C6_6  and  O1_7
REMARK    6  A    between atoms: O1_7  and  C7_8
REMARK    7  A    between atoms: C13_15  and  N1_16
REMARK    8  A    between atoms: C16_19  and  N2_20
REMARK    9  A    between atoms: C17_24  and  O3_25
ROOT
HETATM    1  C5  UNL     1       4.813  23.886   5.128  1.00  0.00     0.051 C
ENDROOT
BRANCH   1   2
HETATM    2  C3  UNL     1       5.800  22.905   5.666  1.00  0.00    -0.008 C
HETATM    3  C4  UNL     1       6.557  23.386   6.887  1.00  0.00     0.011 C
BRANCH   2   4
HETATM    4  C2  UNL     1       6.862  22.639   4.615  1.00  0.00     0.000 C
HETATM    5  C1  UNL     1       8.162  23.289   5.085  1.00  0.00     0.005 C
ENDBRANCH   2   4
ENDBRANCH   1   2
BRANCH   1   6
HETATM    6  C6  UNL     1       3.415  23.469   5.500  1.00  0.00     0.178 C
BRANCH   6   7
HETATM    7  O1  UNL     1       3.407  22.300   6.274  1.00  0.00    -0.383 OA
BRANCH   7   8
HETATM    8  C7  UNL     1       2.118  21.887   6.547  1.00  0.00     0.152 C
HETATM    9  C8  UNL     1       1.095  22.987   6.292  1.00  0.00     0.066 C
HETATM   10  C9  UNL     1       0.425  23.104   7.642  1.00  0.00     0.124 C
HETATM   11  C10 UNL     1      -0.446  21.911   7.862  1.00  0.00     0.034 C
HETATM   12  O2  UNL     1       1.505  22.837   8.500  1.00  0.00    -0.378 OA
HETATM   13  C11 UNL     1       0.569  20.810   8.134  1.00  0.00     0.037 C
HETATM   14  C12 UNL     1       1.867  21.567   7.991  1.00  0.00     0.151 C
ENDBRANCH   7   8
ENDBRANCH   6   7
ENDBRANCH   1   6
BRANCH   1  15
HETATM   15  C13 UNL     1       5.072  25.323   5.493  1.00  0.00     0.065 C
BRANCH  15  16
HETATM   16  N1  UNL     1       5.787  26.115   4.574  1.00  0.00    -0.390 N
HETATM   17  C14 UNL     1       7.083  26.567   4.969  1.00  0.00     0.124 C
HETATM   18  C15 UNL     1       7.675  27.431   3.893  1.00  0.00     0.055 C
HETATM   19  C16 UNL     1       7.947  26.691   2.607  1.00  0.00     0.215 C
HETATM   20  C17 UNL     1       7.028  25.516   2.520  1.00  0.00     0.166 C
HETATM   21  C18 UNL     1       5.716  25.700   3.214  1.00  0.00     0.155 C
BRANCH  19  22
HETATM   22  N2  UNL     1       9.314  26.202   2.531  1.00  0.00    -0.072 N
ATOM     23  H23 UNL     1       9.863  26.521   3.328  1.00  0.00     0.274 HD
ATOM     24  H22 UNL     1       9.354  25.196   2.696  1.00  0.00     0.274 HD
ATOM     25  H21 UNL     1       9.765  26.448   1.650  1.00  0.00     0.274 HD
ENDBRANCH  19  22
BRANCH  20  26
HETATM   26  O3  UNL     1       6.746  25.309   1.155  1.00  0.00    -0.392 OA
ATOM     27  H3  UNL     1       5.944  25.780   0.960  1.00  0.00     0.210 HD
ENDBRANCH  20  26
ENDBRANCH  15  16
ENDBRANCH   1  15
TORSDOF 9
ENDMDL