MODEL 4
REMARK VINA RESULT: -7.119604057      3.492      8.091
REMARK  8 active torsions:
REMARK  status: ('A' for Active; 'I' for Inactive)
REMARK    1  A    between atoms: N1_1  and  C1_5
REMARK    2  A    between atoms: C1_5  and  C2_6
REMARK    3  A    between atoms: C2_6  and  C3_7
REMARK    4  A    between atoms: C2_6  and  C9_14
REMARK    5  A    between atoms: C3_7  and  C4_8
REMARK       I    between atoms: C9_14  and  N2_16
REMARK    6  A    between atoms: N2_16  and  C10_18
REMARK    7  A    between atoms: C10_18  and  C11_19
REMARK    8  A    between atoms: C11_19  and  N3_20
ROOT
HETATM    1  C2  UNL     1       5.564  24.370   5.519  1.00  0.00     0.103 C
ENDROOT
BRANCH   1   2
HETATM    2  C1  UNL     1       6.208  23.082   5.987  1.00  0.00     0.243 C
BRANCH   2   3
HETATM    3  N1  UNL     1       6.722  22.411   4.798  1.00  0.00    -0.079 N
ATOM      4  H13 UNL     1       6.158  21.609   4.514  1.00  0.00     0.274 HD
ATOM      5  H12 UNL     1       6.606  22.958   3.945  1.00  0.00     0.274 HD
ATOM      6  H11 UNL     1       7.694  22.170   4.991  1.00  0.00     0.274 HD
ENDBRANCH   2   3
ENDBRANCH   1   2
BRANCH   1   7
HETATM    7  C3  UNL     1       6.062  24.809   4.180  1.00  0.00     0.020 C
BRANCH   7   8
HETATM    8  C4  UNL     1       6.466  26.268   4.189  1.00  0.00    -0.012 C
HETATM    9  C5  UNL     1       7.866  26.455   4.721  1.00  0.00     0.015 C
HETATM   10  C6  UNL     1       8.900  25.711   3.936  1.00  0.00     0.074 C
HETATM   11  S1  UNL     1       8.860  26.336   2.233  1.00  0.00    -0.169 SA
HETATM   12  C7  UNL     1       7.089  26.377   1.761  1.00  0.00     0.074 C
HETATM   13  C8  UNL     1       6.251  26.947   2.870  1.00  0.00     0.015 C
ENDBRANCH   7   8
ENDBRANCH   1   7
BRANCH   1  14
HETATM   14  C9  UNL     1       4.102  24.060   5.369  1.00  0.00     0.223 C
HETATM   15  O1  UNL     1       3.424  24.657   4.496  1.00  0.00    -0.273 OA
HETATM   16  N2  UNL     1       3.456  23.105   6.188  1.00  0.00    -0.359 N
ATOM     17  H2  UNL     1       4.021  22.629   6.892  1.00  0.00     0.162 HD
BRANCH  16  18
HETATM   18  C10 UNL     1       2.064  22.752   6.103  1.00  0.00     0.152 C
BRANCH  18  19
HETATM   19  C11 UNL     1       1.633  21.685   7.059  1.00  0.00     0.292 C
BRANCH  19  20
HETATM   20  N3  UNL     1       0.913  22.213   8.196  1.00  0.00     0.094 N
HETATM   21  C12 UNL     1       0.267  21.112   8.855  1.00  0.00     0.298 C
HETATM   22  C13 UNL     1      -0.961  20.655   8.119  1.00  0.00     0.198 C
HETATM   23  O2  UNL     1      -1.849  21.687   7.841  1.00  0.00    -0.388 OA
HETATM   24  C14 UNL     1      -1.165  22.563   6.972  1.00  0.00     0.198 C
HETATM   25  C15 UNL     1      -0.067  23.196   7.838  1.00  0.00     0.298 C
ENDBRANCH  19  20
ENDBRANCH  18  19
ENDBRANCH  16  18
ENDBRANCH   1  14
TORSDOF 8
ENDMDL