MODEL 3
REMARK VINA RESULT: -6.696965057      1.401      1.872
REMARK  9 active torsions:
REMARK  status: ('A' for Active; 'I' for Inactive)
REMARK    1  A    between atoms: C2_2  and  C3_3
REMARK    2  A    between atoms: N1_5  and  C5_6
REMARK    3  A    between atoms: C5_6  and  C6_7
REMARK    4  A    between atoms: C6_7  and  N2_8
REMARK    5  A    between atoms: N2_8  and  C7_10
REMARK    6  A    between atoms: C7_10  and  N3_12
REMARK    7  A    between atoms: N3_12  and  C8_14
REMARK    8  A    between atoms: C8_14  and  C9_15
REMARK    9  A    between atoms: C9_15  and  S2_16
ROOT
HETATM    1  S2  UNL     1      -1.938  22.528   7.366  1.00  0.00    -0.049 SA
HETATM    2  C10 UNL     1      -1.340  21.277   8.388  1.00  0.00     0.133 C
HETATM    3  N4  UNL     1      -0.956  20.427   9.097  1.00  0.00    -0.184 NA
ENDROOT
BRANCH   1   4
HETATM    4  C9  UNL     1      -0.729  23.443   6.439  1.00  0.00     0.110 C
BRANCH   4   5
HETATM    5  C8  UNL     1       0.661  22.916   6.627  1.00  0.00     0.133 C
BRANCH   5   6
HETATM    6  N3  UNL     1       1.547  23.462   5.647  1.00  0.00    -0.367 N
ATOM      7  H3  UNL     1       1.166  23.951   4.836  1.00  0.00     0.161 HD
BRANCH   6   8
HETATM    8  C7  UNL     1       2.952  23.330   5.791  1.00  0.00     0.167 C
HETATM    9  S1  UNL     1       3.509  22.106   6.717  1.00  0.00    -0.041 SA
BRANCH   8  10
HETATM   10  N2  UNL     1       3.821  24.249   5.148  1.00  0.00    -0.366 N
ATOM     11  H2  UNL     1       3.441  24.826   4.397  1.00  0.00     0.161 HD
BRANCH  10  12
HETATM   12  C6  UNL     1       5.207  24.413   5.497  1.00  0.00     0.141 C
BRANCH  12  13
HETATM   13  C5  UNL     1       6.153  23.895   4.439  1.00  0.00     0.136 C
BRANCH  13  14
HETATM   14  N1  UNL     1       6.884  24.994   3.916  1.00  0.00    -0.406 N
HETATM   15  C4  UNL     1       7.986  25.425   4.701  1.00  0.00     0.149 C
HETATM   16  C3  UNL     1       8.897  26.373   4.020  1.00  0.00     0.139 C
HETATM   17  O1  UNL     1       9.001  26.284   2.669  1.00  0.00    -0.378 OA
HETATM   18  C12 UNL     1       7.763  26.282   2.081  1.00  0.00     0.135 C
HETATM   19  C11 UNL     1       7.044  25.025   2.509  1.00  0.00     0.148 C
HETATM   20  C13 UNL     1       7.937  26.338   0.572  1.00  0.00     0.041 C
BRANCH  16  21
HETATM   21  C2  UNL     1       8.595  27.821   4.407  1.00  0.00     0.029 C
HETATM   22  C1  UNL     1       7.847  27.918   5.708  1.00  0.00     0.007 C
ENDBRANCH  16  21
ENDBRANCH  13  14
ENDBRANCH  12  13
ENDBRANCH  10  12
ENDBRANCH   8  10
ENDBRANCH   6   8
ENDBRANCH   5   6
ENDBRANCH   4   5
ENDBRANCH   1   4
TORSDOF 9
ENDMDL