MODEL 1
REMARK VINA RESULT: -6.805591985      0.000      0.000
REMARK  7 active torsions:
REMARK  status: ('A' for Active; 'I' for Inactive)
REMARK    1  A    between atoms: C2_2  and  O1_3
REMARK    2  A    between atoms: O1_3  and  C3_4
REMARK    3  A    between atoms: C3_4  and  C4_5
REMARK    4  A    between atoms: C4_5  and  C5_6
REMARK    5  A    between atoms: C5_6  and  C6_7
REMARK    6  A    between atoms: C6_7  and  C7_8
REMARK    7  A    between atoms: C7_8  and  N1_9
ROOT
HETATM    1  C4  UNL     1       5.778  25.741   4.616  1.00  0.00     0.194 C
HETATM    2  N2  UNL     1       5.697  26.641   3.458  1.00  0.00    -0.056 N
ATOM      3  H21 UNL     1       6.239  27.493   3.602  1.00  0.00     0.278 HD
ATOM      4  H22 UNL     1       4.773  27.062   3.368  1.00  0.00     0.278 HD
HETATM    5  C12 UNL     1       6.090  25.954   2.256  1.00  0.00     0.240 C
HETATM    6  C13 UNL     1       7.613  25.785   2.349  1.00  0.00     0.086 C
HETATM    7  C14 UNL     1       7.808  24.773   3.429  1.00  0.00     0.038 A
HETATM    8  N3  UNL     1       8.682  23.788   3.656  1.00  0.00    -0.305 N
ATOM      9  H3  UNL     1       9.462  23.535   3.050  1.00  0.00     0.186 HD
HETATM   10  N4  UNL     1       8.369  23.187   4.806  1.00  0.00    -0.311 N
ATOM     11  H4  UNL     1       8.873  22.401   5.216  1.00  0.00     0.186 HD
HETATM   12  C15 UNL     1       7.272  23.787   5.347  1.00  0.00     0.119 A
HETATM   13  C16 UNL     1       6.938  24.783   4.462  1.00  0.00     0.025 A
ENDROOT
BRANCH   1  14
HETATM   14  C3  UNL     1       4.548  24.892   4.559  1.00  0.00     0.216 C
BRANCH  14  15
HETATM   15  O1  UNL     1       4.139  24.439   5.813  1.00  0.00    -0.388 OA
BRANCH  15  16
HETATM   16  C2  UNL     1       3.484  23.241   5.688  1.00  0.00     0.163 C
HETATM   17  C1  UNL     1       4.090  22.192   6.632  1.00  0.00     0.033 C
ENDBRANCH  15  16
ENDBRANCH  14  15
ENDBRANCH   1  14
BRANCH   1  18
HETATM   18  C5  UNL     1       6.044  26.484   5.857  1.00  0.00     0.017 C
BRANCH  18  19
HETATM   19  C6  UNL     1       6.889  27.662   5.935  1.00  0.00     0.002 C
BRANCH  19  20
HETATM   20  C7  UNL     1       6.357  29.022   6.158  1.00  0.00     0.299 C
BRANCH  20  21
HETATM   21  N1  UNL     1       6.678  29.980   5.130  1.00  0.00     0.096 N
HETATM   22  C8  UNL     1       7.839  29.505   4.389  1.00  0.00     0.299 C
HETATM   23  C9  UNL     1       8.642  30.682   3.937  1.00  0.00     0.198 C
HETATM   24  O2  UNL     1       9.148  31.445   4.987  1.00  0.00    -0.388 OA
HETATM   25  C10 UNL     1       8.249  31.541   6.041  1.00  0.00     0.198 C
HETATM   26  C11 UNL     1       6.826  31.331   5.560  1.00  0.00     0.299 C
ENDBRANCH  20  21
ENDBRANCH  19  20
ENDBRANCH  18  19
ENDBRANCH   1  18
TORSDOF 7
ENDMDL