MODEL 1
REMARK VINA RESULT: -8.027667682      0.000      0.000
REMARK  7 active torsions:
REMARK  status: ('A' for Active; 'I' for Inactive)
REMARK    1  A    between atoms: C2_2  and  N1_3
REMARK    2  A    between atoms: N1_3  and  C3_4
REMARK    3  A    between atoms: N1_3  and  C10_18
REMARK    4  A    between atoms: C3_4  and  C4_5
REMARK    5  A    between atoms: C4_5  and  O1_6
REMARK    6  A    between atoms: O1_6  and  C5_7
REMARK    7  A    between atoms: C5_7  and  C6_8
ROOT
HETATM    1  C6  UNL     1       0.646  22.565   6.962  1.00  0.00     0.144 C
HETATM    2  N2  UNL     1       0.221  23.961   6.757  1.00  0.00    -0.358 N
ATOM      3  H2  UNL     1       0.819  24.746   6.499  1.00  0.00     0.162 HD
HETATM    4  C7  UNL     1      -1.184  24.005   6.987  1.00  0.00     0.169 C
HETATM    5  S1  UNL     1      -2.080  25.323   7.416  1.00  0.00    -0.041 SA
HETATM    6  N3  UNL     1      -1.655  22.681   6.773  1.00  0.00    -0.348 N
ATOM      7  H3  UNL     1      -2.612  22.432   6.522  1.00  0.00     0.163 HD
HETATM    8  C8  UNL     1      -0.563  21.731   6.967  1.00  0.00     0.216 C
HETATM    9  C9  UNL     1      -0.717  21.111   8.327  1.00  0.00     0.086 C
HETATM   10  N4  UNL     1      -0.852  20.622   9.365  1.00  0.00    -0.195 NA
ENDROOT
BRANCH   1  11
HETATM   11  C5  UNL     1       1.834  22.172   6.193  1.00  0.00     0.196 C
BRANCH  11  12
HETATM   12  O1  UNL     1       2.481  23.035   5.386  1.00  0.00    -0.384 OA
BRANCH  12  13
HETATM   13  C4  UNL     1       3.621  23.600   5.856  1.00  0.00     0.212 C
BRANCH  13  14
HETATM   14  C3  UNL     1       4.370  24.424   4.826  1.00  0.00     0.086 C
BRANCH  14  15
HETATM   15  N1  UNL     1       5.748  24.389   4.819  1.00  0.00    -0.370 N
BRANCH  15  16
HETATM   16  C2  UNL     1       6.459  23.221   5.094  1.00  0.00     0.119 C
HETATM   17  C1  UNL     1       6.626  23.104   6.617  1.00  0.00     0.026 C
ENDBRANCH  15  16
BRANCH  15  18
HETATM   18  C10 UNL     1       6.467  25.515   4.336  1.00  0.00     0.121 C
HETATM   19  C11 UNL     1       6.126  25.625   2.891  1.00  0.00     0.091 C
HETATM   20  N5  UNL     1       5.879  25.715   1.766  1.00  0.00    -0.195 NA
HETATM   21  C12 UNL     1       7.959  25.431   4.428  1.00  0.00     0.047 C
HETATM   22  C13 UNL     1       8.426  26.889   4.395  1.00  0.00     0.004 C
HETATM   23  C14 UNL     1       7.374  27.614   5.222  1.00  0.00     0.004 C
HETATM   24  C15 UNL     1       6.146  26.808   4.989  1.00  0.00     0.047 C
ENDBRANCH  15  18
ENDBRANCH  14  15
ENDBRANCH  13  14
ENDBRANCH  12  13
ENDBRANCH  11  12
ENDBRANCH   1  11
TORSDOF 7
ENDMDL