MODEL 4
REMARK VINA RESULT: -6.956600319      4.005      8.173
REMARK  9 active torsions:
REMARK  status: ('A' for Active; 'I' for Inactive)
REMARK    1  A    between atoms: C2_2  and  C3_3
REMARK    2  A    between atoms: C3_3  and  N1_4
REMARK    3  A    between atoms: N1_4  and  C4_6
REMARK    4  A    between atoms: C5_9  and  N3_10
REMARK    5  A    between atoms: C11_18  and  N5_19
REMARK    6  A    between atoms: N5_19  and  C12_21
REMARK    7  A    between atoms: C12_21  and  C13_22
REMARK    8  A    between atoms: C13_22  and  C14_23
REMARK    9  A    between atoms: C14_23  and  O1_24
ROOT
HETATM    1  C4  UNL     1       7.136  24.920   3.238  1.00  0.00     0.707 A
HETATM    2  N2  UNL     1       6.324  24.091   3.914  1.00  0.00    -0.021 N
ATOM      3  H2  UNL     1       6.357  23.090   3.717  1.00  0.00     0.203 HD
HETATM    4  C5  UNL     1       5.457  24.554   4.856  1.00  0.00     0.709 A
HETATM    5  N4  UNL     1       5.458  25.880   5.074  1.00  0.00    -0.021 N
ATOM      6  H4  UNL     1       4.817  26.251   5.775  1.00  0.00     0.203 HD
HETATM    7  C11 UNL     1       6.251  26.747   4.423  1.00  0.00     0.707 A
HETATM    8  N6  UNL     1       7.100  26.240   3.492  1.00  0.00    -0.022 N
ATOM      9  H6  UNL     1       7.718  26.869   2.979  1.00  0.00     0.203 HD
ENDROOT
BRANCH   7  10
HETATM   10  N5  UNL     1       6.279  28.004   4.604  1.00  0.00    -0.225 N
ATOM     11  H5  UNL     1       5.388  28.450   4.823  1.00  0.00     0.177 HD
BRANCH  10  12
HETATM   12  C12 UNL     1       7.426  28.870   4.533  1.00  0.00     0.140 C
BRANCH  12  13
HETATM   13  C13 UNL     1       7.405  29.673   5.843  1.00  0.00     0.046 C
BRANCH  13  14
HETATM   14  C14 UNL     1       5.949  29.764   6.256  1.00  0.00     0.168 C
BRANCH  14  15
HETATM   15  O1  UNL     1       5.631  29.010   7.357  1.00  0.00    -0.396 OA
HETATM   16  C15 UNL     1       6.679  28.678   8.172  1.00  0.00     0.201 C
ENDBRANCH  14  15
ENDBRANCH  13  14
ENDBRANCH  12  13
ENDBRANCH  10  12
ENDBRANCH   7  10
BRANCH   4  17
HETATM   17  N3  UNL     1       4.604  23.648   5.560  1.00  0.00    -0.217 N
HETATM   18  C6  UNL     1       5.220  22.779   6.527  1.00  0.00     0.141 C
HETATM   19  C7  UNL     1       4.252  21.682   6.872  1.00  0.00     0.020 C
HETATM   20  C8  UNL     1       2.969  22.324   7.331  1.00  0.00     0.003 C
HETATM   21  C9  UNL     1       2.297  23.119   6.259  1.00  0.00     0.020 C
HETATM   22  C10 UNL     1       3.207  23.685   5.232  1.00  0.00     0.141 C
ENDBRANCH   4  17
BRANCH   1  23
HETATM   23  N1  UNL     1       7.967  24.528   2.337  1.00  0.00    -0.225 N
ATOM     24  H1  UNL     1       8.524  23.700   2.553  1.00  0.00     0.177 HD
BRANCH  23  25
HETATM   25  C3  UNL     1       8.186  25.141   1.065  1.00  0.00     0.137 C
BRANCH  25  26
HETATM   26  C2  UNL     1       8.587  24.041   0.102  1.00  0.00     0.016 C
HETATM   27  C1  UNL     1       8.578  24.604  -1.306  1.00  0.00     0.006 C
ENDBRANCH  25  26
ENDBRANCH  23  25
ENDBRANCH   1  23
TORSDOF 9
ENDMDL