MODEL 2
REMARK VINA RESULT: -7.606761064      0.953      1.266
REMARK  8 active torsions:
REMARK  status: ('A' for Active; 'I' for Inactive)
REMARK    1  A    between atoms: C2_2  and  C3_3
REMARK    2  A    between atoms: C3_3  and  C4_4
REMARK    3  A    between atoms: C4_4  and  C5_5
REMARK    4  A    between atoms: C5_5  and  C6_6
REMARK    5  A    between atoms: C6_6  and  N1_7
REMARK    6  A    between atoms: N1_7  and  C7_9
REMARK    7  A    between atoms: N4_20  and  C12_21
REMARK    8  A    between atoms: C12_21  and  C13_22
ROOT
HETATM    1  C7  UNL     1       3.249  23.745   5.509  1.00  0.00     0.682 A
HETATM    2  N2  UNL     1       4.097  22.915   6.141  1.00  0.00    -0.155 N
ATOM      3  H2  UNL     1       5.100  22.968   5.961  1.00  0.00     0.187 HD
HETATM    4  C8  UNL     1       3.606  22.003   7.023  1.00  0.00     0.275 A
HETATM    5  O1  UNL     1       4.424  21.243   7.595  1.00  0.00    -0.267 OA
HETATM    6  C9  UNL     1       2.274  21.890   7.300  1.00  0.00     0.093 A
HETATM    7  C10 UNL     1       1.765  20.970   8.190  1.00  0.00     0.113 A
HETATM    8  N3  UNL     1       0.447  20.947   8.384  1.00  0.00    -0.318 N
ATOM      9  H3  UNL     1       0.046  20.275   9.038  1.00  0.00     0.170 HD
HETATM   10  C11 UNL     1      -0.352  21.786   7.738  1.00  0.00     0.328 A
HETATM   11  O2  UNL     1      -1.599  21.748   7.936  1.00  0.00    -0.246 OA
HETATM   12  N4  UNL     1       0.083  22.716   6.848  1.00  0.00    -0.284 N
HETATM   13  C16 UNL     1       1.409  22.759   6.636  1.00  0.00     0.144 A
HETATM   14  N5  UNL     1       1.913  23.634   5.786  1.00  0.00    -0.175 N
ATOM     15  H5  UNL     1       1.270  24.264   5.307  1.00  0.00     0.186 HD
ENDROOT
BRANCH   1  16
HETATM   16  N1  UNL     1       3.673  24.613   4.675  1.00  0.00    -0.226 N
ATOM     17  H1  UNL     1       3.071  24.808   3.875  1.00  0.00     0.177 HD
BRANCH  16  18
HETATM   18  C6  UNL     1       4.906  25.342   4.743  1.00  0.00     0.138 C
BRANCH  18  19
HETATM   19  C5  UNL     1       5.872  24.903   3.680  1.00  0.00     0.020 C
BRANCH  19  20
HETATM   20  C4  UNL     1       6.018  25.884   2.577  1.00  0.00     0.002 C
BRANCH  20  21
HETATM   21  C3  UNL     1       6.781  27.095   3.043  1.00  0.00    -0.000 C
BRANCH  21  22
HETATM   22  C2  UNL     1       8.208  26.717   3.447  1.00  0.00    -0.005 C
HETATM   23  C1  UNL     1       8.530  27.402   4.752  1.00  0.00     0.005 C
ENDBRANCH  21  22
ENDBRANCH  20  21
ENDBRANCH  19  20
ENDBRANCH  18  19
ENDBRANCH  16  18
ENDBRANCH   1  16
BRANCH  12  24
HETATM   24  C12 UNL     1      -0.839  23.594   6.182  1.00  0.00     0.140 C
BRANCH  24  25
HETATM   25  C13 UNL     1      -1.089  24.808   7.031  1.00  0.00     0.004 A
HETATM   26  C14 UNL     1      -2.388  25.023   7.703  1.00  0.00     0.007 A
HETATM   27  C15 UNL     1      -2.090  25.866   6.521  1.00  0.00     0.007 A
ENDBRANCH  24  25
ENDBRANCH  12  24
TORSDOF 8
ENDMDL