MODEL 2
REMARK VINA RESULT: -8.807194346      1.626      2.069
REMARK  8 active torsions:
REMARK  status: ('A' for Active; 'I' for Inactive)
REMARK    1  A    between atoms: C2_2  and  C3_3
REMARK    2  A    between atoms: C3_3  and  C4_4
REMARK    3  A    between atoms: C4_4  and  C5_5
REMARK    4  A    between atoms: C5_5  and  C6_6
REMARK    5  A    between atoms: C7_9  and  S1_10
REMARK    6  A    between atoms: S1_10  and  N2_11
REMARK    7  A    between atoms: S1_10  and  C8_15
REMARK    8  A    between atoms: C8_15  and  N3_16
ROOT
HETATM    1  C6  UNL     1       1.418  22.420   7.395  1.00  0.00     0.097 A
HETATM    2  N1  UNL     1       2.783  22.588   7.392  1.00  0.00    -0.322 N
ATOM      3  H1  UNL     1       3.411  22.300   8.142  1.00  0.00     0.169 HD
HETATM    4  C7  UNL     1       3.153  23.171   6.284  1.00  0.00     0.199 A
HETATM    5  N4  UNL     1       2.064  23.390   5.564  1.00  0.00    -0.276 N
ATOM      6  H4  UNL     1       2.033  23.833   4.645  1.00  0.00     0.189 HD
HETATM    7  N5  UNL     1       1.004  22.924   6.254  1.00  0.00    -0.287 N
ATOM      8  H5  UNL     1       0.035  22.958   5.939  1.00  0.00     0.188 HD
ENDROOT
BRANCH   4   9
HETATM    9  S1  UNL     1       5.031  23.603   5.636  1.00  0.00     0.101 S
HETATM   10  O1  UNL     1       5.252  22.739   4.846  1.00  0.00    -0.240 OA
BRANCH   9  11
HETATM   11  N2  UNL     1       6.304  23.077   7.027  1.00  0.00    -0.353 N
ATOM     12  H22 UNL     1       6.219  23.311   8.016  1.00  0.00     0.166 HD
ATOM     13  H21 UNL     1       7.053  22.538   6.593  1.00  0.00     0.166 HD
ENDBRANCH   9  11
BRANCH   9  14
HETATM   14  C8  UNL     1       5.170  25.272   4.850  1.00  0.00     0.252 C
BRANCH  14  15
HETATM   15  N3  UNL     1       6.333  25.390   3.922  1.00  0.00    -0.361 N
HETATM   16  C9  UNL     1       7.538  25.668   4.582  1.00  0.00     0.064 C
HETATM   17  C10 UNL     1       8.254  26.925   4.249  1.00  0.00     0.049 C
HETATM   18  C11 UNL     1       8.125  27.359   2.826  1.00  0.00    -0.009 C
HETATM   19  C12 UNL     1       8.867  26.393   1.928  1.00  0.00     0.010 C
HETATM   20  C13 UNL     1       6.641  27.388   2.504  1.00  0.00     0.049 C
HETATM   21  C14 UNL     1       5.998  26.067   2.740  1.00  0.00     0.064 C
ENDBRANCH  14  15
ENDBRANCH   9  14
ENDBRANCH   4   9
BRANCH   1  22
HETATM   22  C5  UNL     1       0.761  21.763   8.532  1.00  0.00     0.078 C
BRANCH  22  23
HETATM   23  C4  UNL     1      -0.174  20.663   8.180  1.00  0.00     0.007 C
BRANCH  23  24
HETATM   24  C3  UNL     1      -1.586  20.833   8.616  1.00  0.00     0.000 C
BRANCH  24  25
HETATM   25  C2  UNL     1      -2.514  21.188   7.471  1.00  0.00    -0.005 C
HETATM   26  C1  UNL     1      -2.669  22.694   7.452  1.00  0.00     0.005 C
ENDBRANCH  24  25
ENDBRANCH  23  24
ENDBRANCH  22  23
ENDBRANCH   1  22
TORSDOF 8
ENDMDL