MODEL 4
REMARK VINA RESULT: -7.796802709      2.578      8.362
REMARK  7 active torsions:
REMARK  status: ('A' for Active; 'I' for Inactive)
REMARK    1  A    between atoms: C2_2  and  C3_3
REMARK    2  A    between atoms: C3_3  and  C4_4
REMARK    3  A    between atoms: C4_4  and  N1_5
REMARK    4  A    between atoms: N1_5  and  C5_8
REMARK    5  A    between atoms: C5_8  and  C6_9
REMARK    6  A    between atoms: C9_13  and  C10_14
REMARK    7  A    between atoms: C10_14  and  N2_15
ROOT
HETATM    1  C10 UNL     1       3.001  22.976   5.949  1.00  0.00     0.137 C
ENDROOT
BRANCH   1   2
HETATM    2  C9  UNL     1       2.427  22.660   7.310  1.00  0.00     0.037 C
HETATM    3  C6  UNL     1       1.033  23.180   7.468  1.00  0.00     0.152 C
HETATM    4  O1  UNL     1       0.539  22.397   8.511  1.00  0.00    -0.384 OA
HETATM    5  C7  UNL     1       0.974  21.115   8.313  1.00  0.00     0.168 C
HETATM    6  C8  UNL     1       2.157  21.148   7.391  1.00  0.00     0.035 C
BRANCH   3   7
HETATM    7  C5  UNL     1       0.177  22.925   6.264  1.00  0.00     0.264 C
BRANCH   7   8
HETATM    8  N1  UNL     1      -0.584  24.140   6.006  1.00  0.00    -0.073 N
ATOM      9  H12 UNL     1      -1.005  24.135   5.078  1.00  0.00     0.277 HD
ATOM     10  H11 UNL     1       0.023  24.952   5.892  1.00  0.00     0.277 HD
BRANCH   8  11
HETATM   11  C4  UNL     1      -1.579  24.348   7.055  1.00  0.00     0.232 C
BRANCH  11  12
HETATM   12  C3  UNL     1      -2.577  23.221   7.039  1.00  0.00     0.027 C
BRANCH  12  13
HETATM   13  C2  UNL     1      -2.675  22.540   8.390  1.00  0.00    -0.003 C
HETATM   14  C1  UNL     1      -2.658  21.031   8.189  1.00  0.00     0.005 C
ENDBRANCH  12  13
ENDBRANCH  11  12
ENDBRANCH   8  11
ENDBRANCH   7   8
ENDBRANCH   3   7
ENDBRANCH   1   2
BRANCH   1  15
HETATM   15  N2  UNL     1       4.414  23.096   5.977  1.00  0.00    -0.337 N
HETATM   16  C11 UNL     1       5.288  22.402   6.768  1.00  0.00     0.183 A
HETATM   17  N3  UNL     1       6.537  22.759   6.543  1.00  0.00    -0.354 N
HETATM   18  C12 UNL     1       6.534  23.699   5.600  1.00  0.00     0.043 A
ATOM     19  H3  UNL     1       7.361  22.382   7.010  1.00  0.00     0.166 HD
HETATM   20  C13 UNL     1       5.207  23.901   5.255  1.00  0.00     0.126 A
HETATM   21  C17 UNL     1       7.778  24.335   5.096  1.00  0.00     0.061 C
HETATM   22  C14 UNL     1       4.726  24.843   4.256  1.00  0.00     0.270 C
HETATM   23  O2  UNL     1       3.489  24.968   4.165  1.00  0.00    -0.266 OA
HETATM   24  N4  UNL     1       5.504  25.645   3.361  1.00  0.00    -0.356 N
HETATM   25  C15 UNL     1       6.899  25.959   3.404  1.00  0.00     0.123 C
ATOM     26  H4  UNL     1       4.989  26.052   2.581  1.00  0.00     0.162 HD
HETATM   27  C16 UNL     1       7.500  25.792   4.774  1.00  0.00     0.026 C
ENDBRANCH   1  15
TORSDOF 7
ENDMDL