MODEL 2
REMARK VINA RESULT: -5.819386797      4.268      7.193
REMARK  7 active torsions:
REMARK  status: ('A' for Active; 'I' for Inactive)
REMARK    1  A    between atoms: S1_2  and  C2_5
REMARK    2  A    between atoms: C2_5  and  C3_6
REMARK    3  A    between atoms: C3_6  and  N1_7
REMARK    4  A    between atoms: N1_7  and  C4_8
REMARK    5  A    between atoms: C7_21  and  N6_22
REMARK    6  A    between atoms: N6_22  and  N7_23
REMARK    7  A    between atoms: N8_27  and  O3_29
ROOT
HETATM    1  C4  UNL     1      14.279  15.921  29.054  1.00  0.00     0.220 C
HETATM    2  N2  UNL     1      14.421  15.643  30.478  1.00  0.00    -0.162 N
ATOM      3  H2  UNL     1      15.171  14.999  30.727  1.00  0.00     0.187 HD
HETATM    4  C5  UNL     1      13.667  16.138  31.554  1.00  0.00     0.679 C
HETATM    5  N3  UNL     1      14.136  15.878  32.723  1.00  0.00    -0.234 N
ATOM      6  H31 UNL     1      13.589  16.238  33.504  1.00  0.00     0.174 HD
ATOM      7  H32 UNL     1      15.003  15.344  32.787  1.00  0.00     0.174 HD
HETATM    8  N4  UNL     1      12.438  16.895  31.463  1.00  0.00    -0.177 N
ATOM      9  H4  UNL     1      11.804  16.849  32.260  1.00  0.00     0.185 HD
HETATM   10  C6  UNL     1      12.071  17.620  30.468  1.00  0.00     0.148 C
HETATM   11  N5  UNL     1      10.924  18.439  30.164  1.00  0.00    -0.314 N
ATOM     12  H5  UNL     1      10.366  19.144  30.644  1.00  0.00     0.175 HD
HETATM   13  S2  UNL     1      10.931  17.654  28.572  1.00  0.00    -0.009 SA
HETATM   14  C7  UNL     1      12.604  18.000  29.167  1.00  0.00     0.224 C
HETATM   15  C8  UNL     1      13.684  17.206  28.595  1.00  0.00     0.136 C
HETATM   16  N8  UNL     1      14.221  17.661  27.536  1.00  0.00    -0.265 N
ATOM     17  H8  UNL     1      13.870  18.539  27.153  1.00  0.00     0.194 HD
ENDROOT
BRANCH   1  18
HETATM   18  N1  UNL     1      14.641  15.074  28.294  1.00  0.00    -0.400 NA
BRANCH  18  19
HETATM   19  C3  UNL     1      15.046  14.127  27.444  1.00  0.00     0.172 C
BRANCH  19  20
HETATM   20  C2  UNL     1      15.605  12.842  28.051  1.00  0.00     0.199 C
BRANCH  20  21
HETATM   21  S1  UNL     1      17.360  12.742  27.808  1.00  0.00     0.146 S
HETATM   22  C1  UNL     1      17.943  11.072  28.063  1.00  0.00     0.161 C
HETATM   23  O1  UNL     1      17.643  13.145  26.388  1.00  0.00    -0.228 OA
HETATM   24  O2  UNL     1      18.118  13.620  28.761  1.00  0.00    -0.228 OA
ENDBRANCH  20  21
ENDBRANCH  19  20
ENDBRANCH  18  19
ENDBRANCH   1  18
BRANCH  14  25
HETATM   25  N6  UNL     1      12.864  19.422  29.126  1.00  0.00    -0.110 NA
BRANCH  25  26
HETATM   26  N7  UNL     1      14.048  19.794  29.735  1.00  0.00    -0.346 N
ATOM     27  H72 UNL     1      14.694  19.110  30.129  1.00  0.00     0.172 HD
ATOM     28  H71 UNL     1      14.208  20.801  29.749  1.00  0.00     0.172 HD
ENDBRANCH  25  26
ENDBRANCH  14  25
BRANCH  16  29
HETATM   29  O3  UNL     1      15.227  17.042  26.897  1.00  0.00    -0.289 OA
ATOM     30  H3  UNL     1      15.322  17.042  25.952  1.00  0.00     0.244 HD
ENDBRANCH  16  29
TORSDOF 7
ENDMDL