MODEL 1
REMARK VINA RESULT: -7.341485997      0.000      0.000
REMARK  6 active torsions:
REMARK  status: ('A' for Active; 'I' for Inactive)
REMARK       I    between atoms: C1_4  and  N3_6
REMARK       I    between atoms: N3_6  and  C2_8
REMARK    1  A    between atoms: C2_8  and  C3_10
REMARK    2  A    between atoms: C5_14  and  S1_15
REMARK    3  A    between atoms: S1_15  and  C6_16
REMARK    4  A    between atoms: C6_16  and  C7_17
REMARK    5  A    between atoms: C8_24  and  N8_25
REMARK    6  A    between atoms: N9_28  and  N10_29
ROOT
HETATM    1  C3  UNL     1      13.686  19.592  29.384  1.00  0.00     0.215 A
HETATM    2  N4  UNL     1      14.377  18.524  28.921  1.00  0.00    -0.318 N
ATOM      3  H4  UNL     1      15.395  18.536  28.972  1.00  0.00     0.169 HD
HETATM    4  C4  UNL     1      13.763  17.441  28.392  1.00  0.00     0.180 A
HETATM    5  C5  UNL     1      14.209  16.246  27.859  1.00  0.00     0.130 A
HETATM    6  N5  UNL     1      13.152  15.515  27.475  1.00  0.00    -0.274 N
ATOM      7  H5  UNL     1      13.178  14.589  27.048  1.00  0.00     0.185 HD
HETATM    8  N6  UNL     1      12.071  16.224  27.755  1.00  0.00     0.003 NA
HETATM    9  N7  UNL     1      12.421  17.394  28.311  1.00  0.00    -0.050 N
HETATM   10  C8  UNL     1      11.724  18.447  28.767  1.00  0.00     0.720 A
HETATM   11  N9  UNL     1      12.346  19.522  29.292  1.00  0.00    -0.069 N
ENDROOT
BRANCH   1  12
HETATM   12  C2  UNL     1      14.338  20.757  29.952  1.00  0.00     0.294 C
HETATM   13  N3  UNL     1      15.209  21.581  29.199  1.00  0.00    -0.295 N
HETATM   14  C1  UNL     1      15.833  22.711  29.774  1.00  0.00     0.188 C
ATOM     15  H3  UNL     1      15.391  21.355  28.221  1.00  0.00     0.171 HD
HETATM   16  N1  UNL     1      16.614  23.419  29.035  1.00  0.00    -0.373 N
HETATM   17  N2  UNL     1      15.595  23.043  31.131  1.00  0.00    -0.064 NA
ATOM     18  H12 UNL     1      17.064  24.235  29.450  1.00  0.00     0.158 HD
ATOM     19  H11 UNL     1      16.785  23.180  28.058  1.00  0.00     0.158 HD
HETATM   20  O1  UNL     1      14.123  21.043  31.150  1.00  0.00    -0.264 OA
ENDBRANCH   1  12
BRANCH  11  21
HETATM   21  N10 UNL     1      11.585  20.616  29.764  1.00  0.00    -0.322 N
ATOM     22 2H10 UNL     1      11.913  21.569  29.608  1.00  0.00     0.178 HD
ATOM     23 1H10 UNL     1      10.714  20.420  30.256  1.00  0.00     0.178 HD
ENDBRANCH  11  21
BRANCH  10  24
HETATM   24  N8  UNL     1      10.450  18.396  28.688  1.00  0.00    -0.231 N
ATOM     25  H82 UNL     1       9.963  17.505  28.593  1.00  0.00     0.174 HD
ATOM     26  H81 UNL     1       9.936  19.277  28.721  1.00  0.00     0.174 HD
ENDBRANCH  10  24
BRANCH   5  27
HETATM   27  S1  UNL     1      15.928  15.800  27.729  1.00  0.00    -0.097 SA
BRANCH  27  28
HETATM   28  C6  UNL     1      16.089  14.082  28.338  1.00  0.00     0.194 C
BRANCH  28  29
HETATM   29  C7  UNL     1      17.377  13.515  27.912  1.00  0.00     0.182 C
HETATM   30  O2  UNL     1      18.326  13.302  28.712  1.00  0.00    -0.647 OA
HETATM   31  O3  UNL     1      17.574  13.196  26.582  1.00  0.00    -0.647 OA
ENDBRANCH  28  29
ENDBRANCH  27  28
ENDBRANCH   5  27
TORSDOF 6
ENDMDL