MODEL 5
REMARK VINA RESULT: -6.695105812      2.766      9.781
REMARK  8 active torsions:
REMARK  status: ('A' for Active; 'I' for Inactive)
REMARK    1  A    between atoms: N1_2  and  C2_5
REMARK    2  A    between atoms: C2_5  and  O1_6
REMARK    3  A    between atoms: C2_5  and  C3_8
REMARK    4  A    between atoms: C3_8  and  O2_9
REMARK    5  A    between atoms: C3_8  and  C5_13
REMARK    6  A    between atoms: C6_14  and  C7_15
REMARK    7  A    between atoms: C9_19  and  C10_20
REMARK       I    between atoms: C10_20  and  N4_22
REMARK       I    between atoms: N4_22  and  C11_24
REMARK       I    between atoms: C11_24  and  N5_25
REMARK       I    between atoms: C11_24  and  N6_29
REMARK    8  A    between atoms: C12_33  and  O4_34
ROOT
HETATM    1  C3  UNL     1      16.286  12.006  27.419  1.00  0.00     0.263 C
HETATM    2  C4  UNL     1      15.941  11.146  28.547  1.00  0.00     0.116 C
HETATM    3  N2  UNL     1      15.655  10.469  29.426  1.00  0.00    -0.193 NA
ENDROOT
BRANCH   1   4
HETATM    4  C2  UNL     1      15.390  11.724  26.243  1.00  0.00     0.381 C
BRANCH   4   5
HETATM    5  N1  UNL     1      14.469  10.644  26.472  1.00  0.00    -0.048 N
HETATM    6  C1  UNL     1      13.144  11.136  26.100  1.00  0.00     0.270 C
ATOM      7  H12 UNL     1      14.509  10.275  27.422  1.00  0.00     0.279 HD
ATOM      8  H11 UNL     1      14.728   9.784  25.989  1.00  0.00     0.279 HD
ENDBRANCH   4   5
BRANCH   4   9
HETATM    9  O1  UNL     1      16.218  11.427  25.153  1.00  0.00    -0.366 OA
ATOM     10  H1  UNL     1      15.695  11.142  24.413  1.00  0.00     0.212 HD
ENDBRANCH   4   9
ENDBRANCH   1   4
BRANCH   1  11
HETATM   11  O2  UNL     1      17.605  11.823  27.075  1.00  0.00    -0.362 OA
ATOM     12  H2  UNL     1      18.166  11.948  27.831  1.00  0.00     0.213 HD
ENDBRANCH   1  11
BRANCH   1  13
HETATM   13  C5  UNL     1      16.090  13.409  27.794  1.00  0.00    -0.040 C
HETATM   14  C6  UNL     1      15.950  14.564  28.103  1.00  0.00    -0.026 C
BRANCH  14  15
HETATM   15  C7  UNL     1      15.770  15.969  28.452  1.00  0.00     0.163 A
HETATM   16  N3  UNL     1      14.989  16.326  29.478  1.00  0.00    -0.344 N
HETATM   17  C8  UNL     1      14.779  17.567  29.853  1.00  0.00     0.111 A
ATOM     18  H3  UNL     1      14.526  15.584  30.005  1.00  0.00     0.167 HD
HETATM   19  C9  UNL     1      15.399  18.630  29.155  1.00  0.00     0.098 A
HETATM   20  C12 UNL     1      16.190  18.233  28.113  1.00  0.00     0.159 A
HETATM   21  N7  UNL     1      16.381  16.927  27.756  1.00  0.00    -0.315 N
ATOM     22  H7  UNL     1      16.983  16.689  26.968  1.00  0.00     0.170 HD
BRANCH  19  23
HETATM   23  C10 UNL     1      15.167  19.991  29.569  1.00  0.00     0.260 C
HETATM   24  O3  UNL     1      14.687  20.136  30.764  1.00  0.00    -0.267 OA
HETATM   25  N4  UNL     1      15.394  21.156  28.842  1.00  0.00    -0.307 N
HETATM   26  C11 UNL     1      15.093  22.470  29.435  1.00  0.00     0.483 C
ATOM     27  H4  UNL     1      15.770  21.099  27.896  1.00  0.00     0.166 HD
HETATM   28  N5  UNL     1      14.000  23.034  28.647  1.00  0.00    -0.033 N
HETATM   29  N6  UNL     1      16.250  23.319  29.440  1.00  0.00    -0.033 N
ATOM     30  H53 UNL     1      14.200  23.076  27.648  1.00  0.00     0.278 HD
ATOM     31  H52 UNL     1      13.187  22.421  28.586  1.00  0.00     0.278 HD
ATOM     32  H51 UNL     1      13.791  23.944  29.057  1.00  0.00     0.278 HD
ATOM     33  H63 UNL     1      17.040  22.871  29.906  1.00  0.00     0.278 HD
ATOM     34  H62 UNL     1      16.650  23.412  28.507  1.00  0.00     0.278 HD
ATOM     35  H61 UNL     1      16.041  24.229  29.850  1.00  0.00     0.278 HD
ENDBRANCH  19  23
BRANCH  20  36
HETATM   36  O4  UNL     1      16.849  19.210  27.357  1.00  0.00    -0.345 OA
ATOM     37  H4  UNL     1      16.336  19.775  26.793  1.00  0.00     0.219 HD
ENDBRANCH  20  36
ENDBRANCH  14  15
ENDBRANCH   1  13
TORSDOF 8
ENDMDL