MODEL 2
REMARK VINA RESULT: -6.651188283      3.342      8.935
REMARK  6 active torsions:
REMARK  status: ('A' for Active; 'I' for Inactive)
REMARK    1  A    between atoms: O1_2  and  N1_3
REMARK       I    between atoms: N1_3  and  C2_5
REMARK    2  A    between atoms: C2_5  and  C3_7
REMARK    3  A    between atoms: N2_9  and  N3_11
REMARK    4  A    between atoms: N3_11  and  C5_13
REMARK    5  A    between atoms: C6_17  and  C7_18
REMARK       I    between atoms: C7_18  and  N5_20
REMARK       I    between atoms: N5_20  and  C8_22
REMARK    6  A    between atoms: N8_28  and  O4_30
ROOT
HETATM    1  C5  UNL     1      14.358  20.158  30.238  1.00  0.00     0.369 C
HETATM    2  N4  UNL     1      13.407  21.187  29.967  1.00  0.00    -0.025 N
ATOM      3  H41 UNL     1      12.537  21.038  30.479  1.00  0.00     0.282 HD
ATOM      4  H42 UNL     1      13.042  21.118  29.017  1.00  0.00     0.282 HD
HETATM    5  C6  UNL     1      13.955  22.482  30.228  1.00  0.00     0.339 C
HETATM    6  C9  UNL     1      15.282  22.578  29.621  1.00  0.00     0.112 C
HETATM    7  N8  UNL     1      15.918  23.616  29.330  1.00  0.00    -0.264 N
ATOM      8  H8  UNL     1      15.462  24.505  29.539  1.00  0.00     0.194 HD
HETATM    9  S1  UNL     1      15.812  20.902  29.377  1.00  0.00    -0.057 SA
ENDROOT
BRANCH   1  10
HETATM   10  N3  UNL     1      13.984  18.924  29.640  1.00  0.00    -0.297 N
ATOM     11  H3  UNL     1      13.004  18.642  29.663  1.00  0.00     0.183 HD
BRANCH  10  12
HETATM   12  N2  UNL     1      14.907  18.089  29.027  1.00  0.00    -0.301 N
HETATM   13  C3  UNL     1      14.642  17.204  28.128  1.00  0.00     0.091 C
HETATM   14  C4  UNL     1      13.279  16.949  27.612  1.00  0.00     0.076 C
ATOM     15  H2  UNL     1      15.881  18.184  29.313  1.00  0.00     0.186 HD
BRANCH  13  16
HETATM   16  C2  UNL     1      15.754  16.428  27.609  1.00  0.00     0.288 C
HETATM   17  N1  UNL     1      16.355  15.447  28.410  1.00  0.00    -0.230 N
ATOM     18  H1  UNL     1      15.986  15.306  29.349  1.00  0.00     0.197 HD
HETATM   19  O2  UNL     1      16.202  16.603  26.454  1.00  0.00    -0.264 OA
BRANCH  17  20
HETATM   20  O1  UNL     1      17.393  14.677  28.014  1.00  0.00    -0.282 OA
HETATM   21  C1  UNL     1      17.038  13.334  28.082  1.00  0.00     0.237 C
ENDBRANCH  17  20
ENDBRANCH  13  16
ENDBRANCH  10  12
ENDBRANCH   1  10
BRANCH   5  22
HETATM   22  C7  UNL     1      13.875  22.858  31.637  1.00  0.00     0.261 C
HETATM   23  O3  UNL     1      14.892  23.211  32.256  1.00  0.00    -0.270 OA
HETATM   24  N5  UNL     1      12.629  22.822  32.311  1.00  0.00    -0.299 N
HETATM   25  C8  UNL     1      12.513  23.176  33.672  1.00  0.00     0.188 C
ATOM     26  H5  UNL     1      11.795  22.533  31.800  1.00  0.00     0.171 HD
HETATM   27  N6  UNL     1      11.387  23.142  34.277  1.00  0.00    -0.373 N
HETATM   28  N7  UNL     1      13.667  23.572  34.377  1.00  0.00    -0.064 NA
ATOM     29  H62 UNL     1      10.552  22.856  33.766  1.00  0.00     0.158 HD
ATOM     30  H61 UNL     1      11.304  23.398  35.260  1.00  0.00     0.158 HD
ENDBRANCH   5  22
BRANCH   7  31
HETATM   31  O4  UNL     1      17.156  23.681  28.763  1.00  0.00    -0.289 OA
ATOM     32  H4  UNL     1      17.601  24.463  28.459  1.00  0.00     0.244 HD
ENDBRANCH   7  31
TORSDOF 6
ENDMDL