MODEL 5
REMARK VINA RESULT: -6.236652004      1.635      2.826
REMARK  8 active torsions:
REMARK  status: ('A' for Active; 'I' for Inactive)
REMARK    1  A    between atoms: N1_2  and  O1_3
REMARK       I    between atoms: N1_2  and  C4_13
REMARK    2  A    between atoms: O1_3  and  C2_4
REMARK    3  A    between atoms: C2_4  and  C3_6
REMARK    4  A    between atoms: C3_6  and  N2_7
REMARK    5  A    between atoms: C3_6  and  O3_11
REMARK       I    between atoms: C4_13  and  N4_17
REMARK       I    between atoms: N4_17  and  C5_19
REMARK    6  A    between atoms: C5_19  and  C6_21
REMARK    7  A    between atoms: C9_30  and  C10_31
REMARK    8  A    between atoms: C10_31  and  O6_33
ROOT
HETATM    1  C1  UNL     1      16.133  15.901  27.939  1.00  0.00     0.206 C
HETATM    2  N1  UNL     1      14.911  16.209  28.649  1.00  0.00    -0.084 N
HETATM    3  C4  UNL     1      13.982  17.084  28.042  1.00  0.00     0.700 C
HETATM    4  N3  UNL     1      13.139  16.591  27.209  1.00  0.00    -0.233 N
ATOM      5  H31 UNL     1      12.469  17.223  26.771  1.00  0.00     0.174 HD
ATOM      6  H32 UNL     1      13.175  15.590  27.021  1.00  0.00     0.174 HD
HETATM    7  N4  UNL     1      13.933  18.473  28.303  1.00  0.00    -0.153 N
ATOM      8  H4  UNL     1      13.229  19.037  27.826  1.00  0.00     0.187 HD
HETATM    9  C5  UNL     1      14.840  19.122  29.217  1.00  0.00     0.287 C
HETATM   10  O4  UNL     1      15.658  18.372  29.751  1.00  0.00    -0.265 OA
ENDROOT
BRANCH   9  11
HETATM   11  C6  UNL     1      14.655  20.549  29.364  1.00  0.00     0.123 A
HETATM   12  N5  UNL     1      15.796  21.315  29.306  1.00  0.00    -0.303 N
HETATM   13  C7  UNL     1      15.781  22.629  29.434  1.00  0.00     0.326 A
ATOM     14  H5  UNL     1      16.691  20.848  29.159  1.00  0.00     0.171 HD
HETATM   15  O5  UNL     1      16.894  23.240  29.363  1.00  0.00    -0.247 OA
HETATM   16  N6  UNL     1      14.651  23.314  29.628  1.00  0.00    -0.296 N
HETATM   17  C8  UNL     1      13.524  22.605  29.692  1.00  0.00     0.136 A
ATOM     18  H6  UNL     1      14.650  24.329  29.723  1.00  0.00     0.171 HD
HETATM   19  N7  UNL     1      12.301  23.323  29.901  1.00  0.00    -0.081 NA
HETATM   20  C9  UNL     1      13.475  21.193  29.565  1.00  0.00     0.085 A
BRANCH  20  21
HETATM   21  C10 UNL     1      12.173  20.579  29.715  1.00  0.00     0.165 C
HETATM   22  N8  UNL     1      11.724  19.638  30.637  1.00  0.00    -0.074 NA
BRANCH  21  23
HETATM   23  O6  UNL     1      11.249  20.943  28.874  1.00  0.00    -0.348 OA
ATOM     24  H6  UNL     1      10.361  20.996  29.206  1.00  0.00     0.219 HD
ENDBRANCH  21  23
ENDBRANCH  20  21
ENDBRANCH   9  11
BRANCH   2  25
HETATM   25  O1  UNL     1      14.711  15.645  29.864  1.00  0.00    -0.179 OA
BRANCH  25  26
HETATM   26  C2  UNL     1      13.528  15.423  30.509  1.00  0.00     0.338 C
HETATM   27  O2  UNL     1      12.745  14.575  30.058  1.00  0.00    -0.258 OA
BRANCH  26  28
HETATM   28  C3  UNL     1      13.206  16.209  31.747  1.00  0.00     0.419 C
BRANCH  28  29
HETATM   29  N2  UNL     1      14.041  15.772  32.835  1.00  0.00    -0.043 N
ATOM     30  H23 UNL     1      14.301  14.789  32.747  1.00  0.00     0.278 HD
ATOM     31  H22 UNL     1      14.975  16.177  32.788  1.00  0.00     0.278 HD
ATOM     32  H21 UNL     1      13.582  15.969  33.725  1.00  0.00     0.278 HD
ENDBRANCH  28  29
BRANCH  28  33
HETATM   33  O3  UNL     1      13.412  17.558  31.468  1.00  0.00    -0.362 OA
ATOM     34  H3  UNL     1      12.568  17.994  31.484  1.00  0.00     0.212 HD
ENDBRANCH  28  33
ENDBRANCH  26  28
ENDBRANCH  25  26
ENDBRANCH   2  25
TORSDOF 8
ENDMDL