MODEL 5
REMARK VINA RESULT: -7.354560259      4.063      6.977
REMARK  4 active torsions:
REMARK  status: ('A' for Active; 'I' for Inactive)
REMARK    1  A    between atoms: C4_11  and  N4_12
REMARK       I    between atoms: N4_12  and  C5_14
REMARK       I    between atoms: C5_14  and  N5_16
REMARK       I    between atoms: N5_16  and  C6_18
REMARK    2  A    between atoms: C6_18  and  C7_20
REMARK    3  A    between atoms: C7_20  and  C8_25
REMARK    4  A    between atoms: N6_21  and  O5_23
ROOT
HETATM    1  N4  UNL     1      14.102  22.490  29.998  1.00  0.00    -0.301 N
ATOM      2  H4  UNL     1      13.326  21.835  30.090  1.00  0.00     0.171 HD
HETATM    3  C5  UNL     1      15.309  22.086  29.422  1.00  0.00     0.327 C
HETATM    4  O3  UNL     1      16.273  22.946  29.319  1.00  0.00    -0.247 OA
HETATM    5  N5  UNL     1      15.574  20.820  28.938  1.00  0.00    -0.273 N
ATOM      6  H5  UNL     1      16.502  20.669  28.542  1.00  0.00     0.173 HD
HETATM    7  C6  UNL     1      14.700  19.718  28.932  1.00  0.00     0.281 C
HETATM    8  O4  UNL     1      13.523  19.706  29.371  1.00  0.00    -0.265 OA
ENDROOT
BRANCH   7   9
HETATM    9  C7  UNL     1      15.142  18.424  28.372  1.00  0.00     0.169 C
HETATM   10  N6  UNL     1      15.613  18.423  27.189  1.00  0.00    -0.260 N
ATOM     11  H6  UNL     1      15.655  19.318  26.701  1.00  0.00     0.194 HD
BRANCH  10  12
HETATM   12  O5  UNL     1      16.061  17.330  26.527  1.00  0.00    -0.289 OA
ATOM     13  H5  UNL     1      15.833  16.431  26.735  1.00  0.00     0.244 HD
ENDBRANCH  10  12
BRANCH   9  14
HETATM   14  C8  UNL     1      15.021  17.237  29.188  1.00  0.00     0.172 A
HETATM   15  N7  UNL     1      15.149  15.951  28.844  1.00  0.00    -0.267 N
HETATM   16  N8  UNL     1      14.958  15.193  29.907  1.00  0.00    -0.227 N
ATOM     17  H7  UNL     1      15.360  15.609  27.906  1.00  0.00     0.190 HD
HETATM   18  N9  UNL     1      14.707  15.995  30.934  1.00  0.00    -0.227 N
ATOM     19  H8  UNL     1      14.996  14.174  29.935  1.00  0.00     0.210 HD
HETATM   20  N10 UNL     1      14.743  17.234  30.514  1.00  0.00    -0.267 N
ATOM     21  H9  UNL     1      14.518  15.695  31.890  1.00  0.00     0.210 HD
ATOM     22  H10 UNL     1      14.587  18.061  31.089  1.00  0.00     0.190 HD
ENDBRANCH   9  14
ENDBRANCH   7   9
BRANCH   1  23
HETATM   23  C4  UNL     1      13.973  23.856  30.462  1.00  0.00     0.146 A
HETATM   24  C1  UNL     1      13.294  24.723  29.627  1.00  0.00     0.152 A
HETATM   25  N1  UNL     1      12.743  24.318  28.383  1.00  0.00    -0.080 NA
HETATM   26  N2  UNL     1      13.179  25.999  30.070  1.00  0.00    -0.295 N
HETATM   27  C2  UNL     1      13.696  26.393  31.248  1.00  0.00     0.328 A
ATOM     28  H2  UNL     1      12.686  26.680  29.493  1.00  0.00     0.172 HD
HETATM   29  O1  UNL     1      13.547  27.593  31.584  1.00  0.00    -0.247 OA
HETATM   30  N3  UNL     1      14.358  25.546  32.056  1.00  0.00    -0.273 N
HETATM   31  C3  UNL     1      14.496  24.271  31.659  1.00  0.00     0.279 A
ATOM     32  H3  UNL     1      14.744  25.863  32.945  1.00  0.00     0.173 HD
HETATM   33  O2  UNL     1      15.107  23.458  32.392  1.00  0.00    -0.265 OA
ENDBRANCH   1  23
TORSDOF 4
ENDMDL