MODEL 4
REMARK VINA RESULT: -6.652413725      2.264      9.812
REMARK  11 active torsions:
REMARK  status: ('A' for Active; 'I' for Inactive)
REMARK    1  A    between atoms: N1_1  and  C1_5
REMARK    2  A    between atoms: C1_5  and  N2_6
REMARK    3  A    between atoms: C1_5  and  C7_26
REMARK    4  A    between atoms: N2_6  and  C2_8
REMARK    5  A    between atoms: C3_11  and  C4_12
REMARK    6  A    between atoms: C4_12  and  N4_13
REMARK    7  A    between atoms: C4_12  and  C5_17
REMARK    8  A    between atoms: C5_17  and  N5_18
REMARK    9  A    between atoms: C5_17  and  O1_22
REMARK       I    between atoms: C7_26  and  N6_28
REMARK   10  A    between atoms: N6_28  and  N7_30
REMARK   11  A    between atoms: N7_30  and  C8_32
ROOT
HETATM    1  C1  UNL     1      14.860  17.949  28.479  1.00  0.00     0.378 C
ENDROOT
BRANCH   1   2
HETATM    2  N1  UNL     1      14.156  17.713  27.243  1.00  0.00    -0.049 N
ATOM      3  H13 UNL     1      13.279  17.228  27.434  1.00  0.00     0.277 HD
ATOM      4  H12 UNL     1      13.804  18.596  26.874  1.00  0.00     0.277 HD
ATOM      5  H11 UNL     1      14.672  17.217  26.516  1.00  0.00     0.277 HD
ENDBRANCH   1   2
BRANCH   1   6
HETATM    6  N2  UNL     1      15.664  16.913  28.939  1.00  0.00    -0.336 N
ATOM      7  H2  UNL     1      16.390  17.227  29.583  1.00  0.00     0.164 HD
BRANCH   6   8
HETATM    8  C2  UNL     1      15.692  15.647  28.730  1.00  0.00     0.146 A
HETATM    9  N3  UNL     1      16.593  14.855  28.156  1.00  0.00    -0.338 N
HETATM   10  C3  UNL     1      16.361  13.578  28.066  1.00  0.00     0.052 A
ATOM     11  H3  UNL     1      17.461  15.246  27.789  1.00  0.00     0.168 HD
HETATM   12  C6  UNL     1      15.188  13.094  28.570  1.00  0.00     0.080 A
HETATM   13  S1  UNL     1      14.451  14.508  29.163  1.00  0.00    -0.064 SA
BRANCH  10  14
HETATM   14  C4  UNL     1      17.345  12.622  27.415  1.00  0.00     0.289 C
BRANCH  14  15
HETATM   15  N4  UNL     1      18.374  12.235  28.347  1.00  0.00    -0.065 N
ATOM     16  H43 UNL     1      19.036  11.581  27.929  1.00  0.00     0.275 HD
ATOM     17  H42 UNL     1      19.018  13.002  28.538  1.00  0.00     0.275 HD
ATOM     18  H41 UNL     1      17.965  11.863  29.204  1.00  0.00     0.275 HD
ENDBRANCH  14  15
BRANCH  14  19
HETATM   19  C5  UNL     1      16.585  11.438  26.863  1.00  0.00     0.352 C
BRANCH  19  20
HETATM   20  N5  UNL     1      17.276  10.203  27.173  1.00  0.00    -0.051 N
ATOM     21  H53 UNL     1      16.635   9.410  27.211  1.00  0.00     0.277 HD
ATOM     22  H52 UNL     1      17.859   9.890  26.396  1.00  0.00     0.277 HD
ATOM     23  H51 UNL     1      17.811  10.301  28.035  1.00  0.00     0.277 HD
ENDBRANCH  19  20
BRANCH  19  24
HETATM   24  O1  UNL     1      16.482  11.586  25.484  1.00  0.00    -0.368 OA
ATOM     25  H1  UNL     1      15.995  10.847  25.139  1.00  0.00     0.212 HD
ENDBRANCH  19  24
ENDBRANCH  14  19
ENDBRANCH  10  14
ENDBRANCH   6   8
ENDBRANCH   1   6
BRANCH   1  26
HETATM   26  C7  UNL     1      15.584  19.238  28.480  1.00  0.00     0.286 C
HETATM   27  O2  UNL     1      16.203  19.625  27.462  1.00  0.00    -0.267 OA
HETATM   28  N6  UNL     1      15.595  20.067  29.626  1.00  0.00    -0.252 N
ATOM     29  H6  UNL     1      15.098  19.765  30.465  1.00  0.00     0.190 HD
BRANCH  28  30
HETATM   30  N7  UNL     1      16.270  21.287  29.638  1.00  0.00    -0.128 N
ATOM     31  H7  UNL     1      17.241  21.305  29.326  1.00  0.00     0.205 HD
BRANCH  30  32
HETATM   32  C8  UNL     1      15.678  22.501  30.061  1.00  0.00     0.707 A
HETATM   33  N8  UNL     1      14.926  22.588  31.096  1.00  0.00    -0.222 N
HETATM   34  C9  UNL     1      14.281  23.739  31.615  1.00  0.00     0.159 A
ATOM     35  H8  UNL     1      14.772  21.721  31.611  1.00  0.00     0.177 HD
HETATM   36  C10 UNL     1      14.528  24.996  30.853  1.00  0.00     0.160 A
HETATM   37  N9  UNL     1      15.366  24.810  29.729  1.00  0.00    -0.321 N
HETATM   38  N10 UNL     1      15.873  23.742  29.368  1.00  0.00    -0.135 N
ATOM     39  H9  UNL     1      15.570  25.634  29.164  1.00  0.00     0.180 HD
ATOM     40  H10 UNL     1      16.461  23.743  28.535  1.00  0.00     0.205 HD
ENDBRANCH  30  32
ENDBRANCH  28  30
ENDBRANCH   1  26
TORSDOF 11
ENDMDL