MODEL 2
REMARK VINA RESULT: -6.435871336      0.919      1.344
REMARK  9 active torsions:
REMARK  status: ('A' for Active; 'I' for Inactive)
REMARK    1  A    between atoms: C2_2  and  N1_3
REMARK    2  A    between atoms: C2_2  and  N2_7
REMARK    3  A    between atoms: C2_2  and  C3_11
REMARK    4  A    between atoms: C3_11  and  O2_13
REMARK    5  A    between atoms: O2_13  and  C4_14
REMARK    6  A    between atoms: C9_29  and  N8_30
REMARK    7  A    between atoms: N8_30  and  C10_32
REMARK    8  A    between atoms: C10_32  and  C11_33
REMARK    9  A    between atoms: C11_33  and  N9_34
ROOT
HETATM    1  C4  UNL     1      14.252  20.793  29.845  1.00  0.00     0.286 A
HETATM    2  N3  UNL     1      12.929  20.738  30.295  1.00  0.00    -0.332 N
ATOM      3  H3  UNL     1      12.603  21.489  30.903  1.00  0.00     0.165 HD
HETATM    4  C5  UNL     1      12.103  19.815  29.997  1.00  0.00     0.191 A
HETATM    5  N4  UNL     1      10.763  19.832  30.500  1.00  0.00    -0.063 NA
HETATM    6  N5  UNL     1      12.444  18.714  29.155  1.00  0.00    -0.326 N
ATOM      7  H5  UNL     1      11.768  17.985  28.930  1.00  0.00     0.169 HD
HETATM    8  C6  UNL     1      13.784  18.679  28.641  1.00  0.00     0.106 A
HETATM    9  C7  UNL     1      14.638  19.684  28.981  1.00  0.00     0.093 A
HETATM   10  N6  UNL     1      15.893  19.594  28.463  1.00  0.00    -0.306 N
ATOM     11  H6  UNL     1      16.581  20.316  28.680  1.00  0.00     0.170 HD
HETATM   12  C8  UNL     1      16.234  18.575  27.674  1.00  0.00     0.326 A
HETATM   13  O3  UNL     1      17.412  18.531  27.212  1.00  0.00    -0.247 OA
HETATM   14  N7  UNL     1      15.400  17.582  27.333  1.00  0.00    -0.293 N
ATOM     15  H7  UNL     1      15.711  16.825  26.725  1.00  0.00     0.172 HD
HETATM   16  C9  UNL     1      14.154  17.609  27.808  1.00  0.00     0.134 A
ENDROOT
BRANCH   1  17
HETATM   17  O2  UNL     1      14.624  22.056  29.304  1.00  0.00    -0.286 OA
BRANCH  17  18
HETATM   18  C3  UNL     1      15.383  22.998  29.933  1.00  0.00     0.326 C
HETATM   19  O1  UNL     1      16.577  22.703  30.223  1.00  0.00    -0.260 OA
BRANCH  18  20
HETATM   20  C2  UNL     1      14.782  24.324  30.251  1.00  0.00     0.364 C
HETATM   21  C1  UNL     1      13.292  24.320  29.915  1.00  0.00     0.090 C
BRANCH  20  22
HETATM   22  N1  UNL     1      14.995  24.679  31.644  1.00  0.00    -0.036 N
ATOM     23  H13 UNL     1      15.457  25.584  31.737  1.00  0.00     0.278 HD
ATOM     24  H12 UNL     1      14.120  24.905  32.115  1.00  0.00     0.278 HD
ATOM     25  H11 UNL     1      15.507  23.944  32.131  1.00  0.00     0.278 HD
ENDBRANCH  20  22
BRANCH  20  26
HETATM   26  N2  UNL     1      15.382  25.380  29.457  1.00  0.00    -0.036 N
ATOM     27  H23 UNL     1      14.952  25.488  28.538  1.00  0.00     0.278 HD
ATOM     28  H22 UNL     1      15.174  26.316  29.805  1.00  0.00     0.278 HD
ATOM     29  H21 UNL     1      16.381  25.180  29.413  1.00  0.00     0.278 HD
ENDBRANCH  20  26
ENDBRANCH  18  20
ENDBRANCH  17  18
ENDBRANCH   1  17
BRANCH  16  30
HETATM   30  N8  UNL     1      13.300  16.714  27.539  1.00  0.00    -0.373 N
ATOM     31  H8  UNL     1      12.326  16.953  27.723  1.00  0.00     0.161 HD
BRANCH  30  32
HETATM   32  C10 UNL     1      13.535  15.420  27.011  1.00  0.00     0.148 C
BRANCH  32  33
HETATM   33  C11 UNL     1      12.404  14.862  26.195  1.00  0.00     0.249 C
BRANCH  33  34
HETATM   34  N9  UNL     1      12.046  15.891  25.207  1.00  0.00    -0.078 N
ATOM     35  H93 UNL     1      11.086  16.221  25.300  1.00  0.00     0.274 HD
ATOM     36  H92 UNL     1      12.506  16.785  25.373  1.00  0.00     0.274 HD
ATOM     37  H91 UNL     1      12.249  15.498  24.287  1.00  0.00     0.274 HD
ENDBRANCH  33  34
ENDBRANCH  32  33
ENDBRANCH  30  32
ENDBRANCH  16  30
TORSDOF 9
ENDMDL