MODEL 3
REMARK VINA RESULT: -6.944060264      4.507      8.919
REMARK  7 active torsions:
REMARK  status: ('A' for Active; 'I' for Inactive)
REMARK       I    between atoms: N1_1  and  C1_5
REMARK       I    between atoms: C1_5  and  N2_6
REMARK       I    between atoms: C1_5  and  N3_10
REMARK    1  A    between atoms: N3_10  and  C2_12
REMARK    2  A    between atoms: C4_14  and  N4_15
REMARK    3  A    between atoms: N5_17  and  N6_19
REMARK    4  A    between atoms: N6_19  and  C5_21
REMARK    5  A    between atoms: C7_25  and  O1_26
REMARK    6  A    between atoms: C8_31  and  N9_32
REMARK    7  A    between atoms: N9_32  and  C9_34
ROOT
HETATM    1  C2  UNL     1      14.165  16.053  26.980  1.00  0.00     0.123 A
HETATM    2  C3  UNL     1      14.875  14.962  27.491  1.00  0.00     0.099 A
HETATM    3  C4  UNL     1      16.082  15.179  28.104  1.00  0.00     0.140 A
HETATM    4  N8  UNL     1      16.581  16.414  28.216  1.00  0.00    -0.175 N
ATOM      5  H8  UNL     1      17.481  16.554  28.676  1.00  0.00     0.186 HD
HETATM    6  C8  UNL     1      15.913  17.470  27.730  1.00  0.00     0.688 A
HETATM    7  N12 UNL     1      14.731  17.263  27.128  1.00  0.00    -0.176 N
ATOM      8  H12 UNL     1      14.232  18.074  26.762  1.00  0.00     0.186 HD
ENDROOT
BRANCH   3   9
HETATM    9  N4  UNL     1      16.788  14.037  28.620  1.00  0.00    -0.270 N
HETATM   10  N5  UNL     1      17.618  13.490  27.835  1.00  0.00    -0.238 N
ATOM     11  H5  UNL     1      17.743  13.874  26.899  1.00  0.00     0.208 HD
ATOM     12  H4  UNL     1      16.631  13.688  29.565  1.00  0.00     0.190 HD
BRANCH  10  13
HETATM   13  N6  UNL     1      18.358  12.384  28.214  1.00  0.00    -0.251 N
ATOM     14  H6  UNL     1      19.360  12.484  28.383  1.00  0.00     0.192 HD
BRANCH  13  15
HETATM   15  C5  UNL     1      17.736  11.096  28.371  1.00  0.00     0.237 C
HETATM   16  N7  UNL     1      18.205   9.967  28.012  1.00  0.00    -0.350 N
HETATM   17  C6  UNL     1      17.262   8.927  28.356  1.00  0.00     0.184 C
ATOM     18  H7  UNL     1      19.105   9.820  27.553  1.00  0.00     0.163 HD
HETATM   19  C7  UNL     1      16.391   9.573  29.388  1.00  0.00     0.284 C
HETATM   20  O2  UNL     1      16.472  10.947  28.975  1.00  0.00    -0.288 OA
BRANCH  19  21
HETATM   21  O1  UNL     1      16.933   9.532  30.669  1.00  0.00    -0.369 OA
ATOM     22  H1  UNL     1      16.711  10.292  31.196  1.00  0.00     0.212 HD
ENDBRANCH  19  21
ENDBRANCH  13  15
ENDBRANCH  10  13
ENDBRANCH   3   9
BRANCH   1  23
HETATM   23  N3  UNL     1      13.031  15.846  26.403  1.00  0.00    -0.327 N
HETATM   24  C1  UNL     1      11.873  16.610  26.783  1.00  0.00     0.481 C
HETATM   25  N1  UNL     1      11.389  16.103  28.055  1.00  0.00    -0.033 N
HETATM   26  N2  UNL     1      10.813  16.441  25.802  1.00  0.00    -0.033 N
ATOM     27  H13 UNL     1      10.512  16.533  28.344  1.00  0.00     0.278 HD
ATOM     28  H12 UNL     1      11.056  15.141  27.995  1.00  0.00     0.278 HD
ATOM     29  H11 UNL     1      12.132  16.221  28.744  1.00  0.00     0.278 HD
ATOM     30  H23 UNL     1      10.479  15.479  25.742  1.00  0.00     0.278 HD
ATOM     31  H22 UNL     1       9.935  16.872  26.091  1.00  0.00     0.278 HD
ATOM     32  H21 UNL     1      11.152  16.797  24.908  1.00  0.00     0.278 HD
ATOM     33  H3  UNL     1      12.954  15.137  25.675  1.00  0.00     0.164 HD
ENDBRANCH   1  23
BRANCH   6  34
HETATM   34  N9  UNL     1      16.437  18.636  27.863  1.00  0.00    -0.161 N
ATOM     35  H9  UNL     1      17.247  18.887  27.295  1.00  0.00     0.187 HD
BRANCH  34  36
HETATM   36  C9  UNL     1      15.915  19.581  28.780  1.00  0.00     0.190 C
HETATM   37  N10 UNL     1      15.823  20.865  28.596  1.00  0.00    -0.360 N
HETATM   38  C10 UNL     1      15.237  21.507  29.749  1.00  0.00     0.142 C
ATOM     39  H10 UNL     1      16.124  21.352  27.752  1.00  0.00     0.162 HD
HETATM   40  C11 UNL     1      14.573  20.368  30.468  1.00  0.00     0.142 C
HETATM   41  N11 UNL     1      15.401  19.237  30.070  1.00  0.00    -0.360 N
ATOM     42  H11 UNL     1      15.576  18.383  30.598  1.00  0.00     0.162 HD
ENDBRANCH  34  36
ENDBRANCH   6  34
TORSDOF 7
ENDMDL