MODEL 5
REMARK VINA RESULT: -6.617344251      1.366      1.613
REMARK  8 active torsions:
REMARK  status: ('A' for Active; 'I' for Inactive)
REMARK    1  A    between atoms: O1_2  and  N1_3
REMARK       I    between atoms: N1_3  and  C2_5
REMARK    2  A    between atoms: C2_5  and  C3_7
REMARK    3  A    between atoms: C3_7  and  N2_8
REMARK    4  A    between atoms: C4_11  and  N4_12
REMARK       I    between atoms: N5_14  and  C5_16
REMARK    5  A    between atoms: C5_16  and  C6_18
REMARK    6  A    between atoms: C8_23  and  N8_24
REMARK    7  A    between atoms: C9_29  and  N10_30
REMARK    8  A    between atoms: N11_33  and  N12_34
ROOT
HETATM    1  N4  UNL     1      18.552  32.688  20.125  1.00  0.00    -0.126 N
ATOM      2  H4  UNL     1      18.745  32.430  19.157  1.00  0.00     0.206 HD
HETATM    3  N5  UNL     1      19.516  32.845  20.912  1.00  0.00    -0.251 N
ATOM      4  H5  UNL     1      19.324  33.103  21.881  1.00  0.00     0.191 HD
HETATM    5  C5  UNL     1      20.855  32.677  20.506  1.00  0.00     0.277 C
HETATM    6  O3  UNL     1      21.198  31.620  19.893  1.00  0.00    -0.266 OA
ENDROOT
BRANCH   1   7
HETATM    7  C4  UNL     1      17.185  32.859  20.536  1.00  0.00     0.737 A
HETATM    8  N3  UNL     1      16.673  33.860  21.289  1.00  0.00    -0.122 N
HETATM    9  N2  UNL     1      15.377  33.665  21.451  1.00  0.00    -0.217 N
ATOM     10  H3  UNL     1      17.205  34.642  21.671  1.00  0.00     0.206 HD
HETATM   11  C10 UNL     1      15.100  32.520  20.780  1.00  0.00     0.377 A
HETATM   12  N11 UNL     1      16.195  32.005  20.208  1.00  0.00    -0.034 N
HETATM   13  O4  UNL     1      13.925  32.059  20.745  1.00  0.00    -0.242 OA
BRANCH   9  14
HETATM   14  C3  UNL     1      14.458  34.491  22.184  1.00  0.00     0.259 C
BRANCH  14  15
HETATM   15  C2  UNL     1      14.903  34.780  23.564  1.00  0.00     0.261 C
HETATM   16  N1  UNL     1      14.031  35.517  24.411  1.00  0.00    -0.234 N
ATOM     17  H1  UNL     1      13.131  35.825  24.044  1.00  0.00     0.197 HD
HETATM   18  O2  UNL     1      15.999  34.411  24.021  1.00  0.00    -0.269 OA
BRANCH  16  19
HETATM   19  O1  UNL     1      14.355  35.824  25.691  1.00  0.00    -0.283 OA
HETATM   20  C1  UNL     1      13.741  34.942  26.587  1.00  0.00     0.237 C
ENDBRANCH  16  19
ENDBRANCH  14  15
ENDBRANCH   9  14
BRANCH  12  21
HETATM   21  N12 UNL     1      16.274  30.838  19.444  1.00  0.00    -0.320 N
ATOM     22 2H12 UNL     1      17.032  30.156  19.443  1.00  0.00     0.178 HD
ATOM     23 1H12 UNL     1      15.600  30.476  18.769  1.00  0.00     0.178 HD
ENDBRANCH  12  21
ENDBRANCH   1   7
BRANCH   5  24
HETATM   24  C6  UNL     1      21.845  33.720  20.793  1.00  0.00     0.119 A
HETATM   25  C7  UNL     1      21.953  34.867  20.049  1.00  0.00     0.151 A
HETATM   26  N6  UNL     1      21.082  35.089  18.957  1.00  0.00    -0.081 NA
HETATM   27  N7  UNL     1      22.874  35.808  20.327  1.00  0.00    -0.178 N
HETATM   28  C8  UNL     1      23.707  35.597  21.376  1.00  0.00     0.678 A
ATOM     29  H7  UNL     1      22.943  36.656  19.765  1.00  0.00     0.185 HD
HETATM   30  N9  UNL     1      23.622  34.484  22.120  1.00  0.00    -0.176 N
HETATM   31  C9  UNL     1      22.708  33.544  21.848  1.00  0.00     0.134 A
ATOM     32  H9  UNL     1      24.263  34.353  22.902  1.00  0.00     0.186 HD
BRANCH  28  33
HETATM   33  N8  UNL     1      24.586  36.489  21.647  1.00  0.00    -0.234 N
ATOM     34  H82 UNL     1      25.435  36.560  21.086  1.00  0.00     0.174 HD
ATOM     35  H81 UNL     1      24.414  37.119  22.431  1.00  0.00     0.174 HD
ENDBRANCH  28  33
BRANCH  31  36
HETATM   36  N10 UNL     1      22.647  32.477  22.581  1.00  0.00    -0.384 N
ATOM     37 2H10 UNL     1      22.080  31.686  22.276  1.00  0.00     0.157 HD
ATOM     38 1H10 UNL     1      23.159  32.420  23.461  1.00  0.00     0.157 HD
ENDBRANCH  31  36
ENDBRANCH   5  24
TORSDOF 8
ENDMDL