MODEL 4
REMARK VINA RESULT: -7.297950094      3.967     10.117
REMARK  5 active torsions:
REMARK  status: ('A' for Active; 'I' for Inactive)
REMARK    1  A    between atoms: C3_5  and  C4_6
REMARK       I    between atoms: C4_6  and  N2_8
REMARK    2  A    between atoms: N2_8  and  N3_10
REMARK    3  A    between atoms: C6_15  and  C7_16
REMARK    4  A    between atoms: C8_21  and  C9_22
REMARK    5  A    between atoms: C10_27  and  N8_28
ROOT
HETATM    1  N3  UNL     1      21.000  37.812  19.825  1.00  0.00    -0.129 N
ATOM      2  H3  UNL     1      20.208  38.445  19.944  1.00  0.00     0.205 HD
HETATM    3  C5  UNL     1      20.811  36.525  19.823  1.00  0.00     0.702 A
HETATM    4  N4  UNL     1      19.558  36.043  19.980  1.00  0.00    -0.164 N
ATOM      5  H4  UNL     1      18.771  36.682  20.098  1.00  0.00     0.186 HD
HETATM    6  C6  UNL     1      19.355  34.699  19.979  1.00  0.00     0.219 A
HETATM    7  O4  UNL     1      20.400  33.925  19.825  1.00  0.00    -0.257 OA
HETATM    8  C10 UNL     1      21.623  34.370  19.672  1.00  0.00     0.238 A
HETATM    9  N9  UNL     1      21.848  35.683  19.669  1.00  0.00    -0.153 N
ATOM     10  H9  UNL     1      22.794  36.044  19.551  1.00  0.00     0.188 HD
ENDROOT
BRANCH   1  11
HETATM   11  N2  UNL     1      22.284  38.323  19.665  1.00  0.00    -0.252 N
HETATM   12  C4  UNL     1      22.585  39.700  19.623  1.00  0.00     0.279 C
HETATM   13  O1  UNL     1      21.669  40.531  19.733  1.00  0.00    -0.267 OA
ATOM     14  H2  UNL     1      23.054  37.662  19.571  1.00  0.00     0.190 HD
BRANCH  12  15
HETATM   15  C3  UNL     1      23.979  40.145  19.450  1.00  0.00     0.279 A
HETATM   16  N1  UNL     1      24.933  39.100  19.744  1.00  0.00    -0.362 N
HETATM   17  C2  UNL     1      25.695  39.367  20.718  1.00  0.00     0.046 A
ATOM     18  H1  UNL     1      24.986  38.229  19.216  1.00  0.00     0.162 HD
HETATM   19  C1  UNL     1      26.790  38.486  21.268  1.00  0.00     0.072 C
HETATM   20  C11 UNL     1      25.335  40.682  21.225  1.00  0.00     0.119 A
HETATM   21  N10 UNL     1      24.252  41.177  20.427  1.00  0.00    -0.346 N
HETATM   22  N11 UNL     1      25.901  41.296  22.227  1.00  0.00    -0.384 N
ATOM     23  H10 UNL     1      23.773  42.071  20.527  1.00  0.00     0.163 HD
ATOM     24 2H11 UNL     1      26.673  40.944  22.795  1.00  0.00     0.157 HD
ATOM     25 1H11 UNL     1      25.649  42.218  22.583  1.00  0.00     0.157 HD
ENDBRANCH  12  15
ENDBRANCH   1  11
BRANCH   6  26
HETATM   26  C7  UNL     1      18.017  34.148  20.145  1.00  0.00     0.217 A
HETATM   27  N5  UNL     1      17.519  33.114  19.455  1.00  0.00    -0.274 N
HETATM   28  N6  UNL     1      16.276  32.859  19.841  1.00  0.00    -0.273 N
ATOM     29  H5  UNL     1      18.024  32.597  18.735  1.00  0.00     0.189 HD
HETATM   30  C8  UNL     1      16.000  33.775  20.810  1.00  0.00     0.230 A
ATOM     31  H6  UNL     1      15.658  32.129  19.486  1.00  0.00     0.189 HD
HETATM   32  O3  UNL     1      17.068  34.519  20.954  1.00  0.00    -0.265 OA
BRANCH  30  33
HETATM   33  C9  UNL     1      14.745  33.901  21.549  1.00  0.00     0.307 C
HETATM   34  N7  UNL     1      14.637  34.892  22.546  1.00  0.00    -0.054 NA
HETATM   35  O2  UNL     1      13.759  33.156  21.325  1.00  0.00    -0.267 OA
ENDBRANCH  30  33
ENDBRANCH   6  26
BRANCH   8  36
HETATM   36  N8  UNL     1      22.607  33.524  19.523  1.00  0.00    -0.364 N
ATOM     37  H82 UNL     1      22.710  32.990  18.660  1.00  0.00     0.159 HD
ATOM     38  H81 UNL     1      23.280  33.392  20.278  1.00  0.00     0.159 HD
ENDBRANCH   8  36
TORSDOF 5
ENDMDL