MODEL 4
REMARK VINA RESULT: -5.053078798      3.883      4.545
REMARK  9 active torsions:
REMARK  status: ('A' for Active; 'I' for Inactive)
REMARK    1  A    between atoms: N2_5  and  N3_6
REMARK    2  A    between atoms: C2_9  and  N4_10
REMARK    3  A    between atoms: C2_9  and  C3_14
REMARK       I    between atoms: C3_14  and  N5_16
REMARK    4  A    between atoms: N5_16  and  N6_18
REMARK    5  A    between atoms: N6_18  and  N7_19
REMARK    6  A    between atoms: C5_24  and  S2_25
REMARK    7  A    between atoms: S2_25  and  C6_26
REMARK    8  A    between atoms: C6_26  and  C7_27
REMARK    9  A    between atoms: C7_27  and  O2_28
ROOT
HETATM    1  N1  UNL     1      19.866  31.564  23.328  1.00  0.00    -0.385 N
ATOM      2  H11 UNL     1      19.252  31.060  23.967  1.00  0.00     0.157 HD
ATOM      3  H12 UNL     1      20.567  30.851  23.528  1.00  0.00     0.157 HD
HETATM    4  C1  UNL     1      19.862  32.602  22.569  1.00  0.00     0.136 C
HETATM    5  N2  UNL     1      20.719  33.306  21.677  1.00  0.00    -0.236 N
HETATM    6  C2  UNL     1      20.030  34.495  22.023  1.00  0.00     0.337 C
HETATM    7  C4  UNL     1      18.847  33.635  22.280  1.00  0.00     0.258 C
HETATM    8  S1  UNL     1      17.761  34.083  23.631  1.00  0.00    -0.063 SA
HETATM    9  C5  UNL     1      16.200  34.234  22.772  1.00  0.00     0.119 C
HETATM   10  N8  UNL     1      16.249  33.860  21.586  1.00  0.00    -0.271 N
ATOM     11  H8  UNL     1      15.423  33.896  20.988  1.00  0.00     0.179 HD
HETATM   12  S3  UNL     1      17.721  33.293  21.003  1.00  0.00     0.263 S
HETATM   13  O3  UNL     1      17.587  31.782  20.823  1.00  0.00    -0.203 OA
HETATM   14  O4  UNL     1      18.098  33.879  19.670  1.00  0.00    -0.203 OA
ENDROOT
BRANCH   6  15
HETATM   15  N4  UNL     1      20.551  34.970  23.341  1.00  0.00    -0.038 N
ATOM     16  H43 UNL     1      20.742  34.205  23.988  1.00  0.00     0.278 HD
ATOM     17  H42 UNL     1      21.500  35.338  23.279  1.00  0.00     0.278 HD
ATOM     18  H41 UNL     1      19.890  35.649  23.719  1.00  0.00     0.278 HD
ENDBRANCH   6  15
BRANCH   6  19
HETATM   19  C3  UNL     1      19.929  35.606  21.101  1.00  0.00     0.296 C
HETATM   20  O1  UNL     1      19.115  36.542  21.419  1.00  0.00    -0.267 OA
HETATM   21  N5  UNL     1      20.644  35.753  19.897  1.00  0.00    -0.250 N
ATOM     22  H5  UNL     1      21.307  35.034  19.605  1.00  0.00     0.187 HD
BRANCH  21  23
HETATM   23  N6  UNL     1      20.438  36.911  19.088  1.00  0.00    -0.027 NA
BRANCH  23  24
HETATM   24  N7  UNL     1      19.243  36.726  18.389  1.00  0.00    -0.329 N
ATOM     25  H72 UNL     1      18.654  35.895  18.432  1.00  0.00     0.174 HD
ATOM     26  H71 UNL     1      19.078  37.568  17.837  1.00  0.00     0.174 HD
ENDBRANCH  23  24
ENDBRANCH  21  23
ENDBRANCH   6  19
BRANCH   5  27
HETATM   27  N3  UNL     1      21.761  32.937  20.845  1.00  0.00    -0.339 N
ATOM     28  H32 UNL     1      21.942  32.894  19.842  1.00  0.00     0.177 HD
ATOM     29  H31 UNL     1      22.703  32.577  20.998  1.00  0.00     0.177 HD
ENDBRANCH   5  27
BRANCH   9  30
HETATM   30  S2  UNL     1      14.695  34.889  23.572  1.00  0.00    -0.102 SA
BRANCH  30  31
HETATM   31  C6  UNL     1      15.025  35.206  25.316  1.00  0.00     0.107 C
BRANCH  31  32
HETATM   32  C7  UNL     1      13.856  34.894  26.195  1.00  0.00     0.174 C
BRANCH  32  33
HETATM   33  O2  UNL     1      12.707  35.375  25.588  1.00  0.00    -0.400 OA
ATOM     34  H2  UNL     1      12.244  34.645  25.195  1.00  0.00     0.209 HD
ENDBRANCH  32  33
ENDBRANCH  31  32
ENDBRANCH  30  31
ENDBRANCH   9  30
TORSDOF 9
ENDMDL