MODEL 2
REMARK VINA RESULT: -7.132202749      5.708      7.767
REMARK  6 active torsions:
REMARK  status: ('A' for Active; 'I' for Inactive)
REMARK    1  A    between atoms: C2_2  and  C11_32
REMARK    2  A    between atoms: N1_3  and  N2_5
REMARK       I    between atoms: N2_5  and  C3_7
REMARK    3  A    between atoms: C3_7  and  C4_9
REMARK    4  A    between atoms: C5_12  and  N4_13
REMARK    5  A    between atoms: C6_18  and  C7_19
REMARK    6  A    between atoms: C9_24  and  N8_25
REMARK       I    between atoms: C11_32  and  N11_34
ROOT
HETATM    1  C4  UNL     1      18.964  29.927  19.999  1.00  0.00     0.145 A
HETATM    2  N3  UNL     1      18.753  28.829  19.286  1.00  0.00    -0.184 N
ATOM      3  H3  UNL     1      17.828  28.402  19.238  1.00  0.00     0.184 HD
HETATM    4  C5  UNL     1      19.802  28.294  18.624  1.00  0.00     0.677 A
HETATM    5  N5  UNL     1      21.027  28.835  18.668  1.00  0.00    -0.186 N
ATOM      6  H5  UNL     1      21.778  28.383  18.145  1.00  0.00     0.184 HD
HETATM    7  C6  UNL     1      21.320  29.972  19.386  1.00  0.00     0.121 A
HETATM    8  C10 UNL     1      20.235  30.491  20.048  1.00  0.00     0.110 A
HETATM    9  N10 UNL     1      20.417  31.657  20.817  1.00  0.00    -0.097 NA
ENDROOT
BRANCH   1  10
HETATM   10  C3  UNL     1      17.888  30.554  20.733  1.00  0.00     0.289 C
HETATM   11  N2  UNL     1      17.294  31.755  20.217  1.00  0.00    -0.264 N
ATOM     12  H2  UNL     1      17.629  32.158  19.342  1.00  0.00     0.190 HD
HETATM   13  O1  UNL     1      17.488  30.056  21.791  1.00  0.00    -0.264 OA
BRANCH  11  14
HETATM   14  N1  UNL     1      16.268  32.358  20.911  1.00  0.00    -0.297 N
HETATM   15  C2  UNL     1      16.232  33.609  21.176  1.00  0.00     0.093 C
HETATM   16  C1  UNL     1      17.366  34.442  20.701  1.00  0.00     0.076 C
ATOM     17  H1  UNL     1      15.495  31.775  21.232  1.00  0.00     0.187 HD
BRANCH  15  18
HETATM   18  C11 UNL     1      15.108  34.164  21.917  1.00  0.00     0.307 C
HETATM   19  O2  UNL     1      13.987  34.169  21.361  1.00  0.00    -0.262 OA
HETATM   20  N11 UNL     1      15.292  34.677  23.222  1.00  0.00    -0.123 N
HETATM   21  N12 UNL     1      14.457  35.231  24.106  1.00  0.00    -0.201 N
HETATM   22  N14 UNL     1      16.272  34.832  24.084  1.00  0.00    -0.201 N
HETATM   23  N13 UNL     1      15.436  35.384  24.965  1.00  0.00    -0.210 N
ATOM     24  H12 UNL     1      13.461  35.448  24.112  1.00  0.00     0.212 HD
ATOM     25  H13 UNL     1      15.522  35.765  25.907  1.00  0.00     0.211 HD
ATOM     26  H14 UNL     1      17.268  34.616  24.081  1.00  0.00     0.212 HD
ENDBRANCH  15  18
ENDBRANCH  11  14
ENDBRANCH   1  10
BRANCH   4  27
HETATM   27  N4  UNL     1      19.570  27.233  17.941  1.00  0.00    -0.234 N
ATOM     28  H42 UNL     1      18.750  26.657  18.126  1.00  0.00     0.174 HD
ATOM     29  H41 UNL     1      20.247  27.002  17.214  1.00  0.00     0.174 HD
ENDBRANCH   4  27
BRANCH   7  30
HETATM   30  C7  UNL     1      22.647  30.496  19.391  1.00  0.00     0.165 A
HETATM   31  N6  UNL     1      23.694  29.832  18.805  1.00  0.00    -0.267 N
HETATM   32  N7  UNL     1      24.809  30.513  18.942  1.00  0.00    -0.127 N
ATOM     33  H6  UNL     1      23.618  28.933  18.327  1.00  0.00     0.189 HD
HETATM   34  C8  UNL     1      26.134  30.134  18.452  1.00  0.00     0.197 C
HETATM   35  C9  UNL     1      24.528  31.637  19.617  1.00  0.00     0.694 A
HETATM   36  N9  UNL     1      23.204  31.591  19.874  1.00  0.00    -0.172 N
ATOM     37  H9  UNL     1      22.695  32.316  20.379  1.00  0.00     0.186 HD
BRANCH  35  38
HETATM   38  N8  UNL     1      25.350  32.570  19.954  1.00  0.00    -0.233 N
ATOM     39  H82 UNL     1      25.947  32.591  20.781  1.00  0.00     0.174 HD
ATOM     40  H81 UNL     1      25.539  33.437  19.452  1.00  0.00     0.174 HD
ENDBRANCH  35  38
ENDBRANCH   7  30
TORSDOF 6
ENDMDL