MODEL 3
REMARK VINA RESULT: -6.951094676      4.400      6.691
REMARK  8 active torsions:
REMARK  status: ('A' for Active; 'I' for Inactive)
REMARK    1  A    between atoms: N1_1  and  C1_4
REMARK    2  A    between atoms: C2_7  and  S1_8
REMARK    3  A    between atoms: S1_8  and  C3_9
REMARK    4  A    between atoms: C5_18  and  N7_19
REMARK    5  A    between atoms: C6_24  and  O1_25
REMARK    6  A    between atoms: O1_25  and  S2_26
REMARK    7  A    between atoms: S2_26  and  N9_29
REMARK    8  A    between atoms: N9_29  and  O4_31
ROOT
HETATM    1  C1  UNL     1      16.333  32.518  19.793  1.00  0.00     0.678 A
HETATM    2  N2  UNL     1      17.632  32.835  19.878  1.00  0.00    -0.184 N
ATOM      3  H2  UNL     1      18.291  32.507  19.172  1.00  0.00     0.185 HD
HETATM    4  C2  UNL     1      18.067  33.605  20.925  1.00  0.00     0.111 A
HETATM    5  C4  UNL     1      17.179  34.042  21.877  1.00  0.00     0.087 A
HETATM    6  C5  UNL     1      17.570  34.792  22.956  1.00  0.00     0.118 A
HETATM    7  N8  UNL     1      16.643  35.166  23.847  1.00  0.00    -0.307 N
ATOM      8  H8  UNL     1      16.935  35.727  24.648  1.00  0.00     0.171 HD
HETATM    9  C6  UNL     1      15.329  34.831  23.732  1.00  0.00     0.244 A
HETATM   10  N10 UNL     1      14.948  34.101  22.693  1.00  0.00    -0.306 N
ATOM     11  H10 UNL     1      13.965  33.845  22.602  1.00  0.00     0.171 HD
HETATM   12  C7  UNL     1      15.827  33.685  21.746  1.00  0.00     0.141 A
HETATM   13  N11 UNL     1      15.440  32.933  20.707  1.00  0.00    -0.176 N
ATOM     14  H11 UNL     1      14.458  32.673  20.608  1.00  0.00     0.186 HD
ENDROOT
BRANCH   4  15
HETATM   15  S1  UNL     1      19.794  34.036  21.045  1.00  0.00    -0.032 SA
BRANCH  15  16
HETATM   16  C3  UNL     1      20.225  35.436  20.025  1.00  0.00     0.179 A
HETATM   17  N3  UNL     1      19.506  36.119  19.140  1.00  0.00    -0.261 N
HETATM   18  N4  UNL     1      20.207  37.094  18.592  1.00  0.00    -0.005 NA
ATOM     19  H3  UNL     1      18.532  35.915  18.913  1.00  0.00     0.186 HD
HETATM   20  N5  UNL     1      21.420  37.054  19.132  1.00  0.00    -0.224 N
HETATM   21  N6  UNL     1      21.452  36.061  19.998  1.00  0.00    -0.266 N
ATOM     22  H5  UNL     1      22.194  37.683  18.914  1.00  0.00     0.205 HD
ATOM     23  H6  UNL     1      22.260  35.796  20.562  1.00  0.00     0.190 HD
ENDBRANCH  15  16
ENDBRANCH   4  15
BRANCH   1  24
HETATM   24  N1  UNL     1      15.958  31.784  18.777  1.00  0.00    -0.234 N
ATOM     25  H12 UNL     1      16.618  31.158  18.315  1.00  0.00     0.174 HD
ATOM     26  H11 UNL     1      14.988  31.863  18.474  1.00  0.00     0.174 HD
ENDBRANCH   1  24
BRANCH   6  27
HETATM   27  N7  UNL     1      18.819  35.112  23.138  1.00  0.00    -0.385 N
ATOM     28  H72 UNL     1      19.550  34.660  22.589  1.00  0.00     0.157 HD
ATOM     29  H71 UNL     1      19.088  35.834  23.807  1.00  0.00     0.157 HD
ENDBRANCH   6  27
BRANCH   9  30
HETATM   30  O1  UNL     1      14.492  35.265  24.689  1.00  0.00    -0.180 OA
BRANCH  30  31
HETATM   31  S2  UNL     1      14.454  35.058  26.333  1.00  0.00     0.387 S
HETATM   32  O2  UNL     1      15.124  33.735  26.711  1.00  0.00    -0.173 OA
HETATM   33  O3  UNL     1      15.150  36.095  27.146  1.00  0.00    -0.173 OA
BRANCH  31  34
HETATM   34  N9  UNL     1      12.774  34.925  26.805  1.00  0.00    -0.171 N
ATOM     35  H9  UNL     1      12.469  34.654  27.740  1.00  0.00     0.209 HD
BRANCH  34  36
HETATM   36  O4  UNL     1      11.935  35.216  25.808  1.00  0.00    -0.278 OA
ATOM     37  H4  UNL     1      12.004  34.608  25.082  1.00  0.00     0.245 HD
ENDBRANCH  34  36
ENDBRANCH  31  34
ENDBRANCH  30  31
ENDBRANCH   9  30
TORSDOF 8
ENDMDL