MODEL 5
REMARK VINA RESULT: -7.001288756      4.452      7.050
REMARK  8 active torsions:
REMARK  status: ('A' for Active; 'I' for Inactive)
REMARK    1  A    between atoms: C1_4  and  N2_5
REMARK    2  A    between atoms: C3_10  and  S1_11
REMARK    3  A    between atoms: S1_11  and  C4_12
REMARK    4  A    between atoms: C4_12  and  C5_13
REMARK    5  A    between atoms: N6_18  and  C6_19
REMARK    6  A    between atoms: C7_22  and  N8_23
REMARK    7  A    between atoms: C8_28  and  N10_29
REMARK    8  A    between atoms: C9_38  and  N14_39
ROOT
HETATM    1  C5  UNL     1      20.511  35.022  19.482  1.00  0.00     0.123 A
HETATM    2  N4  UNL     1      19.806  35.877  18.744  1.00  0.00    -0.271 N
ATOM      3  H4  UNL     1      20.188  36.519  18.050  1.00  0.00     0.190 HD
HETATM    4  N5  UNL     1      18.522  35.752  19.063  1.00  0.00    -0.205 N
ATOM      5  H5  UNL     1      17.764  36.290  18.645  1.00  0.00     0.211 HD
HETATM    6  N6  UNL     1      18.367  34.840  19.989  1.00  0.00    -0.003 N
HETATM    7  N12 UNL     1      19.576  34.385  20.255  1.00  0.00    -0.250 N
ATOM      8  H12 UNL     1      19.785  33.659  20.940  1.00  0.00     0.191 HD
ENDROOT
BRANCH   1   9
HETATM    9  C4  UNL     1      21.968  34.746  19.531  1.00  0.00     0.161 C
BRANCH   9  10
HETATM   10  S1  UNL     1      22.299  33.348  20.574  1.00  0.00    -0.086 SA
BRANCH  10  11
HETATM   11  C3  UNL     1      22.132  31.761  19.792  1.00  0.00     0.163 A
HETATM   12  N3  UNL     1      21.064  30.959  20.092  1.00  0.00    -0.287 N
HETATM   13  C2  UNL     1      20.902  29.747  19.553  1.00  0.00     0.348 A
ATOM     14  H3  UNL     1      20.365  31.300  20.752  1.00  0.00     0.172 HD
HETATM   15  N2  UNL     1      21.785  29.244  18.676  1.00  0.00    -0.093 N
HETATM   16  O1  UNL     1      19.899  29.014  19.845  1.00  0.00    -0.245 OA
HETATM   17  C9  UNL     1      22.840  30.010  18.365  1.00  0.00     0.689 A
HETATM   18  N13 UNL     1      23.010  31.251  18.916  1.00  0.00    -0.170 N
ATOM     19  H13 UNL     1      23.827  31.802  18.653  1.00  0.00     0.186 HD
BRANCH  15  20
HETATM   20  C1  UNL     1      21.619  27.952  18.097  1.00  0.00     0.204 C
HETATM   21  N1  UNL     1      20.559  27.670  17.454  1.00  0.00    -0.394 N
ATOM     22  H12 UNL     1      19.834  28.383  17.362  1.00  0.00     0.156 HD
ATOM     23  H11 UNL     1      20.441  26.746  17.039  1.00  0.00     0.156 HD
ENDBRANCH  15  20
BRANCH  17  24
HETATM   24  N14 UNL     1      23.699  29.562  17.537  1.00  0.00    -0.234 N
ATOM     25 2H14 UNL     1      23.387  29.151  16.657  1.00  0.00     0.174 HD
ATOM     26 1H14 UNL     1      24.688  29.626  17.775  1.00  0.00     0.174 HD
ENDBRANCH  17  24
ENDBRANCH  10  11
ENDBRANCH   9  10
ENDBRANCH   1   9
BRANCH   6  27
HETATM   27  C6  UNL     1      17.139  34.429  20.584  1.00  0.00     0.749 A
HETATM   28  N7  UNL     1      16.546  35.127  21.568  1.00  0.00    -0.018 N
HETATM   29  C7  UNL     1      15.388  34.714  22.110  1.00  0.00     0.705 A
ATOM     30  H7  UNL     1      16.983  35.983  21.909  1.00  0.00     0.203 HD
HETATM   31  N9  UNL     1      14.767  33.600  21.705  1.00  0.00    -0.022 N
HETATM   32  C8  UNL     1      15.336  32.880  20.722  1.00  0.00     0.705 A
ATOM     33  H9  UNL     1      13.888  33.306  22.129  1.00  0.00     0.203 HD
HETATM   34  N11 UNL     1      16.497  33.305  20.187  1.00  0.00    -0.018 N
ATOM     35  H11 UNL     1      16.916  32.748  19.442  1.00  0.00     0.203 HD
BRANCH  29  36
HETATM   36  N8  UNL     1      14.814  35.384  23.058  1.00  0.00    -0.234 N
ATOM     37  H82 UNL     1      15.183  36.316  23.245  1.00  0.00     0.174 HD
ATOM     38  H81 UNL     1      14.035  34.991  23.586  1.00  0.00     0.174 HD
ENDBRANCH  29  36
BRANCH  32  39
HETATM   39  N10 UNL     1      14.748  31.805  20.324  1.00  0.00    -0.234 N
ATOM     40 2H10 UNL     1      14.318  31.146  20.974  1.00  0.00     0.174 HD
ATOM     41 1H10 UNL     1      14.712  31.608  19.324  1.00  0.00     0.174 HD
ENDBRANCH  32  39
ENDBRANCH   6  27
TORSDOF 8
ENDMDL