MODEL 2
REMARK VINA RESULT: -6.929816313      2.985      5.382
REMARK  7 active torsions:
REMARK  status: ('A' for Active; 'I' for Inactive)
REMARK    1  A    between atoms: N3_4  and  N4_6
REMARK       I    between atoms: N4_6  and  C2_8
REMARK    2  A    between atoms: C2_8  and  C3_10
REMARK    3  A    between atoms: N5_14  and  S1_15
REMARK    4  A    between atoms: S1_15  and  C7_16
REMARK    5  A    between atoms: C8_21  and  N8_22
REMARK    6  A    between atoms: C8_21  and  C9_25
REMARK    7  A    between atoms: N8_22  and  O3_23
ROOT
HETATM    1  C7  UNL     1      16.895  32.773  19.982  1.00  0.00     0.144 C
HETATM    2  N6  UNL     1      16.486  32.042  18.991  1.00  0.00    -0.237 N
ATOM      3  H6  UNL     1      16.862  32.092  18.044  1.00  0.00     0.197 HD
HETATM    4  O2  UNL     1      15.488  31.198  19.380  1.00  0.00    -0.161 OA
HETATM    5  N7  UNL     1      14.965  31.656  20.546  1.00  0.00    -0.027 NA
HETATM    6  C8  UNL     1      16.082  32.364  21.139  1.00  0.00     0.266 C
ENDROOT
BRANCH   1   7
HETATM    7  S1  UNL     1      18.194  34.018  19.913  1.00  0.00     0.013 SA
BRANCH   7   8
HETATM    8  N5  UNL     1      19.698  33.304  20.490  1.00  0.00    -0.286 N
HETATM    9  C3  UNL     1      20.936  33.815  20.242  1.00  0.00     0.115 A
HETATM   10  C4  UNL     1      21.863  32.994  20.849  1.00  0.00     0.038 A
HETATM   11  C5  UNL     1      21.185  31.949  21.486  1.00  0.00     0.021 A
HETATM   12  C6  UNL     1      19.852  32.194  21.231  1.00  0.00     0.105 A
BRANCH   9  13
HETATM   13  C2  UNL     1      21.211  35.016  19.473  1.00  0.00     0.287 C
HETATM   14  N4  UNL     1      21.225  36.277  20.120  1.00  0.00    -0.262 N
ATOM     15  H4  UNL     1      21.038  36.307  21.123  1.00  0.00     0.190 HD
HETATM   16  O1  UNL     1      21.437  34.967  18.249  1.00  0.00    -0.264 OA
BRANCH  14  17
HETATM   17  N3  UNL     1      21.478  37.469  19.464  1.00  0.00    -0.273 N
HETATM   18  C1  UNL     1      22.041  38.442  20.083  1.00  0.00     0.215 C
HETATM   19  N1  UNL     1      22.317  39.682  19.443  1.00  0.00    -0.065 NA
HETATM   20  N2  UNL     1      22.399  38.279  21.441  1.00  0.00    -0.065 NA
ATOM     21  H3  UNL     1      21.215  37.574  18.485  1.00  0.00     0.189 HD
ENDBRANCH  14  17
ENDBRANCH   9  13
ENDBRANCH   7   8
ENDBRANCH   1   7
BRANCH   6  22
HETATM   22  N8  UNL     1      16.798  31.433  21.988  1.00  0.00    -0.057 NA
BRANCH  22  23
HETATM   23  O3  UNL     1      16.861  30.244  21.336  1.00  0.00    -0.293 OA
ATOM     24  H3  UNL     1      17.631  30.260  20.779  1.00  0.00     0.238 HD
ENDBRANCH  22  23
ENDBRANCH   6  22
BRANCH   6  25
HETATM   25  C9  UNL     1      15.617  33.500  21.951  1.00  0.00     0.166 A
HETATM   26  N9  UNL     1      16.152  34.087  23.023  1.00  0.00    -0.269 N
HETATM   27  N10 UNL     1      15.342  35.082  23.396  1.00  0.00    -0.227 N
ATOM     28  H9  UNL     1      17.025  33.823  23.478  1.00  0.00     0.190 HD
HETATM   29  N11 UNL     1      14.306  35.138  22.582  1.00  0.00    -0.227 N
ATOM     30  H10 UNL     1      15.502  35.703  24.189  1.00  0.00     0.210 HD
HETATM   31  N12 UNL     1      14.474  34.174  21.702  1.00  0.00    -0.269 N
ATOM     32  H11 UNL     1      13.529  35.796  22.625  1.00  0.00     0.210 HD
ATOM     33  H12 UNL     1      13.832  33.965  20.939  1.00  0.00     0.190 HD
ENDBRANCH   6  25
TORSDOF 7
ENDMDL