MODEL 2
REMARK VINA RESULT: -6.356839946      2.703      4.040
REMARK  5 active torsions:
REMARK  status: ('A' for Active; 'I' for Inactive)
REMARK    1  A    between atoms: N1_1  and  C1_4
REMARK    2  A    between atoms: C4_13  and  N5_14
REMARK    3  A    between atoms: C4_13  and  C5_18
REMARK       I    between atoms: C5_18  and  N6_20
REMARK    4  A    between atoms: N6_20  and  C6_22
REMARK    5  A    between atoms: C8_29  and  N10_30
ROOT
HETATM    1  C1  UNL     1      22.257  31.014  19.456  1.00  0.00     0.690 A
HETATM    2  N2  UNL     1      21.924  32.236  19.817  1.00  0.00    -0.189 N
ATOM      3  H2  UNL     1      22.513  33.006  19.503  1.00  0.00     0.184 HD
HETATM    4  C2  UNL     1      20.827  32.532  20.594  1.00  0.00     0.094 A
HETATM    5  C3  UNL     1      20.069  31.481  20.990  1.00  0.00     0.109 A
HETATM    6  N3  UNL     1      20.468  30.231  20.583  1.00  0.00    -0.285 N
ATOM      7  H3  UNL     1      19.904  29.434  20.878  1.00  0.00     0.187 HD
HETATM    8  N4  UNL     1      21.510  29.993  19.850  1.00  0.00    -0.132 N
ATOM      9  H4  UNL     1      21.749  29.038  19.583  1.00  0.00     0.205 HD
HETATM   10  C4  UNL     1      18.850  31.492  21.812  1.00  0.00     0.305 C
HETATM   11  S1  UNL     1      18.809  32.810  23.070  1.00  0.00    -0.039 SA
HETATM   12  S2  UNL     1      19.483  34.506  22.028  1.00  0.00    -0.056 SA
HETATM   13  C8  UNL     1      20.672  33.951  20.853  1.00  0.00     0.280 C
ENDROOT
BRANCH  10  14
HETATM   14  N5  UNL     1      18.843  30.289  22.616  1.00  0.00    -0.045 N
ATOM     15  H53 UNL     1      19.690  29.732  22.499  1.00  0.00     0.277 HD
ATOM     16  H52 UNL     1      18.941  30.480  23.613  1.00  0.00     0.277 HD
ATOM     17  H51 UNL     1      17.994  29.768  22.394  1.00  0.00     0.277 HD
ENDBRANCH  10  14
BRANCH  10  18
HETATM   18  C5  UNL     1      17.629  31.609  20.980  1.00  0.00     0.273 C
HETATM   19  O1  UNL     1      17.568  30.985  19.893  1.00  0.00    -0.269 OA
HETATM   20  N6  UNL     1      16.554  32.401  21.391  1.00  0.00    -0.337 N
ATOM     21  H6  UNL     1      16.637  32.895  22.280  1.00  0.00     0.164 HD
BRANCH  20  22
HETATM   22  C6  UNL     1      15.329  32.567  20.638  1.00  0.00     0.212 C
HETATM   23  C7  UNL     1      14.467  33.547  21.380  1.00  0.00     0.175 C
HETATM   24  N7  UNL     1      13.142  33.079  21.115  1.00  0.00    -0.127 NA
HETATM   25  N8  UNL     1      13.198  31.758  20.730  1.00  0.00    -0.038 NA
HETATM   26  N9  UNL     1      14.517  31.375  20.615  1.00  0.00    -0.103 NA
ENDBRANCH  20  22
ENDBRANCH  10  18
BRANCH  13  27
HETATM   27  N10 UNL     1      20.361  34.585  19.569  1.00  0.00    -0.133 N
HETATM   28  O2  UNL     1      19.212  34.807  19.162  1.00  0.00    -0.535 OA
HETATM   29  O3  UNL     1      21.404  34.961  18.763  1.00  0.00    -0.535 OA
ENDBRANCH  13  27
BRANCH   1  30
HETATM   30  N1  UNL     1      23.301  30.743  18.719  1.00  0.00    -0.233 N
ATOM     31  H12 UNL     1      23.825  29.898  18.943  1.00  0.00     0.174 HD
ATOM     32  H11 UNL     1      23.607  31.331  17.944  1.00  0.00     0.174 HD
ENDBRANCH   1  30
TORSDOF 5
ENDMDL