MODEL 5
REMARK VINA RESULT: -5.709087504      2.916      6.387
REMARK  9 active torsions:
REMARK  status: ('A' for Active; 'I' for Inactive)
REMARK    1  A    between atoms: N2_4  and  N3_6
REMARK    2  A    between atoms: N4_9  and  N5_10
REMARK    3  A    between atoms: C3_13  and  N6_14
REMARK    4  A    between atoms: C6_21  and  S1_22
REMARK    5  A    between atoms: S1_22  and  N8_23
REMARK    6  A    between atoms: S1_22  and  S2_27
REMARK    7  A    between atoms: S2_27  and  C7_28
REMARK    8  A    between atoms: C7_28  and  C8_29
REMARK    9  A    between atoms: C8_29  and  O3_33
ROOT
HETATM    1  C1  UNL     1      19.333  34.460  23.684  1.00  0.00     0.176 C
HETATM    2  N1  UNL     1      20.579  35.078  23.288  1.00  0.00    -0.180 N
HETATM    3  C2  UNL     1      21.362  35.621  24.275  1.00  0.00     0.721 A
HETATM    4  N2  UNL     1      20.895  35.540  25.469  1.00  0.00    -0.137 N
ATOM      5  H2  UNL     1      19.991  35.091  25.619  1.00  0.00     0.205 HD
HETATM    6  N4  UNL     1      22.542  36.205  24.039  1.00  0.00    -0.072 N
HETATM    7  C3  UNL     1      22.997  36.273  22.779  1.00  0.00     0.175 A
HETATM    8  C4  UNL     1      22.216  35.733  21.785  1.00  0.00     0.152 A
HETATM    9  O1  UNL     1      22.430  35.681  20.526  1.00  0.00    -0.288 OA
HETATM   10  C5  UNL     1      21.443  35.088  19.908  1.00  0.00     0.181 A
HETATM   11  N7  UNL     1      21.354  34.858  18.482  1.00  0.00    -0.073 NA
HETATM   12  C6  UNL     1      20.455  34.690  20.797  1.00  0.00     0.127 A
HETATM   13  C9  UNL     1      20.977  35.115  22.001  1.00  0.00     0.114 A
ENDROOT
BRANCH  12  14
HETATM   14  S1  UNL     1      18.748  33.902  20.652  1.00  0.00     0.112 S
HETATM   15  O2  UNL     1      19.850  32.071  20.648  1.00  0.00    -0.234 OA
BRANCH  14  16
HETATM   16  N8  UNL     1      18.129  34.671  19.351  1.00  0.00    -0.348 N
ATOM     17  H82 UNL     1      18.344  34.520  18.365  1.00  0.00     0.166 HD
ATOM     18  H81 UNL     1      17.481  35.329  19.783  1.00  0.00     0.166 HD
ENDBRANCH  14  16
BRANCH  14  19
HETATM   19  S2  UNL     1      17.549  33.342  21.440  1.00  0.00    -0.045 SA
BRANCH  19  20
HETATM   20  C7  UNL     1      16.211  32.505  21.069  1.00  0.00     0.173 C
BRANCH  20  21
HETATM   21  C8  UNL     1      16.453  31.095  20.673  1.00  0.00     0.119 C
HETATM   22  N9  UNL     1      17.196  30.319  21.355  1.00  0.00    -0.383 N
ATOM     23  H92 UNL     1      17.641  30.674  22.201  1.00  0.00     0.158 HD
ATOM     24  H91 UNL     1      17.362  29.350  21.083  1.00  0.00     0.158 HD
BRANCH  21  25
HETATM   25  O3  UNL     1      15.850  30.613  19.527  1.00  0.00    -0.349 OA
ATOM     26  H3  UNL     1      15.003  30.189  19.599  1.00  0.00     0.219 HD
ENDBRANCH  21  25
ENDBRANCH  20  21
ENDBRANCH  19  20
ENDBRANCH  14  19
ENDBRANCH  12  14
BRANCH   7  27
HETATM   27  N6  UNL     1      24.134  36.840  22.587  1.00  0.00    -0.381 N
ATOM     28  H62 UNL     1      25.014  36.527  22.997  1.00  0.00     0.157 HD
ATOM     29  H61 UNL     1      24.155  37.662  21.983  1.00  0.00     0.157 HD
ENDBRANCH   7  27
BRANCH   4  30
HETATM   30  N3  UNL     1      21.582  36.045  26.557  1.00  0.00    -0.331 N
ATOM     31  H32 UNL     1      21.453  37.030  26.792  1.00  0.00     0.177 HD
ATOM     32  H31 UNL     1      22.204  35.463  27.117  1.00  0.00     0.177 HD
ENDBRANCH   4  30
BRANCH   6  33
HETATM   33  N5  UNL     1      23.293  36.741  25.090  1.00  0.00    -0.322 N
ATOM     34  H52 UNL     1      24.248  36.424  25.254  1.00  0.00     0.178 HD
ATOM     35  H51 UNL     1      22.896  37.455  25.699  1.00  0.00     0.178 HD
ENDBRANCH   6  33
TORSDOF 9
ENDMDL