MODEL 1
REMARK VINA RESULT: -6.824689957      0.000      0.000
REMARK  9 active torsions:
REMARK  status: ('A' for Active; 'I' for Inactive)
REMARK    1  A    between atoms: N1_2  and  C2_4
REMARK    2  A    between atoms: C3_7  and  N3_8
REMARK    3  A    between atoms: N3_8  and  C5_10
REMARK    4  A    between atoms: C6_13  and  N5_14
REMARK    5  A    between atoms: N8_22  and  C8_23
REMARK    6  A    between atoms: C8_23  and  O1_25
REMARK    7  A    between atoms: C11_32  and  C12_33
REMARK    8  A    between atoms: C12_33  and  N11_34
REMARK    9  A    between atoms: C12_33  and  N12_38
ROOT
HETATM    1  N3  UNL     1      20.547  31.630  20.967  1.00  0.00    -0.018 N
HETATM    2  C4  UNL     1      20.533  31.237  22.377  1.00  0.00     0.195 C
ENDROOT
BRANCH   1   3
HETATM    3  C3  UNL     1      19.703  32.697  20.576  1.00  0.00     0.714 A
HETATM    4  N2  UNL     1      18.385  32.507  20.498  1.00  0.00    -0.021 N
HETATM    5  C2  UNL     1      17.560  33.489  20.123  1.00  0.00     0.693 A
ATOM      6  H2  UNL     1      17.998  31.592  20.729  1.00  0.00     0.203 HD
HETATM    7  N13 UNL     1      18.095  34.688  19.824  1.00  0.00    -0.176 N
HETATM    8  C11 UNL     1      19.423  34.916  19.891  1.00  0.00     0.170 A
ATOM      9  H13 UNL     1      17.477  35.448  19.537  1.00  0.00     0.185 HD
HETATM   10  N10 UNL     1      20.207  33.916  20.266  1.00  0.00    -0.175 N
ATOM     11  H10 UNL     1      21.215  34.068  20.324  1.00  0.00     0.185 HD
BRANCH   5  12
HETATM   12  N1  UNL     1      16.292  33.278  20.061  1.00  0.00    -0.230 N
HETATM   13  C1  UNL     1      15.424  33.710  21.132  1.00  0.00     0.165 C
ATOM     14  H1  UNL     1      15.898  32.802  19.249  1.00  0.00     0.177 HD
ENDBRANCH   5  12
BRANCH   8  15
HETATM   15  C12 UNL     1      19.942  36.273  19.539  1.00  0.00     0.445 C
BRANCH  15  16
HETATM   16  N11 UNL     1      19.295  36.783  18.335  1.00  0.00    -0.043 N
ATOM     17 3H11 UNL     1      19.360  36.119  17.563  1.00  0.00     0.277 HD
ATOM     18 2H11 UNL     1      18.280  36.805  18.435  1.00  0.00     0.277 HD
ATOM     19 1H11 UNL     1      19.669  37.697  18.079  1.00  0.00     0.277 HD
ENDBRANCH  15  16
BRANCH  15  20
HETATM   20  N12 UNL     1      21.352  36.143  19.203  1.00  0.00    -0.043 N
ATOM     21 3H12 UNL     1      21.965  36.330  19.996  1.00  0.00     0.277 HD
ATOM     22 2H12 UNL     1      21.631  35.176  19.039  1.00  0.00     0.277 HD
ATOM     23 1H12 UNL     1      21.544  36.749  18.405  1.00  0.00     0.277 HD
ENDBRANCH  15  20
ENDBRANCH   8  15
ENDBRANCH   1   3
BRANCH   1  24
HETATM   24  C5  UNL     1      21.410  30.935  20.096  1.00  0.00     0.702 A
HETATM   25  N4  UNL     1      22.675  31.370  19.965  1.00  0.00    -0.174 N
HETATM   26  C6  UNL     1      23.527  30.749  19.132  1.00  0.00     0.147 A
ATOM     27  H4  UNL     1      22.991  32.177  20.502  1.00  0.00     0.186 HD
HETATM   28  C7  UNL     1      23.038  29.665  18.436  1.00  0.00     0.140 A
HETATM   29  N6  UNL     1      23.596  28.827  17.533  1.00  0.00    -0.279 N
HETATM   30  C10 UNL     1      21.728  29.220  18.574  1.00  0.00     0.173 A
HETATM   31  N7  UNL     1      22.701  27.953  17.159  1.00  0.00    -0.236 N
ATOM     32  H6  UNL     1      24.558  28.871  17.200  1.00  0.00     0.189 HD
HETATM   33  N8  UNL     1      21.528  28.154  17.776  1.00  0.00    -0.230 N
ATOM     34  H7  UNL     1      22.873  27.210  16.482  1.00  0.00     0.208 HD
HETATM   35  N9  UNL     1      20.927  29.865  19.408  1.00  0.00    -0.172 N
ATOM     36  H9  UNL     1      19.961  29.564  19.533  1.00  0.00     0.186 HD
BRANCH  26  37
HETATM   37  N5  UNL     1      24.751  31.118  18.971  1.00  0.00    -0.383 N
ATOM     38  H52 UNL     1      25.012  32.093  19.116  1.00  0.00     0.157 HD
ATOM     39  H51 UNL     1      25.496  30.477  18.696  1.00  0.00     0.157 HD
ENDBRANCH  26  37
BRANCH  33  40
HETATM   40  C8  UNL     1      20.340  27.361  17.573  1.00  0.00     0.240 C
HETATM   41  C9  UNL     1      20.463  26.384  16.426  1.00  0.00     0.065 C
BRANCH  40  42
HETATM   42  O1  UNL     1      19.175  28.112  17.520  1.00  0.00    -0.375 OA
ATOM     43  H1  UNL     1      18.511  27.742  16.950  1.00  0.00     0.212 HD
ENDBRANCH  40  42
ENDBRANCH  33  40
ENDBRANCH   1  24
TORSDOF 9
ENDMDL