MODEL 2
REMARK VINA RESULT: -7.877682031      1.244      1.287
REMARK  4 active torsions:
REMARK  status: ('A' for Active; 'I' for Inactive)
REMARK    1  A    between atoms: C4_6  and  C5_7
REMARK    2  A    between atoms: C5_7  and  C6_8
REMARK    3  A    between atoms: N2_12  and  C10_13
REMARK    4  A    between atoms: C10_13  and  C11_14
ROOT
HETATM    1  C1  UNL     1      30.882  77.933  17.417  1.00  0.00     0.068 C
HETATM    2  C2  UNL     1      31.220  76.976  18.522  1.00  0.00     0.012 A
HETATM    3  N1  UNL     1      31.570  77.479  19.704  1.00  0.00    -0.357 N
ATOM      4  H1  UNL     1      31.598  78.490  19.831  1.00  0.00     0.166 HD
HETATM    5  C3  UNL     1      31.882  76.683  20.721  1.00  0.00     0.068 A
HETATM    6  C4  UNL     1      32.253  76.959  22.017  1.00  0.00    -0.013 A
HETATM    7  C9  UNL     1      32.430  75.735  22.600  1.00  0.00     0.101 A
HETATM    8  N2  UNL     1      32.173  74.735  21.679  1.00  0.00    -0.346 N
HETATM    9  C12 UNL     1      31.836  75.290  20.526  1.00  0.00     0.069 A
HETATM   10  C13 UNL     1      31.476  74.756  19.311  1.00  0.00    -0.025 A
HETATM   11  C14 UNL     1      31.379  73.319  19.027  1.00  0.00     0.051 C
HETATM   12  C15 UNL     1      31.160  75.642  18.282  1.00  0.00    -0.032 A
HETATM   13  C16 UNL     1      30.769  75.133  16.957  1.00  0.00     0.050 C
ENDROOT
BRANCH   6  14
HETATM   14  C5  UNL     1      32.439  78.278  22.647  1.00  0.00     0.046 C
BRANCH  14  15
HETATM   15  C6  UNL     1      31.306  79.218  22.515  1.00  0.00    -0.018 C
HETATM   16  C7  UNL     1      31.832  80.582  23.022  1.00  0.00     0.010 C
HETATM   17  C8  UNL     1      30.091  78.914  23.348  1.00  0.00     0.010 C
ENDBRANCH  14  15
ENDBRANCH   6  14
BRANCH   8  18
HETATM   18  C10 UNL     1      32.308  73.330  22.005  1.00  0.00     0.228 C
BRANCH  18  19
HETATM   19  C11 UNL     1      33.757  73.042  22.178  1.00  0.00     0.249 C
HETATM   20  N3  UNL     1      34.697  73.127  21.119  1.00  0.00    -0.061 NA
HETATM   21  O1  UNL     1      34.175  72.705  23.309  1.00  0.00    -0.275 OA
ENDBRANCH  18  19
ENDBRANCH   8  18
TORSDOF 4
ENDMDL