MODEL 5
REMARK VINA RESULT: -5.991719531      2.319      3.049
REMARK  6 active torsions:
REMARK  status: ('A' for Active; 'I' for Inactive)
REMARK    1  A    between atoms: C2_2  and  C3_3
REMARK    2  A    between atoms: C3_3  and  C4_4
REMARK    3  A    between atoms: C4_4  and  C5_5
REMARK    4  A    between atoms: C5_5  and  N1_6
REMARK    5  A    between atoms: N1_6  and  C6_8
REMARK    6  A    between atoms: C6_8  and  N2_10
ROOT
HETATM    1  N2  UNL     1      33.529  72.900  22.374  1.00  0.00    -0.353 N
HETATM    2  C7  UNL     1      34.372  73.537  21.390  1.00  0.00     0.131 C
HETATM    3  C8  UNL     1      34.619  72.666  20.190  1.00  0.00     0.078 C
HETATM    4  C9  UNL     1      35.296  71.412  20.709  1.00  0.00     0.025 A
HETATM    5  N3  UNL     1      36.355  70.834  20.247  1.00  0.00    -0.362 N
ATOM      6  H3  UNL     1      36.836  71.226  19.438  1.00  0.00     0.165 HD
HETATM    7  C10 UNL     1      36.815  69.735  20.823  1.00  0.00     0.138 A
HETATM    8  S2  UNL     1      35.696  69.496  22.091  1.00  0.00    -0.086 SA
HETATM    9  C11 UNL     1      34.684  70.843  21.803  1.00  0.00     0.024 A
HETATM   10  C12 UNL     1      33.446  71.448  22.410  1.00  0.00     0.173 C
ENDROOT
BRANCH   1  11
HETATM   11  C6  UNL     1      32.770  73.627  23.321  1.00  0.00     0.170 C
HETATM   12  S1  UNL     1      32.985  73.428  24.926  1.00  0.00    -0.041 SA
BRANCH  11  13
HETATM   13  N1  UNL     1      31.788  74.561  22.909  1.00  0.00    -0.367 N
ATOM     14  H1  UNL     1      31.107  74.280  22.203  1.00  0.00     0.161 HD
BRANCH  13  15
HETATM   15  C5  UNL     1      31.718  75.908  23.460  1.00  0.00     0.122 C
BRANCH  15  16
HETATM   16  C4  UNL     1      32.356  76.859  22.480  1.00  0.00     0.020 C
BRANCH  16  17
HETATM   17  C3  UNL     1      32.106  76.486  21.055  1.00  0.00     0.001 C
BRANCH  17  18
HETATM   18  C2  UNL     1      31.775  77.759  20.295  1.00  0.00    -0.004 C
HETATM   19  C1  UNL     1      31.264  77.442  18.901  1.00  0.00     0.005 C
ENDBRANCH  17  18
ENDBRANCH  16  17
ENDBRANCH  15  16
ENDBRANCH  13  15
ENDBRANCH  11  13
ENDBRANCH   1  11
TORSDOF 6
ENDMDL