MODEL 3
REMARK VINA RESULT: -6.882055398      2.124      3.353
REMARK  5 active torsions:
REMARK  status: ('A' for Active; 'I' for Inactive)
REMARK    1  A    between atoms: C2_2  and  N1_3
REMARK    2  A    between atoms: N1_3  and  C3_4
REMARK    3  A    between atoms: N1_3  and  C5_6
REMARK    4  A    between atoms: C5_6  and  C6_7
REMARK    5  A    between atoms: C6_7  and  N2_8
ROOT
HETATM    1  N2  UNL     1      32.369  74.316  20.840  1.00  0.00    -0.353 N
ATOM      2  H2  UNL     1      32.576  74.630  21.789  1.00  0.00     0.166 HD
HETATM    3  C7  UNL     1      31.971  75.255  20.126  1.00  0.00     0.119 A
HETATM    4  N3  UNL     1      31.564  75.361  18.780  1.00  0.00    -0.330 N
ATOM      5  H3  UNL     1      31.526  74.593  18.111  1.00  0.00     0.168 HD
HETATM    6  C8  UNL     1      31.212  76.730  18.500  1.00  0.00     0.137 A
HETATM    7  S1  UNL     1      30.687  77.269  17.032  1.00  0.00    -0.057 SA
HETATM    8  C9  UNL     1      31.409  77.501  19.721  1.00  0.00     0.128 A
HETATM    9  O1  UNL     1      31.318  78.715  20.248  1.00  0.00    -0.311 OA
HETATM   10  C10 UNL     1      31.674  78.728  21.503  1.00  0.00     0.057 A
HETATM   11  C11 UNL     1      31.728  79.852  22.481  1.00  0.00     0.077 C
HETATM   12  C12 UNL     1      32.024  77.409  21.814  1.00  0.00    -0.016 A
HETATM   13  C13 UNL     1      32.495  76.909  23.127  1.00  0.00     0.052 C
HETATM   14  C14 UNL     1      31.856  76.636  20.682  1.00  0.00     0.053 A
ENDROOT
BRANCH   1  15
HETATM   15  C6  UNL     1      32.610  72.945  20.689  1.00  0.00     0.092 C
BRANCH  15  16
HETATM   16  C5  UNL     1      32.442  72.295  22.042  1.00  0.00     0.317 C
BRANCH  16  17
HETATM   17  N1  UNL     1      33.713  72.120  22.776  1.00  0.00     0.092 N
BRANCH  17  18
HETATM   18  C2  UNL     1      34.065  70.707  22.450  1.00  0.00     0.268 C
HETATM   19  C1  UNL     1      33.299  69.822  23.389  1.00  0.00     0.037 C
ENDBRANCH  17  18
BRANCH  17  20
HETATM   20  C3  UNL     1      33.306  72.156  24.178  1.00  0.00     0.268 C
HETATM   21  C4  UNL     1      32.754  73.481  24.617  1.00  0.00     0.037 C
ENDBRANCH  17  20
ENDBRANCH  16  17
ENDBRANCH  15  16
ENDBRANCH   1  15
TORSDOF 5
ENDMDL