MODEL 1
REMARK VINA RESULT: -6.724365243      0.000      0.000
REMARK  5 active torsions:
REMARK  status: ('A' for Active; 'I' for Inactive)
REMARK    1  A    between atoms: C2_2  and  N1_3
REMARK    2  A    between atoms: C2_2  and  C9_14
REMARK    3  A    between atoms: N1_3  and  C3_5
REMARK    4  A    between atoms: C3_5  and  C4_6
REMARK       I    between atoms: C4_6  and  N2_8
REMARK    5  A    between atoms: C9_14  and  C12_17
ROOT
HETATM    1  N1  UNL     1      34.180  71.162  21.932  1.00  0.00    -0.409 N
ATOM      2  H1  UNL     1      34.814  71.362  21.159  1.00  0.00     0.154 HD
ENDROOT
BRANCH   1   3
HETATM    3  C2  UNL     1      33.112  72.054  22.285  1.00  0.00     0.081 C
HETATM    4  C1  UNL     1      32.691  71.923  23.718  1.00  0.00     0.032 C
BRANCH   3   5
HETATM    5  C9  UNL     1      33.451  73.419  21.814  1.00  0.00    -0.021 C
HETATM    6  C10 UNL     1      34.620  73.248  20.829  1.00  0.00     0.018 C
HETATM    7  C11 UNL     1      34.001  74.291  22.923  1.00  0.00     0.018 C
BRANCH   5   8
HETATM    8  C12 UNL     1      32.373  74.186  21.099  1.00  0.00    -0.043 C
HETATM    9  C13 UNL     1      31.200  73.409  20.622  1.00  0.00     0.015 C
HETATM   10  C14 UNL     1      32.922  74.934  19.896  1.00  0.00     0.015 C
HETATM   11  C15 UNL     1      31.808  75.245  22.035  1.00  0.00     0.015 C
ENDBRANCH   5   8
ENDBRANCH   3   5
ENDBRANCH   1   3
BRANCH   1  12
HETATM   12  C3  UNL     1      34.305  69.990  22.716  1.00  0.00     0.217 C
BRANCH  12  13
HETATM   13  C4  UNL     1      35.517  69.247  22.287  1.00  0.00     0.237 C
HETATM   14  O1  UNL     1      36.619  69.588  22.785  1.00  0.00    -0.272 OA
HETATM   15  N2  UNL     1      35.440  68.177  21.344  1.00  0.00    -0.347 N
HETATM   16  C5  UNL     1      36.638  67.467  20.945  1.00  0.00     0.152 C
HETATM   17  C8  UNL     1      34.193  67.754  20.750  1.00  0.00     0.152 C
HETATM   18  C6  UNL     1      36.483  67.105  19.486  1.00  0.00     0.187 C
HETATM   19  O2  UNL     1      35.400  66.309  19.221  1.00  0.00    -0.388 OA
HETATM   20  C7  UNL     1      34.336  66.428  20.079  1.00  0.00     0.187 C
ENDBRANCH  12  13
ENDBRANCH   1  12
TORSDOF 5
ENDMDL