MODEL 3
REMARK VINA RESULT: -6.667806718      0.896      1.654
REMARK  5 active torsions:
REMARK  status: ('A' for Active; 'I' for Inactive)
REMARK    1  A    between atoms: C2_2  and  C3_3
REMARK    2  A    between atoms: C3_3  and  C4_4
REMARK    3  A    between atoms: C4_4  and  N1_6
REMARK    4  A    between atoms: N1_6  and  C6_8
REMARK    5  A    between atoms: N4_16  and  C9_17
ROOT
HETATM    1  C6  UNL     1      33.162  74.709  23.194  1.00  0.00     0.117 A
HETATM    2  N2  UNL     1      32.625  74.544  24.442  1.00  0.00    -0.338 N
ATOM      3  H2  UNL     1      32.299  75.384  24.919  1.00  0.00     0.168 HD
HETATM    4  C7  UNL     1      32.489  73.399  25.088  1.00  0.00     0.182 A
HETATM    5  N3  UNL     1      32.924  72.294  24.450  1.00  0.00    -0.345 N
ATOM      6  H3  UNL     1      32.844  71.383  24.903  1.00  0.00     0.167 HD
HETATM    7  C8  UNL     1      33.469  72.384  23.209  1.00  0.00     0.107 A
HETATM    8  S1  UNL     1      34.114  71.233  22.115  1.00  0.00     0.007 SA
HETATM    9  N4  UNL     1      34.539  72.267  20.858  1.00  0.00    -0.322 N
HETATM   10  C12 UNL     1      34.176  73.474  21.305  1.00  0.00     0.117 A
HETATM   11  C13 UNL     1      33.617  73.556  22.526  1.00  0.00     0.059 A
ENDROOT
BRANCH   1  12
HETATM   12  N1  UNL     1      33.191  75.870  22.781  1.00  0.00    -0.371 N
ATOM     13  H1  UNL     1      34.096  76.238  23.076  1.00  0.00     0.161 HD
BRANCH  12  14
HETATM   14  C4  UNL     1      32.587  76.890  22.117  1.00  0.00     0.079 C
HETATM   15  C5  UNL     1      31.508  77.644  22.900  1.00  0.00     0.032 C
BRANCH  14  16
HETATM   16  C3  UNL     1      31.942  76.503  20.781  1.00  0.00     0.024 C
BRANCH  16  17
HETATM   17  C2  UNL     1      31.751  77.767  19.957  1.00  0.00    -0.003 C
HETATM   18  C1  UNL     1      31.112  77.458  18.622  1.00  0.00     0.005 C
ENDBRANCH  16  17
ENDBRANCH  14  16
ENDBRANCH  12  14
ENDBRANCH   1  12
BRANCH   9  19
HETATM   19  C9  UNL     1      35.165  71.942  19.560  1.00  0.00     0.088 C
HETATM   20  C10 UNL     1      34.495  70.687  19.064  1.00  0.00     0.033 C
HETATM   21  C11 UNL     1      36.632  71.656  19.734  1.00  0.00     0.033 C
ENDBRANCH   9  19
TORSDOF 5
ENDMDL