MODEL 1
REMARK VINA RESULT: -6.448019180      0.000      0.000
REMARK  6 active torsions:
REMARK  status: ('A' for Active; 'I' for Inactive)
REMARK    1  A    between atoms: N1_2  and  C3_4
REMARK    2  A    between atoms: C3_4  and  N2_5
REMARK    3  A    between atoms: C3_4  and  C10_15
REMARK    4  A    between atoms: N2_5  and  C4_7
REMARK    5  A    between atoms: C4_7  and  C5_9
REMARK    6  A    between atoms: C5_9  and  C6_10
ROOT
HETATM    1  C3  UNL     1      32.150  74.790  20.849  1.00  0.00     0.094 C
ENDROOT
BRANCH   1   2
HETATM    2  N1  UNL     1      32.897  73.627  20.469  1.00  0.00    -0.277 NA
HETATM    3  C1  UNL     1      34.258  73.543  20.830  1.00  0.00     0.118 C
HETATM    4  C2  UNL     1      32.252  72.380  20.891  1.00  0.00     0.118 C
ENDBRANCH   1   2
BRANCH   1   5
HETATM    5  N2  UNL     1      32.536  75.407  22.071  1.00  0.00    -0.340 N
ATOM      6  H2  UNL     1      33.351  76.015  21.995  1.00  0.00     0.167 HD
BRANCH   5   7
HETATM    7  C4  UNL     1      31.997  75.328  23.354  1.00  0.00     0.084 C
HETATM    8  S1  UNL     1      32.454  74.077  24.333  1.00  0.00    -0.065 SA
BRANCH   7   9
HETATM    9  C5  UNL     1      31.040  76.275  23.922  1.00  0.00     0.134 C
BRANCH   9  10
HETATM   10  C6  UNL     1      31.294  77.678  23.469  1.00  0.00     0.059 A
HETATM   11  C7  UNL     1      30.412  78.680  23.174  1.00  0.00     0.035 A
HETATM   12  C8  UNL     1      31.158  79.798  22.800  1.00  0.00     0.027 A
HETATM   13  C9  UNL     1      32.470  79.390  22.895  1.00  0.00     0.142 A
HETATM   14  O1  UNL     1      32.498  78.160  23.285  1.00  0.00    -0.327 OA
ENDBRANCH   9  10
ENDBRANCH   7   9
ENDBRANCH   5   7
ENDBRANCH   1   5
BRANCH   1  15
HETATM   15  C10 UNL     1      31.733  75.676  19.753  1.00  0.00     0.018 A
HETATM   16  C11 UNL     1      31.705  77.070  19.924  1.00  0.00     0.017 A
HETATM   17  C12 UNL     1      31.283  77.904  18.914  1.00  0.00     0.018 A
HETATM   18  C13 UNL     1      30.874  77.397  17.701  1.00  0.00     0.087 A
HETATM   19  N3  UNL     1      30.904  76.067  17.545  1.00  0.00    -0.374 N
HETATM   20  C14 UNL     1      31.319  75.216  18.535  1.00  0.00     0.102 A
ATOM     21  H3  UNL     1      30.607  75.672  16.652  1.00  0.00     0.164 HD
ENDBRANCH   1  15
TORSDOF 6
ENDMDL