MODEL 1
REMARK VINA RESULT: -7.838618910      0.000      0.000
REMARK  5 active torsions:
REMARK  status: ('A' for Active; 'I' for Inactive)
REMARK    1  A    between atoms: C2_2  and  C10_15
REMARK       I    between atoms: N1_3  and  C3_5
REMARK       I    between atoms: C3_5  and  N2_7
REMARK    2  A    between atoms: N2_7  and  C4_9
REMARK    3  A    between atoms: C4_9  and  C5_10
REMARK    4  A    between atoms: C5_10  and  C6_11
REMARK    5  A    between atoms: C10_15  and  C11_17
ROOT
HETATM    1  C1  UNL     1      34.057  74.320  22.932  1.00  0.00     0.072 C
HETATM    2  C2  UNL     1      32.847  74.523  23.719  1.00  0.00     0.062 C
HETATM    3  N1  UNL     1      32.452  73.563  24.527  1.00  0.00    -0.309 N
ATOM      4  H1  UNL     1      31.611  73.671  25.092  1.00  0.00     0.170 HD
HETATM    5  C3  UNL     1      33.219  72.382  24.593  1.00  0.00     0.320 C
HETATM    6  O1  UNL     1      34.161  72.379  25.417  1.00  0.00    -0.247 OA
HETATM    7  N2  UNL     1      32.904  71.286  23.755  1.00  0.00    -0.343 N
ATOM      8  H2  UNL     1      32.121  71.378  23.107  1.00  0.00     0.164 HD
ENDROOT
BRANCH   2   9
HETATM    9  C10 UNL     1      32.050  75.751  23.649  1.00  0.00     0.220 C
HETATM   10  O2  UNL     1      31.499  76.157  24.681  1.00  0.00    -0.284 OA
BRANCH   9  11
HETATM   11  C11 UNL     1      31.907  76.474  22.406  1.00  0.00     0.084 A
HETATM   12  C12 UNL     1      31.779  77.870  22.455  1.00  0.00     0.034 A
HETATM   13  C13 UNL     1      31.640  78.615  21.311  1.00  0.00     0.004 A
HETATM   14  C14 UNL     1      31.623  78.008  20.066  1.00  0.00     0.017 A
HETATM   15  C15 UNL     1      31.752  76.633  20.033  1.00  0.00     0.088 A
HETATM   16  N3  UNL     1      31.884  75.956  21.181  1.00  0.00    -0.363 N
ATOM     17  H3  UNL     1      31.976  74.943  21.109  1.00  0.00     0.165 HD
ENDBRANCH   9  11
ENDBRANCH   2   9
BRANCH   7  18
HETATM   18  C4  UNL     1      33.638  70.048  23.774  1.00  0.00     0.125 C
BRANCH  18  19
HETATM   19  C5  UNL     1      34.758  70.096  22.799  1.00  0.00     0.028 C
BRANCH  19  20
HETATM   20  C6  UNL     1      34.798  68.884  21.887  1.00  0.00    -0.050 C
HETATM   21  C7  UNL     1      36.157  68.258  21.901  1.00  0.00     0.014 C
HETATM   22  C8  UNL     1      33.760  67.862  22.268  1.00  0.00     0.014 C
HETATM   23  C9  UNL     1      34.434  69.392  20.492  1.00  0.00     0.014 C
ENDBRANCH  19  20
ENDBRANCH  18  19
ENDBRANCH   7  18
TORSDOF 5
ENDMDL