MODEL 3
REMARK VINA RESULT: -8.170545908      1.110      1.202
REMARK  16 active torsions:
REMARK  status: ('A' for Active; 'I' for Inactive)
REMARK    1  A    between atoms: N1_2  and  N2_4
REMARK    2  A    between atoms: N2_4  and  C2_6
REMARK    3  A    between atoms: C2_6  and  N3_7
REMARK    4  A    between atoms: C2_6  and  C3_11
REMARK    5  A    between atoms: N3_7  and  O1_9
REMARK    6  A    between atoms: C4_16  and  N6_17
REMARK    7  A    between atoms: N6_17  and  N7_19
REMARK    8  A    between atoms: N7_19  and  C5_21
REMARK    9  A    between atoms: C5_21  and  C6_22
REMARK   10  A    between atoms: C6_22  and  O2_23
REMARK   11  A    between atoms: C6_22  and  C8_25
REMARK   12  A    between atoms: C10_29  and  N9_30
REMARK   13  A    between atoms: N9_30  and  N10_32
REMARK   14  A    between atoms: N10_32  and  C11_34
REMARK   15  A    between atoms: C11_34  and  C12_35
REMARK   16  A    between atoms: C16_43  and  O5_44
ROOT
HETATM    1  N6  UNL     1      28.923 -34.986  11.285  1.00  0.00    -0.131 N
ATOM      2  H6  UNL     1      29.830 -35.418  11.108  1.00  0.00     0.205 HD
ENDROOT
BRANCH   1   3
HETATM    3  C4  UNL     1      28.116 -34.798  10.295  1.00  0.00     0.713 A
HETATM    4  N5  UNL     1      28.381 -35.187   9.034  1.00  0.00    -0.130 N
HETATM    5  N4  UNL     1      27.522 -34.975   8.041  1.00  0.00    -0.279 N
ATOM      6  H5  UNL     1      29.264 -35.657   8.835  1.00  0.00     0.205 HD
HETATM    7  C3  UNL     1      26.338 -34.362   8.219  1.00  0.00     0.147 A
ATOM      8  H4  UNL     1      27.773 -35.290   7.103  1.00  0.00     0.188 HD
HETATM    9  C16 UNL     1      26.048 -33.954   9.508  1.00  0.00     0.187 A
HETATM   10  N11 UNL     1      26.939 -34.181  10.506  1.00  0.00    -0.166 N
ATOM     11  H11 UNL     1      26.707 -33.873  11.450  1.00  0.00     0.186 HD
BRANCH   7  12
HETATM   12  C2  UNL     1      25.386 -34.121   7.144  1.00  0.00     0.172 C
BRANCH  12  13
HETATM   13  N2  UNL     1      25.702 -33.292   6.035  1.00  0.00    -0.283 N
ATOM     14  H2  UNL     1      25.784 -32.281   6.151  1.00  0.00     0.188 HD
BRANCH  13  15
HETATM   15  N1  UNL     1      25.897 -33.874   4.795  1.00  0.00    -0.320 N
HETATM   16  C1  UNL     1      26.057 -33.219   3.708  1.00  0.00     0.139 C
ATOM     17  H1  UNL     1      25.915 -34.893   4.744  1.00  0.00     0.185 HD
ENDBRANCH  13  15
ENDBRANCH  12  13
BRANCH  12  18
HETATM   18  N3  UNL     1      24.215 -34.654   7.158  1.00  0.00    -0.250 N
ATOM     19  H3  UNL     1      23.576 -34.399   7.910  1.00  0.00     0.196 HD
BRANCH  18  20
HETATM   20  O1  UNL     1      23.782 -35.546   6.213  1.00  0.00    -0.288 OA
ATOM     21  H1  UNL     1      23.538 -35.294   5.330  1.00  0.00     0.244 HD
ENDBRANCH  18  20
ENDBRANCH  12  18
ENDBRANCH   7  12
BRANCH   9  22
HETATM   22  O5  UNL     1      24.845 -33.322   9.739  1.00  0.00    -0.344 OA
ATOM     23  H5  UNL     1      24.046 -33.826   9.647  1.00  0.00     0.219 HD
ENDBRANCH   9  22
ENDBRANCH   1   3
BRANCH   1  24
HETATM   24  N7  UNL     1      28.595 -34.620  12.580  1.00  0.00    -0.298 N
ATOM     25  H7  UNL     1      27.887 -35.139  13.098  1.00  0.00     0.186 HD
BRANCH  24  26
HETATM   26  C5  UNL     1      29.189 -33.625  13.118  1.00  0.00     0.119 C
BRANCH  26  27
HETATM   27  C6  UNL     1      28.716 -32.249  12.884  1.00  0.00     0.219 C
BRANCH  27  28
HETATM   28  O2  UNL     1      28.873 -31.842  11.562  1.00  0.00    -0.379 OA
HETATM   29  C7  UNL     1      30.155 -31.413  11.269  1.00  0.00     0.202 C
ENDBRANCH  27  28
BRANCH  27  30
HETATM   30  C8  UNL     1      27.296 -32.075  13.264  1.00  0.00     0.106 A
HETATM   31  C9  UNL     1      26.757 -30.914  13.793  1.00  0.00     0.127 A
HETATM   32  N8  UNL     1      25.466 -31.137  14.005  1.00  0.00    -0.328 N
HETATM   33  C10 UNL     1      25.182 -32.394  13.626  1.00  0.00     0.243 A
ATOM     34  H8  UNL     1      24.801 -30.466  14.390  1.00  0.00     0.168 HD
HETATM   35  O4  UNL     1      26.301 -32.923  13.189  1.00  0.00    -0.278 OA
BRANCH  33  36
HETATM   36  N9  UNL     1      24.030 -33.003  13.669  1.00  0.00    -0.265 N
ATOM     37  H9  UNL     1      23.982 -34.020  13.731  1.00  0.00     0.190 HD
BRANCH  36  38
HETATM   38  N10 UNL     1      22.867 -32.236  13.631  1.00  0.00    -0.306 N
ATOM     39  H10 UNL     1      22.808 -31.407  13.040  1.00  0.00     0.186 HD
BRANCH  38  40
HETATM   40  C11 UNL     1      21.875 -32.596  14.355  1.00  0.00     0.144 C
BRANCH  40  41
HETATM   41  C12 UNL     1      21.916 -32.517  15.811  1.00  0.00     0.091 A
HETATM   42  C13 UNL     1      21.115 -33.212  16.689  1.00  0.00     0.040 A
HETATM   43  C14 UNL     1      21.520 -32.810  17.951  1.00  0.00     0.027 A
HETATM   44  C15 UNL     1      22.539 -31.899  17.792  1.00  0.00     0.142 A
HETATM   45  O3  UNL     1      22.745 -31.751  16.506  1.00  0.00    -0.321 OA
ENDBRANCH  40  41
ENDBRANCH  38  40
ENDBRANCH  36  38
ENDBRANCH  33  36
ENDBRANCH  27  30
ENDBRANCH  26  27
ENDBRANCH  24  26
ENDBRANCH   1  24
TORSDOF 16
ENDMDL