MODEL 4
REMARK VINA RESULT: -6.780771570      4.319      6.893
REMARK  13 active torsions:
REMARK  status: ('A' for Active; 'I' for Inactive)
REMARK    1  A    between atoms: S1_2  and  C2_3
REMARK    2  A    between atoms: C3_6  and  S2_7
REMARK    3  A    between atoms: S2_7  and  C4_8
REMARK    4  A    between atoms: C4_8  and  C5_9
REMARK    5  A    between atoms: C5_9  and  N2_10
REMARK    6  A    between atoms: C5_9  and  N4_15
REMARK    7  A    between atoms: N2_10  and  N3_12
REMARK    8  A    between atoms: N3_12  and  O1_13
REMARK    9  A    between atoms: N4_15  and  N5_17
REMARK   10  A    between atoms: N5_17  and  C6_19
REMARK   11  A    between atoms: C9_27  and  N8_28
REMARK   12  A    between atoms: C11_34  and  N10_35
REMARK   13  A    between atoms: C12_38  and  N11_39
ROOT
HETATM    1  C5  UNL     1      27.297 -32.102  10.351  1.00  0.00     0.119 C
ENDROOT
BRANCH   1   2
HETATM    2  C4  UNL     1      28.730 -32.360  10.071  1.00  0.00     0.161 C
BRANCH   2   3
HETATM    3  S2  UNL     1      29.696 -31.433  11.276  1.00  0.00    -0.086 SA
BRANCH   3   4
HETATM    4  C3  UNL     1      30.081 -29.780  10.691  1.00  0.00     0.147 A
HETATM    5  N1  UNL     1      29.262 -28.766  11.022  1.00  0.00    -0.329 N
HETATM    6  C2  UNL     1      29.481 -27.487  10.621  1.00  0.00     0.108 A
ATOM      7  H1  UNL     1      28.444 -28.966  11.596  1.00  0.00     0.168 HD
HETATM    8  C12 UNL     1      30.586 -27.221   9.846  1.00  0.00     0.179 A
HETATM    9  C11 UNL     1      31.430 -28.260   9.502  1.00  0.00     0.137 A
HETATM   10  N9  UNL     1      31.156 -29.524   9.936  1.00  0.00    -0.321 N
ATOM     11  H9  UNL     1      31.782 -30.287   9.681  1.00  0.00     0.169 HD
BRANCH   6  12
HETATM   12  S1  UNL     1      28.382 -26.152  11.071  1.00  0.00    -0.114 SA
HETATM   13  C1  UNL     1      28.981 -25.502  12.676  1.00  0.00     0.097 C
ENDBRANCH   6  12
BRANCH   8  14
HETATM   14  N11 UNL     1      30.814 -25.893   9.429  1.00  0.00    -0.109 N
HETATM   15  O4  UNL     1      30.276 -25.452   8.411  1.00  0.00    -0.532 OA
HETATM   16  O5  UNL     1      31.637 -25.093  10.165  1.00  0.00    -0.532 OA
ENDBRANCH   8  14
BRANCH   9  17
HETATM   17  N10 UNL     1      32.452 -28.005   8.784  1.00  0.00    -0.383 N
ATOM     18 2H10 UNL     1      33.214 -27.465   9.193  1.00  0.00     0.157 HD
ATOM     19 1H10 UNL     1      32.523 -28.326   7.818  1.00  0.00     0.157 HD
ENDBRANCH   9  17
ENDBRANCH   3   4
ENDBRANCH   2   3
ENDBRANCH   1   2
BRANCH   1  20
HETATM   20  N2  UNL     1      26.462 -32.240   9.383  1.00  0.00    -0.265 N
ATOM     21  H2  UNL     1      26.537 -31.608   8.586  1.00  0.00     0.186 HD
BRANCH  20  22
HETATM   22  N3  UNL     1      25.460 -33.209   9.366  1.00  0.00     0.020 NA
BRANCH  22  23
HETATM   23  O1  UNL     1      24.337 -32.620   9.897  1.00  0.00    -0.277 OA
ATOM     24  H1  UNL     1      24.085 -33.147  10.647  1.00  0.00     0.240 HD
ENDBRANCH  22  23
ENDBRANCH  20  22
ENDBRANCH   1  20
BRANCH   1  25
HETATM   25  N4  UNL     1      26.847 -31.718  11.634  1.00  0.00    -0.287 N
ATOM     26  H4  UNL     1      26.902 -30.742  11.924  1.00  0.00     0.188 HD
BRANCH  25  27
HETATM   27  N5  UNL     1      26.330 -32.673  12.500  1.00  0.00    -0.298 N
ATOM     28  H5  UNL     1      26.877 -33.518  12.659  1.00  0.00     0.187 HD
BRANCH  27  29
HETATM   29  C6  UNL     1      25.093 -32.547  13.176  1.00  0.00     0.066 A
HETATM   30  C7  UNL     1      24.387 -31.364  13.185  1.00  0.00     0.120 A
HETATM   31  N6  UNL     1      23.205 -31.251  13.833  1.00  0.00    -0.348 N
HETATM   32  C8  UNL     1      22.648 -32.287  14.505  1.00  0.00     0.132 A
ATOM     33  H6  UNL     1      22.717 -30.356  13.815  1.00  0.00     0.167 HD
HETATM   34  N7  UNL     1      21.514 -32.125  15.108  1.00  0.00    -0.383 N
HETATM   35  C9  UNL     1      23.317 -33.487  14.521  1.00  0.00     0.148 A
ATOM     36  H72 UNL     1      21.018 -31.235  15.096  1.00  0.00     0.157 HD
ATOM     37  H71 UNL     1      21.095 -32.905  15.614  1.00  0.00     0.157 HD
HETATM   38  C10 UNL     1      24.519 -33.597  13.862  1.00  0.00     0.072 A
BRANCH  35  39
HETATM   39  N8  UNL     1      22.800 -34.609  15.200  1.00  0.00    -0.112 N
HETATM   40  O2  UNL     1      23.502 -35.320  15.938  1.00  0.00    -0.532 OA
HETATM   41  O3  UNL     1      21.479 -34.938  15.050  1.00  0.00    -0.532 OA
ENDBRANCH  35  39
ENDBRANCH  27  29
ENDBRANCH  25  27
ENDBRANCH   1  25
TORSDOF 13
ENDMDL