MODEL 4
REMARK VINA RESULT: -5.355861649      1.830      2.880
REMARK  12 active torsions:
REMARK  status: ('A' for Active; 'I' for Inactive)
REMARK    1  A    between atoms: O1_2  and  C2_3
REMARK    2  A    between atoms: C2_3  and  O2_4
REMARK    3  A    between atoms: C2_3  and  C3_6
REMARK    4  A    between atoms: C3_6  and  O5_14
REMARK       I    between atoms: N1_7  and  C4_9
REMARK    5  A    between atoms: C4_9  and  O4_11
REMARK    6  A    between atoms: O5_14  and  C6_15
REMARK    7  A    between atoms: C7_17  and  C8_18
REMARK    8  A    between atoms: C8_18  and  N3_19
REMARK    9  A    between atoms: C11_22  and  O7_23
REMARK   10  A    between atoms: C15_30  and  N5_31
REMARK   11  A    between atoms: N5_31  and  C16_33
REMARK   12  A    between atoms: C16_33  and  O8_35
ROOT
HETATM    1  O4  UNL     1      25.609 -29.694  15.450  1.00  0.00    -0.186 OA
HETATM    2  C5  UNL     1      25.235 -28.397  15.652  1.00  0.00     0.238 C
HETATM    3  N2  UNL     1      24.907 -27.299  15.837  1.00  0.00    -0.163 NA
ENDROOT
BRANCH   1   4
HETATM    4  C4  UNL     1      24.807 -30.534  14.690  1.00  0.00     0.381 C
HETATM    5  N1  UNL     1      25.003 -30.584  13.268  1.00  0.00    -0.281 N
HETATM    6  C3  UNL     1      25.840 -31.457  12.816  1.00  0.00     0.181 C
ATOM      7  H1  UNL     1      24.502 -29.955  12.641  1.00  0.00     0.173 HD
HETATM    8  O3  UNL     1      23.934 -31.225  15.275  1.00  0.00    -0.237 OA
BRANCH   6   9
HETATM    9  C2  UNL     1      26.594 -32.394  13.684  1.00  0.00     0.332 C
BRANCH   9  10
HETATM   10  O1  UNL     1      26.954 -33.501  12.946  1.00  0.00    -0.359 OA
HETATM   11  C1  UNL     1      28.211 -33.991  13.255  1.00  0.00     0.205 C
ENDBRANCH   9  10
BRANCH   9  12
HETATM   12  O2  UNL     1      27.785 -31.747  14.071  1.00  0.00    -0.364 OA
ATOM     13  H2  UNL     1      28.026 -32.092  14.923  1.00  0.00     0.213 HD
ENDBRANCH   9  12
ENDBRANCH   6   9
BRANCH   6  14
HETATM   14  O5  UNL     1      26.017 -31.491  11.439  1.00  0.00    -0.299 OA
BRANCH  14  15
HETATM   15  C6  UNL     1      27.166 -31.011  10.797  1.00  0.00     0.305 C
HETATM   16  O6  UNL     1      28.048 -30.360  11.629  1.00  0.00    -0.345 OA
HETATM   17  C7  UNL     1      28.795 -29.447  10.892  1.00  0.00     0.201 C
HETATM   18  C11 UNL     1      30.178 -29.972  10.578  1.00  0.00     0.249 C
HETATM   19  N4  UNL     1      30.146 -31.181   9.803  1.00  0.00    -0.361 N
HETATM   20  C12 UNL     1      29.176 -32.237   9.759  1.00  0.00     0.041 A
ATOM     21  H4  UNL     1      30.945 -31.309   9.181  1.00  0.00     0.162 HD
HETATM   22  C13 UNL     1      29.677 -33.399   9.216  1.00  0.00     0.032 A
HETATM   23  C19 UNL     1      27.871 -32.172  10.190  1.00  0.00     0.025 A
HETATM   24  C14 UNL     1      28.875 -34.518   9.098  1.00  0.00     0.031 A
HETATM   25  C15 UNL     1      27.572 -34.478   9.522  1.00  0.00     0.030 A
HETATM   26  C18 UNL     1      27.097 -33.301  10.061  1.00  0.00     0.043 A
BRANCH  17  27
HETATM   27  C8  UNL     1      28.984 -28.140  11.643  1.00  0.00     0.307 C
BRANCH  27  28
HETATM   28  N3  UNL     1      29.460 -27.175  10.639  1.00  0.00     0.082 N
HETATM   29  C9  UNL     1      30.705 -26.566  11.066  1.00  0.00     0.309 C
HETATM   30  C10 UNL     1      28.440 -26.126  10.613  1.00  0.00     0.309 C
ENDBRANCH  27  28
ENDBRANCH  17  27
BRANCH  18  31
HETATM   31  O7  UNL     1      30.930 -30.135  11.744  1.00  0.00    -0.374 OA
ATOM     32  H7  UNL     1      30.815 -29.395  12.329  1.00  0.00     0.212 HD
ENDBRANCH  18  31
BRANCH  25  33
HETATM   33  N5  UNL     1      26.725 -35.608   9.418  1.00  0.00    -0.364 N
ATOM     34  H5  UNL     1      26.145 -35.849  10.222  1.00  0.00     0.162 HD
BRANCH  33  35
HETATM   35  C16 UNL     1      26.635 -36.427   8.256  1.00  0.00     0.213 C
HETATM   36  C17 UNL     1      27.374 -37.724   8.317  1.00  0.00     0.063 C
BRANCH  35  37
HETATM   37  O8  UNL     1      27.031 -35.645   7.149  1.00  0.00    -0.377 OA
ATOM     38  H8  UNL     1      27.276 -36.239   6.450  1.00  0.00     0.212 HD
ENDBRANCH  35  37
ENDBRANCH  33  35
ENDBRANCH  25  33
ENDBRANCH  14  15
ENDBRANCH   6  14
ENDBRANCH   1   4
TORSDOF 12
ENDMDL