MODEL 3
REMARK VINA RESULT: -6.055537801      1.368      3.258
REMARK  11 active torsions:
REMARK  status: ('A' for Active; 'I' for Inactive)
REMARK    1  A    between atoms: C2_2  and  O2_4
REMARK    2  A    between atoms: O2_4  and  C3_5
REMARK    3  A    between atoms: C4_6  and  N1_7
REMARK    4  A    between atoms: N1_7  and  C5_9
REMARK    5  A    between atoms: C7_11  and  S1_12
REMARK    6  A    between atoms: S1_12  and  C8_13
REMARK    7  A    between atoms: C9_18  and  N4_19
REMARK    8  A    between atoms: C11_23  and  N5_24
REMARK    9  A    between atoms: C12_29  and  O8_30
REMARK   10  A    between atoms: C13_32  and  C14_33
REMARK   11  A    between atoms: C14_33  and  O9_34
ROOT
HETATM    1  C5  UNL     1      28.789 -29.698  11.294  1.00  0.00     0.064 A
HETATM    2  C6  UNL     1      28.387 -28.369  11.430  1.00  0.00     0.053 A
HETATM    3  C7  UNL     1      29.221 -27.297  11.198  1.00  0.00     0.043 A
HETATM    4  C9  UNL     1      30.526 -27.526  10.811  1.00  0.00     0.122 A
HETATM    5  C10 UNL     1      30.923 -28.825  10.676  1.00  0.00     0.075 A
HETATM    6  C11 UNL     1      30.088 -29.934  10.907  1.00  0.00     0.131 A
ENDROOT
BRANCH   1   7
HETATM    7  N1  UNL     1      27.872 -30.728  11.625  1.00  0.00    -0.366 N
ATOM      8  H1  UNL     1      27.442 -30.691  12.549  1.00  0.00     0.161 HD
BRANCH   7   9
HETATM    9  C4  UNL     1      27.496 -31.820  10.770  1.00  0.00     0.234 C
HETATM   10  C3  UNL     1      26.197 -32.482  11.090  1.00  0.00     0.183 C
HETATM   11  C13 UNL     1      26.165 -33.763  10.273  1.00  0.00     0.099 C
HETATM   12  C12 UNL     1      26.962 -33.607   8.994  1.00  0.00     0.289 C
HETATM   13  O7  UNL     1      27.046 -32.322   8.540  1.00  0.00    -0.252 OA
HETATM   14  N6  UNL     1      27.394 -31.378   9.396  1.00  0.00    -0.070 NA
BRANCH  10  15
HETATM   15  O2  UNL     1      25.916 -32.681  12.448  1.00  0.00    -0.312 OA
BRANCH  15  16
HETATM   16  C2  UNL     1      25.058 -31.882  13.167  1.00  0.00     0.255 C
HETATM   17  C1  UNL     1      23.590 -31.848  12.953  1.00  0.00     0.126 C
HETATM   18  O1  UNL     1      25.561 -31.138  14.058  1.00  0.00    -0.266 OA
ENDBRANCH  15  16
ENDBRANCH  10  15
BRANCH  11  19
HETATM   19  C14 UNL     1      24.756 -34.220  10.007  1.00  0.00     0.176 C
BRANCH  19  20
HETATM   20  O9  UNL     1      24.165 -33.368   9.068  1.00  0.00    -0.400 OA
ATOM     21  H9  UNL     1      23.220 -33.439   9.132  1.00  0.00     0.209 HD
ENDBRANCH  19  20
ENDBRANCH  11  19
BRANCH  12  22
HETATM   22  O8  UNL     1      28.196 -34.260   9.073  1.00  0.00    -0.369 OA
ATOM     23  H8  UNL     1      28.350 -34.689   9.906  1.00  0.00     0.212 HD
ENDBRANCH  12  22
ENDBRANCH   7   9
ENDBRANCH   1   7
BRANCH   6  24
HETATM   24  N5  UNL     1      30.635 -31.229  10.725  1.00  0.00    -0.113 N
HETATM   25  O5  UNL     1      30.946 -31.628   9.606  1.00  0.00    -0.532 OA
HETATM   26  O6  UNL     1      30.879 -32.079  11.785  1.00  0.00    -0.532 OA
ENDBRANCH   6  24
BRANCH   3  27
HETATM   27  S1  UNL     1      28.670 -25.622  11.382  1.00  0.00    -0.056 SA
BRANCH  27  28
HETATM   28  C8  UNL     1      27.898 -25.338  12.960  1.00  0.00     0.152 C
HETATM   29  N2  UNL     1      26.654 -25.092  13.006  1.00  0.00    -0.382 N
ATOM     30  H22 UNL     1      26.129 -25.064  12.132  1.00  0.00     0.157 HD
ATOM     31  H21 UNL     1      26.211 -24.929  13.911  1.00  0.00     0.157 HD
HETATM   32  N3  UNL     1      28.630 -25.377  14.181  1.00  0.00    -0.075 NA
ENDBRANCH  27  28
ENDBRANCH   3  27
BRANCH   4  33
HETATM   33  N4  UNL     1      31.421 -26.431  10.556  1.00  0.00    -0.114 N
HETATM   34  O3  UNL     1      31.949 -25.748  11.441  1.00  0.00    -0.532 OA
HETATM   35  O4  UNL     1      31.691 -26.140   9.247  1.00  0.00    -0.532 OA
ENDBRANCH   4  33
TORSDOF 11
ENDMDL