MODEL 1
REMARK VINA RESULT: -8.168034536      0.000      0.000
REMARK  13 active torsions:
REMARK  status: ('A' for Active; 'I' for Inactive)
REMARK    1  A    between atoms: N1_2  and  N2_3
REMARK    2  A    between atoms: N1_2  and  S1_7
REMARK    3  A    between atoms: N2_3  and  O1_5
REMARK    4  A    between atoms: S1_7  and  C2_10
REMARK    5  A    between atoms: C4_12  and  N3_13
REMARK    6  A    between atoms: N3_13  and  N4_15
REMARK    7  A    between atoms: N4_15  and  C5_17
REMARK    8  A    between atoms: C8_22  and  N5_23
REMARK    9  A    between atoms: N5_23  and  C9_25
REMARK   10  A    between atoms: C9_25  and  C10_29
REMARK   11  A    between atoms: C10_29  and  N7_30
REMARK   12  A    between atoms: C10_29  and  O6_34
REMARK   13  A    between atoms: C15_41  and  O8_42
ROOT
HETATM    1  N4  UNL     1      23.741 -32.569  11.447  1.00  0.00    -0.298 N
ATOM      2  H4  UNL     1      23.364 -33.498  11.264  1.00  0.00     0.187 HD
ENDROOT
BRANCH   1   3
HETATM    3  N3  UNL     1      24.229 -31.820  10.401  1.00  0.00    -0.300 N
ATOM      4  H3  UNL     1      23.747 -30.953  10.163  1.00  0.00     0.187 HD
BRANCH   3   5
HETATM    5  C4  UNL     1      25.373 -32.189   9.631  1.00  0.00     0.049 C
HETATM    6  C3  UNL     1      26.614 -32.057  10.243  1.00  0.00     0.059 C
HETATM    7  C2  UNL     1      27.790 -32.662   9.891  1.00  0.00     0.120 C
HETATM    8  C15 UNL     1      27.982 -33.676   8.947  1.00  0.00     0.139 C
HETATM    9  C14 UNL     1      27.149 -34.062   7.917  1.00  0.00     0.206 C
HETATM   10  C13 UNL     1      25.935 -33.498   7.574  1.00  0.00     0.060 C
HETATM   11  O7  UNL     1      27.550 -35.023   7.236  1.00  0.00    -0.285 OA
HETATM   12  C12 UNL     1      25.145 -32.644   8.349  1.00  0.00     0.035 C
BRANCH   7  13
HETATM   13  S1  UNL     1      29.225 -32.121  10.700  1.00  0.00     0.282 S
HETATM   14  O2  UNL     1      30.349 -32.091   9.686  1.00  0.00    -0.199 OA
HETATM   15  O3  UNL     1      29.022 -30.666  11.098  1.00  0.00    -0.199 OA
BRANCH  13  16
HETATM   16  N1  UNL     1      29.633 -33.089  12.031  1.00  0.00    -0.199 N
HETATM   17  C1  UNL     1      29.961 -32.499  13.303  1.00  0.00     0.194 C
BRANCH  16  18
HETATM   18  N2  UNL     1      29.654 -34.473  11.908  1.00  0.00    -0.199 N
ATOM     19  H2  UNL     1      30.532 -34.958  11.724  1.00  0.00     0.216 HD
BRANCH  18  20
HETATM   20  O1  UNL     1      28.578 -35.129  12.025  1.00  0.00    -0.274 OA
ATOM     21  H1  UNL     1      28.121 -35.425  11.246  1.00  0.00     0.246 HD
ENDBRANCH  18  20
ENDBRANCH  16  18
ENDBRANCH  13  16
ENDBRANCH   7  13
BRANCH   8  22
HETATM   22  O8  UNL     1      29.184 -34.336   9.126  1.00  0.00    -0.356 OA
ATOM     23  H8  UNL     1      29.290 -34.658  10.013  1.00  0.00     0.218 HD
ENDBRANCH   8  22
ENDBRANCH   3   5
ENDBRANCH   1   3
BRANCH   1  24
HETATM   24  C5  UNL     1      23.751 -32.070  12.785  1.00  0.00     0.072 A
HETATM   25  C6  UNL     1      24.878 -31.465  13.318  1.00  0.00     0.177 A
HETATM   26  O4  UNL     1      24.875 -31.010  14.548  1.00  0.00    -0.284 OA
HETATM   27  C7  UNL     1      23.845 -31.086  15.350  1.00  0.00     0.314 A
HETATM   28  O5  UNL     1      23.936 -30.614  16.535  1.00  0.00    -0.257 OA
HETATM   29  C8  UNL     1      22.682 -31.669  14.909  1.00  0.00     0.112 A
HETATM   30  C11 UNL     1      22.648 -32.166  13.603  1.00  0.00     0.068 A
BRANCH  29  31
HETATM   31  N5  UNL     1      21.543 -31.769  15.751  1.00  0.00    -0.338 N
ATOM     32  H5  UNL     1      20.930 -30.962  15.865  1.00  0.00     0.167 HD
BRANCH  31  33
HETATM   33  C9  UNL     1      21.245 -32.980  16.437  1.00  0.00     0.132 C
HETATM   34  N6  UNL     1      20.845 -34.007  15.781  1.00  0.00    -0.385 N
ATOM     35  H62 UNL     1      20.736 -33.972  14.767  1.00  0.00     0.157 HD
ATOM     36  H61 UNL     1      20.632 -34.874  16.273  1.00  0.00     0.157 HD
BRANCH  33  37
HETATM   37  C10 UNL     1      21.403 -33.030  17.905  1.00  0.00     0.384 C
BRANCH  37  38
HETATM   38  N7  UNL     1      22.060 -31.783  18.312  1.00  0.00    -0.046 N
ATOM     39  H73 UNL     1      21.929 -31.567  19.300  1.00  0.00     0.277 HD
ATOM     40  H72 UNL     1      23.078 -31.853  18.327  1.00  0.00     0.277 HD
ATOM     41  H71 UNL     1      21.719 -31.047  17.693  1.00  0.00     0.277 HD
ENDBRANCH  37  38
BRANCH  37  42
HETATM   42  O6  UNL     1      20.159 -33.050  18.562  1.00  0.00    -0.364 OA
ATOM     43  H6  UNL     1      20.245 -32.837  19.484  1.00  0.00     0.212 HD
ENDBRANCH  37  42
ENDBRANCH  33  37
ENDBRANCH  31  33
ENDBRANCH  29  31
ENDBRANCH   1  24
TORSDOF 13
ENDMDL