MODEL 1
REMARK VINA RESULT: -7.878278683      0.000      0.000
REMARK  14 active torsions:
REMARK  status: ('A' for Active; 'I' for Inactive)
REMARK    1  A    between atoms: C1_4  and  O1_5
REMARK    2  A    between atoms: O1_5  and  C2_6
REMARK    3  A    between atoms: C5_10  and  C6_11
REMARK    4  A    between atoms: C6_11  and  O3_12
REMARK    5  A    between atoms: O3_12  and  N2_13
REMARK    6  A    between atoms: N3_15  and  C7_17
REMARK    7  A    between atoms: C10_20  and  O4_21
REMARK    8  A    between atoms: O4_21  and  C11_22
REMARK    9  A    between atoms: C12_24  and  C13_25
REMARK   10  A    between atoms: C13_25  and  O6_26
REMARK   11  A    between atoms: C14_28  and  O7_29
REMARK   12  A    between atoms: C15_31  and  O8_32
REMARK   13  A    between atoms: C16_34  and  O9_35
REMARK   14  A    between atoms: C17_37  and  O10_38
ROOT
HETATM    1  C7  UNL     1      30.228 -31.833  11.367  1.00  0.00     0.052 A
HETATM    2  C8  UNL     1      29.931 -31.969  10.025  1.00  0.00     0.034 A
HETATM    3  C9  UNL     1      29.204 -33.116   9.626  1.00  0.00     0.042 A
HETATM    4  C10 UNL     1      28.833 -34.029  10.554  1.00  0.00     0.105 A
HETATM    5  C17 UNL     1      29.114 -33.889  11.882  1.00  0.00     0.101 A
HETATM    6  C18 UNL     1      29.833 -32.752  12.295  1.00  0.00     0.070 A
ENDROOT
BRANCH   1   7
HETATM    7  N3  UNL     1      31.088 -30.703  11.623  1.00  0.00    -0.281 N
HETATM    8  N2  UNL     1      30.840 -29.567  11.275  1.00  0.00    -0.207 N
ATOM      9  H2  UNL     1      31.519 -28.833  11.473  1.00  0.00     0.216 HD
ATOM     10  H3  UNL     1      31.959 -30.869  12.127  1.00  0.00     0.189 HD
BRANCH   8  11
HETATM   11  O3  UNL     1      29.637 -29.221  10.600  1.00  0.00    -0.262 OA
BRANCH  11  12
HETATM   12  C6  UNL     1      29.652 -27.769  10.249  1.00  0.00     0.238 C
BRANCH  12  13
HETATM   13  C5  UNL     1      30.903 -27.525   9.529  1.00  0.00     0.187 C
HETATM   14  C2  UNL     1      31.916 -26.650  10.171  1.00  0.00     0.185 C
HETATM   15  C3  UNL     1      32.996 -26.690   9.185  1.00  0.00     0.032 C
HETATM   16  C4  UNL     1      32.750 -27.658   8.335  1.00  0.00     0.134 C
HETATM   17  O2  UNL     1      31.532 -28.316   8.653  1.00  0.00    -0.353 OA
BRANCH  14  18
HETATM   18  O1  UNL     1      32.211 -26.848  11.492  1.00  0.00    -0.335 OA
BRANCH  18  19
HETATM   19  C1  UNL     1      31.949 -25.798  12.421  1.00  0.00     0.220 C
HETATM   20  N1  UNL     1      31.221 -26.009  13.350  1.00  0.00    -0.390 N
ATOM     21  H12 UNL     1      30.804 -26.933  13.461  1.00  0.00     0.157 HD
ATOM     22  H11 UNL     1      31.034 -25.257  14.015  1.00  0.00     0.157 HD
ENDBRANCH  18  19
ENDBRANCH  14  18
ENDBRANCH  12  13
ENDBRANCH  11  12
ENDBRANCH   8  11
ENDBRANCH   1   7
BRANCH   5  23
HETATM   23  O10 UNL     1      28.694 -34.857  12.785  1.00  0.00    -0.358 OA
ATOM     24  H10 UNL     1      28.369 -34.600  13.640  1.00  0.00     0.217 HD
ENDBRANCH   5  23
BRANCH   4  25
HETATM   25  O4  UNL     1      28.151 -35.207  10.074  1.00  0.00    -0.315 OA
BRANCH  25  26
HETATM   26  C11 UNL     1      27.001 -34.715   9.304  1.00  0.00     0.298 C
HETATM   27  O5  UNL     1      26.343 -33.692   9.944  1.00  0.00    -0.348 OA
HETATM   28  C12 UNL     1      25.023 -33.578   9.582  1.00  0.00     0.179 C
HETATM   29  C14 UNL     1      24.719 -33.806   8.143  1.00  0.00     0.180 C
HETATM   30  C15 UNL     1      25.482 -34.899   7.469  1.00  0.00     0.183 C
HETATM   31  C16 UNL     1      26.222 -35.695   8.562  1.00  0.00     0.205 C
BRANCH  28  32
HETATM   32  C13 UNL     1      24.616 -32.144   9.923  1.00  0.00     0.198 C
BRANCH  32  33
HETATM   33  O6  UNL     1      25.805 -31.385  10.008  1.00  0.00    -0.398 OA
ATOM     34  H6  UNL     1      25.886 -31.094  10.908  1.00  0.00     0.209 HD
ENDBRANCH  32  33
ENDBRANCH  28  32
BRANCH  29  35
HETATM   35  O7  UNL     1      24.826 -32.566   7.475  1.00  0.00    -0.390 OA
ATOM     36  H7  UNL     1      25.369 -32.695   6.706  1.00  0.00     0.210 HD
ENDBRANCH  29  35
BRANCH  30  37
HETATM   37  O8  UNL     1      26.461 -34.293   6.653  1.00  0.00    -0.390 OA
ATOM     38  H8  UNL     1      26.013 -33.706   6.056  1.00  0.00     0.210 HD
ENDBRANCH  30  37
BRANCH  31  39
HETATM   39  O9  UNL     1      27.039 -36.630   7.972  1.00  0.00    -0.388 OA
ATOM     40  H9  UNL     1      26.540 -37.214   7.412  1.00  0.00     0.210 HD
ENDBRANCH  31  39
ENDBRANCH  25  26
ENDBRANCH   4  25
TORSDOF 14
ENDMDL