MODEL 1
REMARK VINA RESULT: -8.184806960      0.000      0.000
REMARK  10 active torsions:
REMARK  status: ('A' for Active; 'I' for Inactive)
REMARK    1  A    between atoms: C1_2  and  C2_4
REMARK    2  A    between atoms: C4_6  and  C5_7
REMARK    3  A    between atoms: N2_8  and  N3_10
REMARK       I    between atoms: N3_10  and  C6_12
REMARK       I    between atoms: C6_12  and  N4_14
REMARK    4  A    between atoms: N4_14  and  N5_16
REMARK    5  A    between atoms: C7_18  and  C8_19
REMARK    6  A    between atoms: C10_21  and  N6_22
REMARK    7  A    between atoms: C11_26  and  N7_27
REMARK    8  A    between atoms: C12_30  and  O8_31
REMARK    9  A    between atoms: C13_33  and  O9_34
REMARK   10  A    between atoms: C14_36  and  O10_37
ROOT
HETATM    1  N3  UNL     1      27.834 -32.502  11.399  1.00  0.00    -0.251 N
ATOM      2  H3  UNL     1      28.293 -33.394  11.213  1.00  0.00     0.191 HD
HETATM    3  C6  UNL     1      28.518 -31.307  11.010  1.00  0.00     0.353 C
HETATM    4  O2  UNL     1      27.951 -30.218  11.256  1.00  0.00    -0.244 OA
HETATM    5  N4  UNL     1      29.777 -31.393  10.376  1.00  0.00    -0.251 N
ATOM      6  H4  UNL     1      30.213 -32.295  10.189  1.00  0.00     0.191 HD
ENDROOT
BRANCH   1   7
HETATM    7  N2  UNL     1      26.659 -32.533  11.976  1.00  0.00    -0.307 N
HETATM    8  C5  UNL     1      25.492 -32.834  11.944  1.00  0.00     0.121 C
ATOM      9  H2  UNL     1      26.797 -32.093  12.886  1.00  0.00     0.186 HD
BRANCH   8  10
HETATM   10  C4  UNL     1      24.645 -32.525  13.114  1.00  0.00     0.018 A
HETATM   11  C3  UNL     1      23.626 -33.348  13.470  1.00  0.00     0.035 A
HETATM   12  C2  UNL     1      22.877 -33.047  14.594  1.00  0.00     0.066 A
HETATM   13  C14 UNL     1      23.179 -31.930  15.318  1.00  0.00     0.117 A
HETATM   14  C13 UNL     1      24.214 -31.095  14.955  1.00  0.00     0.134 A
HETATM   15  C12 UNL     1      24.952 -31.379  13.857  1.00  0.00     0.113 A
BRANCH  12  16
HETATM   16  C1  UNL     1      21.798 -33.950  14.974  1.00  0.00     0.267 C
HETATM   17  N1  UNL     1      20.553 -33.394  15.318  1.00  0.00    -0.057 NA
HETATM   18  O1  UNL     1      21.988 -35.186  14.988  1.00  0.00    -0.271 OA
ENDBRANCH  12  16
BRANCH  13  19
HETATM   19  O10 UNL     1      22.415 -31.643  16.449  1.00  0.00    -0.357 OA
ATOM     20  H10 UNL     1      22.855 -31.578  17.289  1.00  0.00     0.217 HD
ENDBRANCH  13  19
BRANCH  14  21
HETATM   21  O9  UNL     1      24.472 -29.959  15.741  1.00  0.00    -0.356 OA
ATOM     22  H9  UNL     1      25.343 -29.767  16.068  1.00  0.00     0.218 HD
ENDBRANCH  14  21
BRANCH  15  23
HETATM   23  O8  UNL     1      26.013 -30.562  13.449  1.00  0.00    -0.357 OA
ATOM     24  H8  UNL     1      25.918 -29.618  13.498  1.00  0.00     0.217 HD
ENDBRANCH  15  23
ENDBRANCH   8  10
ENDBRANCH   1   7
BRANCH   5  25
HETATM   25  N5  UNL     1      30.401 -30.204  10.015  1.00  0.00    -0.307 N
HETATM   26  C7  UNL     1      30.866 -29.405  10.909  1.00  0.00     0.123 C
ATOM     27  H5  UNL     1      30.492 -29.963   9.029  1.00  0.00     0.186 HD
BRANCH  26  28
HETATM   28  C8  UNL     1      31.513 -28.174  10.498  1.00  0.00     0.043 A
HETATM   29  C9  UNL     1      31.831 -27.841   9.162  1.00  0.00     0.080 A
HETATM   30  C10 UNL     1      32.436 -26.606   9.166  1.00  0.00     0.217 A
HETATM   31  O5  UNL     1      32.491 -26.200  10.401  1.00  0.00    -0.265 OA
HETATM   32  C11 UNL     1      31.957 -27.093  11.232  1.00  0.00     0.228 A
BRANCH  30  33
HETATM   33  N6  UNL     1      32.903 -25.931   7.988  1.00  0.00    -0.090 N
HETATM   34  O3  UNL     1      32.163 -25.092   7.464  1.00  0.00    -0.530 OA
HETATM   35  O4  UNL     1      34.134 -26.203   7.452  1.00  0.00    -0.530 OA
ENDBRANCH  30  33
BRANCH  32  36
HETATM   36  N7  UNL     1      31.864 -26.954  12.643  1.00  0.00    -0.089 N
HETATM   37  O6  UNL     1      30.987 -26.217  13.182  1.00  0.00    -0.530 OA
HETATM   38  O7  UNL     1      32.701 -27.591  13.516  1.00  0.00    -0.530 OA
ENDBRANCH  32  36
ENDBRANCH  26  28
ENDBRANCH   5  25
TORSDOF 10
ENDMDL