MODEL 2
REMARK VINA RESULT: -9.028246040      0.685      1.380
REMARK  14 active torsions:
REMARK  status: ('A' for Active; 'I' for Inactive)
REMARK    1  A    between atoms: O1_2  and  C2_3
REMARK    2  A    between atoms: C4_6  and  O3_7
REMARK    3  A    between atoms: C5_9  and  O4_10
REMARK    4  A    between atoms: O4_10  and  C6_11
REMARK       I    between atoms: C6_11  and  N1_13
REMARK    5  A    between atoms: N1_13  and  C7_15
REMARK    6  A    between atoms: C7_15  and  C8_16
REMARK    7  A    between atoms: C8_16  and  O6_20
REMARK    8  A    between atoms: O6_20  and  C9_21
REMARK    9  A    between atoms: C10_24  and  O8_25
REMARK   10  A    between atoms: O8_25  and  C11_26
REMARK   11  A    between atoms: C11_26  and  C12_28
REMARK   12  A    between atoms: C13_29  and  C14_30
REMARK   13  A    between atoms: C15_32  and  O11_33
REMARK   14  A    between atoms: C17_36  and  O12_37
ROOT
HETATM    1  C2  UNL     1      26.899 -34.442   9.698  1.00  0.00     0.291 C
HETATM    2  O2  UNL     1      25.535 -34.351   9.479  1.00  0.00    -0.356 OA
HETATM    3  C3  UNL     1      25.164 -33.037   9.311  1.00  0.00     0.205 C
HETATM    4  C4  UNL     1      25.293 -32.228  10.585  1.00  0.00     0.174 C
HETATM    5  C5  UNL     1      25.947 -33.148  11.623  1.00  0.00     0.198 C
HETATM    6  C10 UNL     1      27.210 -33.673  10.973  1.00  0.00     0.219 C
ENDROOT
BRANCH   5   7
HETATM    7  O4  UNL     1      26.345 -32.407  12.761  1.00  0.00    -0.293 OA
BRANCH   7   8
HETATM    8  C6  UNL     1      25.451 -31.841  13.665  1.00  0.00     0.361 C
HETATM    9  O5  UNL     1      25.854 -30.822  14.278  1.00  0.00    -0.238 OA
HETATM   10  N1  UNL     1      24.154 -32.380  13.889  1.00  0.00    -0.329 N
ATOM     11  H1  UNL     1      23.836 -33.209  13.386  1.00  0.00     0.165 HD
BRANCH  10  12
HETATM   12  C7  UNL     1      23.299 -31.721  14.852  1.00  0.00     0.209 C
BRANCH  12  13
HETATM   13  C8  UNL     1      22.619 -32.742  15.689  1.00  0.00     0.140 C
HETATM   14  N2  UNL     1      21.774 -33.560  15.169  1.00  0.00    -0.382 N
ATOM     15  H22 UNL     1      21.597 -33.476  14.167  1.00  0.00     0.158 HD
ATOM     16  H21 UNL     1      21.307 -34.262  15.744  1.00  0.00     0.158 HD
BRANCH  13  17
HETATM   17  O6  UNL     1      22.860 -32.857  17.052  1.00  0.00    -0.249 OA
BRANCH  17  18
HETATM   18  C9  UNL     1      22.019 -32.287  17.991  1.00  0.00     0.379 C
HETATM   19  N3  UNL     1      22.125 -32.496  19.386  1.00  0.00    -0.032 NA
HETATM   20  O7  UNL     1      21.104 -31.531  17.545  1.00  0.00    -0.242 OA
ENDBRANCH  17  18
ENDBRANCH  13  17
ENDBRANCH  12  13
ENDBRANCH  10  12
ENDBRANCH   7   8
ENDBRANCH   5   7
BRANCH   4  21
HETATM   21  O3  UNL     1      24.012 -31.861  10.994  1.00  0.00    -0.391 OA
ATOM     22  H3  UNL     1      23.876 -30.953  10.751  1.00  0.00     0.210 HD
ENDBRANCH   4  21
BRANCH   6  23
HETATM   23  O8  UNL     1      27.979 -32.506  10.637  1.00  0.00    -0.305 OA
BRANCH  23  24
HETATM   24  C11 UNL     1      29.294 -32.397  10.982  1.00  0.00     0.283 C
HETATM   25  O9  UNL     1      29.831 -33.334  11.626  1.00  0.00    -0.260 OA
BRANCH  24  26
HETATM   26  C12 UNL     1      30.086 -31.198  10.611  1.00  0.00     0.085 C
HETATM   27  C13 UNL     1      29.681 -29.998  10.910  1.00  0.00     0.046 C
BRANCH  27  28
HETATM   28  C14 UNL     1      30.401 -28.780  10.580  1.00  0.00     0.111 A
HETATM   29  O10 UNL     1      30.131 -28.048   9.513  1.00  0.00    -0.285 OA
HETATM   30  C15 UNL     1      30.893 -27.012   9.420  1.00  0.00     0.186 A
HETATM   31  C16 UNL     1      31.752 -27.035  10.504  1.00  0.00     0.103 A
HETATM   32  C17 UNL     1      31.421 -28.159  11.221  1.00  0.00     0.104 A
BRANCH  30  33
HETATM   33  O11 UNL     1      30.944 -25.998   8.469  1.00  0.00    -0.341 OA
ATOM     34  H11 UNL     1      30.390 -25.238   8.337  1.00  0.00     0.220 HD
ENDBRANCH  30  33
BRANCH  32  35
HETATM   35  O12 UNL     1      32.057 -28.534  12.382  1.00  0.00    -0.358 OA
ATOM     36  H12 UNL     1      31.859 -28.274  13.274  1.00  0.00     0.217 HD
ENDBRANCH  32  35
ENDBRANCH  27  28
ENDBRANCH  24  26
ENDBRANCH  23  24
ENDBRANCH   6  23
BRANCH   1  37
HETATM   37  O1  UNL     1      27.578 -33.922   8.600  1.00  0.00    -0.363 OA
HETATM   38  C1  UNL     1      27.503 -34.829   7.542  1.00  0.00     0.204 C
ENDBRANCH   1  37
TORSDOF 14
ENDMDL