MODEL 1
REMARK VINA RESULT: -7.058076171      0.000      0.000
REMARK  11 active torsions:
REMARK  status: ('A' for Active; 'I' for Inactive)
REMARK    1  A    between atoms: C2_5  and  N3_6
REMARK    2  A    between atoms: C2_5  and  C6_19
REMARK    3  A    between atoms: N3_6  and  C3_8
REMARK    4  A    between atoms: C4_11  and  N5_12
REMARK    5  A    between atoms: N5_12  and  C5_14
REMARK    6  A    between atoms: C6_19  and  O2_20
REMARK    7  A    between atoms: C6_19  and  C7_22
REMARK    8  A    between atoms: C7_22  and  S2_23
REMARK    9  A    between atoms: S2_23  and  C8_24
REMARK   10  A    between atoms: C10_26  and  N7_27
REMARK   11  A    between atoms: C13_33  and  N9_34
ROOT
HETATM    1  N1  UNL     1      26.408 -30.371  14.552  1.00  0.00    -0.172 NA
HETATM    2  C1  UNL     1      26.136 -30.918  13.569  1.00  0.00     0.183 C
HETATM    3  N2  UNL     1      25.826 -31.587  12.407  1.00  0.00    -0.281 N
ATOM      4  H2  UNL     1      26.549 -31.595  11.689  1.00  0.00     0.179 HD
HETATM    5  C2  UNL     1      24.750 -32.196  12.121  1.00  0.00     0.118 C
ENDROOT
BRANCH   5   6
HETATM    6  N3  UNL     1      23.660 -32.267  13.022  1.00  0.00    -0.336 N
ATOM      7  H3  UNL     1      22.742 -31.953  12.706  1.00  0.00     0.164 HD
BRANCH   6   8
HETATM    8  C3  UNL     1      23.795 -32.766  14.373  1.00  0.00     0.394 C
HETATM    9  N4  UNL     1      23.552 -34.163  14.521  1.00  0.00    -0.122 NA
HETATM   10  S1  UNL     1      21.833 -34.165  15.011  1.00  0.00    -0.007 SA
HETATM   11  C4  UNL     1      21.707 -32.366  15.367  1.00  0.00     0.370 C
HETATM   12  N6  UNL     1      23.093 -32.013  15.348  1.00  0.00    -0.008 N
ATOM     13  H62 UNL     1      23.517 -32.103  16.271  1.00  0.00     0.284 HD
ATOM     14  H61 UNL     1      23.225 -31.010  15.215  1.00  0.00     0.284 HD
BRANCH  11  15
HETATM   15  N5  UNL     1      21.225 -32.149  16.710  1.00  0.00    -0.331 N
ATOM     16  H5  UNL     1      20.224 -32.224  16.891  1.00  0.00     0.164 HD
BRANCH  15  17
HETATM   17  C5  UNL     1      22.092 -31.836  17.783  1.00  0.00     0.350 C
HETATM   18  O1  UNL     1      23.076 -32.592  18.092  1.00  0.00    -0.284 OA
ENDBRANCH  15  17
ENDBRANCH  11  15
ENDBRANCH   6   8
ENDBRANCH   5   6
BRANCH   5  19
HETATM   19  C6  UNL     1      24.614 -32.866  10.797  1.00  0.00     0.195 C
BRANCH  19  20
HETATM   20  O2  UNL     1      25.367 -34.058  10.771  1.00  0.00    -0.387 OA
ATOM     21  H2  UNL     1      25.020 -34.655  10.119  1.00  0.00     0.210 HD
ENDBRANCH  19  20
BRANCH  19  22
HETATM   22  C7  UNL     1      25.240 -31.950   9.778  1.00  0.00     0.119 C
BRANCH  22  23
HETATM   23  S2  UNL     1      26.825 -32.552   9.163  1.00  0.00    -0.124 SA
BRANCH  23  24
HETATM   24  C8  UNL     1      28.188 -31.928  10.108  1.00  0.00     0.038 A
HETATM   25  C9  UNL     1      28.449 -30.558  10.102  1.00  0.00     0.057 A
HETATM   26  C10 UNL     1      29.467 -29.985  10.826  1.00  0.00     0.106 A
HETATM   27  C11 UNL     1      30.254 -30.800  11.584  1.00  0.00     0.065 A
HETATM   28  C12 UNL     1      30.014 -32.156  11.607  1.00  0.00     0.083 A
HETATM   29  N8  UNL     1      30.875 -32.956  12.423  1.00  0.00    -0.100 NA
HETATM   30  C13 UNL     1      28.986 -32.733  10.875  1.00  0.00     0.143 A
BRANCH  26  31
HETATM   31  N7  UNL     1      29.692 -28.581  10.785  1.00  0.00    -0.116 N
HETATM   32  O3  UNL     1      30.773 -28.102  10.400  1.00  0.00    -0.532 OA
HETATM   33  O4  UNL     1      28.709 -27.710  11.173  1.00  0.00    -0.532 OA
ENDBRANCH  26  31
BRANCH  30  34
HETATM   34  N9  UNL     1      28.784 -34.128  10.967  1.00  0.00    -0.112 N
HETATM   35  O5  UNL     1      28.061 -34.640  11.853  1.00  0.00    -0.532 OA
HETATM   36  O6  UNL     1      29.385 -34.955  10.075  1.00  0.00    -0.532 OA
ENDBRANCH  30  34
ENDBRANCH  23  24
ENDBRANCH  22  23
ENDBRANCH  19  22
ENDBRANCH   5  19
TORSDOF 11
ENDMDL