MODEL 5
REMARK VINA RESULT: -4.175129035      1.932      3.962
REMARK  3 active torsions:
REMARK  status: ('A' for Active; 'I' for Inactive)
REMARK    1  A    between atoms: N1_1  and  C1_4
REMARK    2  A    between atoms: N3_7  and  N4_8
REMARK    3  A    between atoms: C3_13  and  C4_14
ROOT
HETATM    1  C1  UNL     1      -3.413   6.542  15.248  1.00  0.00     0.167 A
HETATM    2  N2  UNL     1      -3.998   5.357  15.037  1.00  0.00    -0.260 N
ATOM      3  H2  UNL     1      -3.757   4.802  14.216  1.00  0.00     0.191 HD
HETATM    4  N3  UNL     1      -4.885   4.914  15.897  1.00  0.00    -0.186 N
HETATM    5  C2  UNL     1      -5.262   5.567  17.000  1.00  0.00     0.175 A
HETATM    6  N5  UNL     1      -6.224   5.066  17.916  1.00  0.00    -0.078 NA
HETATM    7  C3  UNL     1      -4.675   6.790  17.242  1.00  0.00     0.127 A
HETATM    8  C5  UNL     1      -3.745   7.277  16.360  1.00  0.00     0.235 A
HETATM    9  O2  UNL     1      -3.216   8.407  16.602  1.00  0.00    -0.283 OA
ENDROOT
BRANCH   1  10
HETATM   10  N1  UNL     1      -2.537   7.026  14.440  1.00  0.00    -0.381 N
ATOM     11  H12 UNL     1      -1.574   7.104  14.765  1.00  0.00     0.157 HD
ATOM     12  H11 UNL     1      -2.779   7.328  13.496  1.00  0.00     0.157 HD
ENDBRANCH   1  10
BRANCH   4  13
HETATM   13  N4  UNL     1      -5.498   3.654  15.659  1.00  0.00    -0.323 N
ATOM     14  H42 UNL     1      -6.517   3.635  15.647  1.00  0.00     0.179 HD
ATOM     15  H41 UNL     1      -4.901   2.839  15.515  1.00  0.00     0.179 HD
ENDBRANCH   4  13
BRANCH   7  16
HETATM   16  C4  UNL     1      -5.070   7.518  18.435  1.00  0.00     0.272 C
HETATM   17  N6  UNL     1      -4.320   7.317  19.622  1.00  0.00    -0.057 NA
HETATM   18  O1  UNL     1      -6.026   8.312  18.489  1.00  0.00    -0.271 OA
ENDBRANCH   7  16
TORSDOF 3
ENDMDL