MODEL 2
REMARK VINA RESULT: -4.582226776      1.737      1.851
REMARK  2 active torsions:
REMARK  status: ('A' for Active; 'I' for Inactive)
REMARK    1  A    between atoms: C3_9  and  C4_10
REMARK    2  A    between atoms: N5_13  and  N6_14
ROOT
HETATM    1  N1  UNL     1      -6.238   4.286  19.052  1.00  0.00    -0.381 N
ATOM      2  H11 UNL     1      -6.383   4.858  19.885  1.00  0.00     0.157 HD
ATOM      3  H12 UNL     1      -6.395   3.285  19.167  1.00  0.00     0.157 HD
HETATM    4  C1  UNL     1      -5.880   4.786  17.919  1.00  0.00     0.171 A
HETATM    5  N2  UNL     1      -5.688   4.030  16.819  1.00  0.00    -0.325 N
ATOM      6  H2  UNL     1      -5.832   3.022  16.885  1.00  0.00     0.169 HD
HETATM    7  C2  UNL     1      -5.313   4.554  15.639  1.00  0.00     0.152 A
HETATM    8  N3  UNL     1      -5.108   3.765  14.472  1.00  0.00    -0.080 NA
HETATM    9  C3  UNL     1      -5.115   5.916  15.539  1.00  0.00     0.165 A
HETATM   10  N5  UNL     1      -5.292   6.711  16.605  1.00  0.00    -0.215 N
HETATM   11  C5  UNL     1      -5.667   6.141  17.764  1.00  0.00     0.310 A
HETATM   12  O2  UNL     1      -5.843   6.856  18.787  1.00  0.00    -0.262 OA
ENDROOT
BRANCH  10  13
HETATM   13  N6  UNL     1      -5.098   8.105  16.537  1.00  0.00    -0.335 N
ATOM     14  H62 UNL     1      -4.646   8.595  17.309  1.00  0.00     0.177 HD
ATOM     15  H61 UNL     1      -5.399   8.653  15.731  1.00  0.00     0.177 HD
ENDBRANCH  10  13
BRANCH   9  16
HETATM   16  C4  UNL     1      -4.708   6.541  14.283  1.00  0.00     0.286 C
HETATM   17  N4  UNL     1      -3.394   7.045  14.099  1.00  0.00    -0.056 NA
HETATM   18  O1  UNL     1      -5.505   6.662  13.307  1.00  0.00    -0.269 OA
ENDBRANCH   9  16
TORSDOF 2
ENDMDL