MODEL 1
REMARK VINA RESULT: -5.348935470      0.000      0.000
REMARK  1 active torsions:
REMARK  status: ('A' for Active; 'I' for Inactive)
REMARK       I    between atoms: N5_10  and  C3_11
REMARK       I    between atoms: C3_11  and  N6_13
REMARK    1  A    between atoms: N6_13  and  N7_15
ROOT
HETATM    1  C1  UNL     1      -3.691   8.775  20.048  1.00  0.00     0.180 C
HETATM    2  N1  UNL     1      -4.294   8.163  18.883  1.00  0.00    -0.135 N
HETATM    3  C2  UNL     1      -5.558   7.529  18.972  1.00  0.00     0.694 C
HETATM    4  N2  UNL     1      -6.238   7.455  20.065  1.00  0.00    -0.233 N
ATOM      5  H21 UNL     1      -7.148   6.998  20.129  1.00  0.00     0.174 HD
ATOM      6  H22 UNL     1      -5.870   7.864  20.923  1.00  0.00     0.174 HD
HETATM    7  N3  UNL     1      -6.078   6.951  17.761  1.00  0.00    -0.115 N
ATOM      8  H3  UNL     1      -6.696   6.140  17.774  1.00  0.00     0.203 HD
HETATM    9  N4  UNL     1      -5.683   7.571  16.545  1.00  0.00     0.008 NA
HETATM   10  N5  UNL     1      -4.247   7.570  16.496  1.00  0.00    -0.135 N
HETATM   11  C3  UNL     1      -3.611   6.998  15.388  1.00  0.00     0.362 C
HETATM   12  O1  UNL     1      -4.342   6.522  14.463  1.00  0.00    -0.243 OA
HETATM   13  N6  UNL     1      -2.234   6.895  15.196  1.00  0.00    -0.257 N
ATOM     14  H6  UNL     1      -1.618   7.265  15.920  1.00  0.00     0.191 HD
HETATM   15  C4  UNL     1      -3.642   8.175  17.618  1.00  0.00     0.364 C
HETATM   16  O2  UNL     1      -2.516   8.720  17.448  1.00  0.00    -0.244 OA
ENDROOT
BRANCH  13  17
HETATM   17  N7  UNL     1      -1.645   6.311  14.062  1.00  0.00    -0.341 N
ATOM     18  H72 UNL     1      -2.241   6.185  13.243  1.00  0.00     0.177 HD
ATOM     19  H71 UNL     1      -0.671   6.013  14.019  1.00  0.00     0.177 HD
ENDBRANCH  13  17
TORSDOF 1
ENDMDL