MODEL 2
REMARK VINA RESULT: -5.236698313      1.870      3.130
REMARK  3 active torsions:
REMARK  status: ('A' for Active; 'I' for Inactive)
REMARK    1  A    between atoms: N1_1  and  N2_4
REMARK    2  A    between atoms: N2_4  and  C1_6
REMARK    3  A    between atoms: C4_15  and  N5_16
ROOT
HETATM    1  C1  UNL     1      -5.034   7.667  16.968  1.00  0.00     0.174 A
HETATM    2  N3  UNL     1      -5.467   8.065  18.200  1.00  0.00    -0.300 N
ATOM      3  H3  UNL     1      -6.433   7.903  18.485  1.00  0.00     0.171 HD
HETATM    4  C2  UNL     1      -4.610   8.671  19.031  1.00  0.00     0.315 A
HETATM    5  O1  UNL     1      -5.014   9.041  20.184  1.00  0.00    -0.262 OA
HETATM    6  C3  UNL     1      -3.293   8.908  18.680  1.00  0.00     0.315 A
HETATM    7  O2  UNL     1      -2.521   9.483  19.506  1.00  0.00    -0.262 OA
HETATM    8  N4  UNL     1      -2.898   8.507  17.465  1.00  0.00    -0.297 N
ATOM      9  H4  UNL     1      -1.932   8.671  17.182  1.00  0.00     0.171 HD
HETATM   10  C4  UNL     1      -3.747   7.883  16.589  1.00  0.00     0.222 A
ENDROOT
BRANCH   1  11
HETATM   11  N2  UNL     1      -6.035   7.047  16.137  1.00  0.00    -0.289 N
ATOM     12  H2  UNL     1      -6.751   7.611  15.680  1.00  0.00     0.188 HD
BRANCH  11  13
HETATM   13  N1  UNL     1      -6.006   5.646  15.966  1.00  0.00    -0.344 N
ATOM     14  H12 UNL     1      -5.516   5.065  16.646  1.00  0.00     0.176 HD
ATOM     15  H11 UNL     1      -6.480   5.239  15.159  1.00  0.00     0.176 HD
ENDBRANCH  11  13
ENDBRANCH   1  11
BRANCH  10  16
HETATM   16  N5  UNL     1      -3.288   7.467  15.317  1.00  0.00    -0.094 N
HETATM   17  O3  UNL     1      -2.168   6.974  15.187  1.00  0.00    -0.530 OA
HETATM   18  O4  UNL     1      -4.083   7.616  14.217  1.00  0.00    -0.530 OA
ENDBRANCH  10  16
TORSDOF 3
ENDMDL