MODEL 2
REMARK VINA RESULT: -4.415113261      2.379      3.103
REMARK  4 active torsions:
REMARK  status: ('A' for Active; 'I' for Inactive)
REMARK    1  A    between atoms: N1_1  and  C1_4
REMARK    2  A    between atoms: C2_5  and  S1_6
REMARK    3  A    between atoms: S1_6  and  N2_7
REMARK    4  A    between atoms: N5_15  and  N6_16
ROOT
HETATM    1  C1  UNL     1      -5.135   7.881  17.159  1.00  0.00     0.178 A
HETATM    2  C2  UNL     1      -3.848   7.712  16.699  1.00  0.00     0.208 A
HETATM    3  N3  UNL     1      -3.066   8.308  17.617  1.00  0.00    -0.268 N
ATOM      4  H3  UNL     1      -2.049   8.356  17.566  1.00  0.00     0.185 HD
HETATM    5  N4  UNL     1      -3.793   8.823  18.596  1.00  0.00     0.003 NA
HETATM    6  N5  UNL     1      -5.082   8.562  18.317  1.00  0.00    -0.167 N
ENDROOT
BRANCH   2   7
HETATM    7  S1  UNL     1      -3.420   6.883  15.223  1.00  0.00     0.277 S
HETATM    8  O1  UNL     1      -4.148   7.586  14.092  1.00  0.00    -0.199 OA
HETATM    9  O2  UNL     1      -1.964   6.967  14.916  1.00  0.00    -0.199 OA
BRANCH   7  10
HETATM   10  N2  UNL     1      -3.929   5.246  15.222  1.00  0.00    -0.323 N
ATOM     11  H22 UNL     1      -4.128   4.727  14.366  1.00  0.00     0.169 HD
ATOM     12  H21 UNL     1      -4.006   4.862  16.164  1.00  0.00     0.169 HD
ENDBRANCH   7  10
ENDBRANCH   2   7
BRANCH   1  13
HETATM   13  N1  UNL     1      -6.210   7.461  16.581  1.00  0.00    -0.381 N
ATOM     14  H12 UNL     1      -6.461   6.484  16.429  1.00  0.00     0.157 HD
ATOM     15  H11 UNL     1      -6.954   8.045  16.198  1.00  0.00     0.157 HD
ENDBRANCH   1  13
BRANCH   6  16
HETATM   16  N6  UNL     1      -6.201   8.915  19.072  1.00  0.00    -0.324 N
ATOM     17  H62 UNL     1      -6.559   9.854  19.247  1.00  0.00     0.178 HD
ATOM     18  H61 UNL     1      -6.804   8.247  19.550  1.00  0.00     0.178 HD
ENDBRANCH   6  16
TORSDOF 4
ENDMDL