MODEL 2
REMARK VINA RESULT: -4.908645625      1.888      5.060
REMARK  2 active torsions:
REMARK  status: ('A' for Active; 'I' for Inactive)
REMARK    1  A    between atoms: N3_6  and  N4_8
REMARK       I    between atoms: N4_8  and  C3_10
REMARK    2  A    between atoms: N7_17  and  N8_18
ROOT
HETATM    1  C1  UNL     1      -5.115   3.657  14.470  1.00  0.00     0.202 C
HETATM    2  N1  UNL     1      -5.071   4.747  15.444  1.00  0.00    -0.213 N
HETATM    3  N2  UNL     1      -4.510   5.923  15.221  1.00  0.00    -0.262 N
ATOM      4  H2  UNL     1      -4.047   6.212  14.360  1.00  0.00     0.190 HD
HETATM    5  C2  UNL     1      -4.658   6.671  16.330  1.00  0.00     0.209 A
HETATM    6  N3  UNL     1      -4.250   7.884  16.521  1.00  0.00    -0.277 N
ATOM      7  H3  UNL     1      -3.754   8.373  15.776  1.00  0.00     0.189 HD
HETATM    8  C4  UNL     1      -5.337   5.911  17.257  1.00  0.00     0.329 A
HETATM    9  O1  UNL     1      -5.672   6.266  18.439  1.00  0.00    -0.260 OA
HETATM   10  N7  UNL     1      -5.571   4.730  16.666  1.00  0.00    -0.144 N
ENDROOT
BRANCH   6  11
HETATM   11  N4  UNL     1      -4.483   8.532  17.741  1.00  0.00    -0.272 N
HETATM   12  C3  UNL     1      -3.407   8.602  18.642  1.00  0.00     0.200 C
HETATM   13  N5  UNL     1      -3.498   8.044  19.781  1.00  0.00    -0.372 N
HETATM   14  N6  UNL     1      -2.246   9.287  18.271  1.00  0.00    -0.062 NA
ATOM     15  H52 UNL     1      -4.344   7.545  20.051  1.00  0.00     0.158 HD
ATOM     16  H51 UNL     1      -2.717   8.096  20.435  1.00  0.00     0.158 HD
ATOM     17  H4  UNL     1      -5.392   8.935  17.964  1.00  0.00     0.189 HD
ENDBRANCH   6  11
BRANCH  10  18
HETATM   18  N8  UNL     1      -6.238   3.655  17.254  1.00  0.00    -0.319 N
ATOM     19  H82 UNL     1      -6.645   2.868  16.748  1.00  0.00     0.179 HD
ATOM     20  H81 UNL     1      -6.398   3.532  18.254  1.00  0.00     0.179 HD
ENDBRANCH  10  18
TORSDOF 2
ENDMDL