MODEL 5
REMARK VINA RESULT: -4.570431387      1.677      2.376
REMARK  5 active torsions:
REMARK  status: ('A' for Active; 'I' for Inactive)
REMARK    1  A    between atoms: N1_1  and  C1_4
REMARK    2  A    between atoms: C2_9  and  S1_10
REMARK    3  A    between atoms: S1_10  and  C3_13
REMARK    4  A    between atoms: C3_13  and  N4_14
REMARK    5  A    between atoms: C3_13  and  N5_18
ROOT
HETATM    1  S1  UNL     1      -4.939   7.111  16.765  1.00  0.00     0.264 S
HETATM    2  O1  UNL     1      -6.235   7.747  16.330  1.00  0.00    -0.216 OA
HETATM    3  O2  UNL     1      -5.292   5.891  17.566  1.00  0.00    -0.216 OA
ENDROOT
BRANCH   1   4
HETATM    4  C2  UNL     1      -4.005   8.173  17.758  1.00  0.00     0.236 A
HETATM    5  N3  UNL     1      -2.751   8.558  17.462  1.00  0.00    -0.261 N
HETATM    6  N2  UNL     1      -2.302   9.367  18.406  1.00  0.00    -0.130 N
ATOM      7  H3  UNL     1      -2.227   8.270  16.636  1.00  0.00     0.190 HD
HETATM    8  C1  UNL     1      -3.276   9.501  19.312  1.00  0.00     0.692 A
ATOM      9  H2  UNL     1      -1.382   9.807  18.438  1.00  0.00     0.205 HD
HETATM   10  N6  UNL     1      -4.326   8.765  18.911  1.00  0.00    -0.163 N
ATOM     11  H6  UNL     1      -5.215   8.673  19.403  1.00  0.00     0.186 HD
BRANCH   8  12
HETATM   12  N1  UNL     1      -3.235  10.202  20.377  1.00  0.00    -0.233 N
ATOM     13  H12 UNL     1      -3.406  11.207  20.425  1.00  0.00     0.174 HD
ATOM     14  H11 UNL     1      -3.028   9.868  21.319  1.00  0.00     0.174 HD
ENDBRANCH   8  12
ENDBRANCH   1   4
BRANCH   1  15
HETATM   15  C3  UNL     1      -4.059   6.597  15.313  1.00  0.00     0.505 C
BRANCH  15  16
HETATM   16  N4  UNL     1      -3.969   5.151  15.275  1.00  0.00    -0.036 N
ATOM     17  H43 UNL     1      -4.441   4.718  16.068  1.00  0.00     0.278 HD
ATOM     18  H42 UNL     1      -4.538   4.752  14.527  1.00  0.00     0.278 HD
ATOM     19  H41 UNL     1      -2.992   4.865  15.208  1.00  0.00     0.278 HD
ENDBRANCH  15  16
BRANCH  15  20
HETATM   20  N5  UNL     1      -4.802   7.006  14.134  1.00  0.00    -0.036 N
ATOM     21  H53 UNL     1      -4.284   7.673  13.563  1.00  0.00     0.278 HD
ATOM     22  H52 UNL     1      -4.879   6.257  13.446  1.00  0.00     0.278 HD
ATOM     23  H51 UNL     1      -5.713   7.366  14.419  1.00  0.00     0.278 HD
ENDBRANCH  15  20
ENDBRANCH   1  15
TORSDOF 5
ENDMDL