MODEL 3
REMARK VINA RESULT: -4.973692381      2.091      2.585
REMARK  2 active torsions:
REMARK  status: ('A' for Active; 'I' for Inactive)
REMARK    1  A    between atoms: N1_1  and  C1_4
REMARK    2  A    between atoms: N3_9  and  N4_10
REMARK       I    between atoms: N4_10  and  C3_12
ROOT
HETATM    1  C1  UNL     1      -4.970   4.272  15.237  1.00  0.00     0.684 A
HETATM    2  N2  UNL     1      -4.715   5.536  14.877  1.00  0.00    -0.140 N
ATOM      3  H2  UNL     1      -4.443   5.715  13.910  1.00  0.00     0.189 HD
HETATM    4  C2  UNL     1      -4.797   6.596  15.728  1.00  0.00     0.364 A
HETATM    5  O1  UNL     1      -4.539   7.719  15.286  1.00  0.00    -0.244 OA
HETATM    6  N3  UNL     1      -5.150   6.386  16.996  1.00  0.00    -0.148 N
HETATM    7  C4  UNL     1      -5.418   5.089  17.388  1.00  0.00     0.364 A
HETATM    8  O3  UNL     1      -5.747   4.869  18.559  1.00  0.00    -0.244 OA
HETATM    9  N6  UNL     1      -5.326   4.075  16.526  1.00  0.00    -0.140 N
ATOM     10  H6  UNL     1      -5.529   3.128  16.847  1.00  0.00     0.189 HD
ENDROOT
BRANCH   6  11
HETATM   11  N4  UNL     1      -5.266   7.370  17.943  1.00  0.00    -0.239 N
HETATM   12  C3  UNL     1      -4.411   8.226  18.588  1.00  0.00     0.347 C
HETATM   13  N5  UNL     1      -4.950   9.155  19.561  1.00  0.00    -0.038 NA
HETATM   14  O2  UNL     1      -3.193   8.313  18.442  1.00  0.00    -0.249 OA
ATOM     15  H4  UNL     1      -6.233   7.497  18.244  1.00  0.00     0.192 HD
ENDBRANCH   6  11
BRANCH   1  16
HETATM   16  N1  UNL     1      -4.898   3.276  14.455  1.00  0.00    -0.234 N
ATOM     17  H12 UNL     1      -5.343   3.329  13.539  1.00  0.00     0.174 HD
ATOM     18  H11 UNL     1      -4.417   2.404  14.677  1.00  0.00     0.174 HD
ENDBRANCH   1  16
TORSDOF 2
ENDMDL