MODEL 1
REMARK VINA RESULT: -5.281759094      0.000      0.000
REMARK  3 active torsions:
REMARK  status: ('A' for Active; 'I' for Inactive)
REMARK    1  A    between atoms: N1_1  and  N2_4
REMARK    2  A    between atoms: N2_4  and  N3_5
REMARK       I    between atoms: N3_5  and  C1_7
REMARK    3  A    between atoms: C1_7  and  C2_9
ROOT
HETATM    1  C2  UNL     1      -3.864   7.795  16.706  1.00  0.00     0.180 A
HETATM    2  N4  UNL     1      -2.732   7.519  16.036  1.00  0.00    -0.326 N
ATOM      3  H4  UNL     1      -1.846   7.848  16.419  1.00  0.00     0.168 HD
HETATM    4  C3  UNL     1      -2.720   6.831  14.887  1.00  0.00     0.123 A
HETATM    5  N5  UNL     1      -1.517   6.555  14.205  1.00  0.00    -0.083 NA
HETATM    6  C4  UNL     1      -3.945   6.401  14.398  1.00  0.00     0.119 A
HETATM    7  C5  UNL     1      -5.105   6.679  15.074  1.00  0.00     0.250 A
HETATM    8  O2  UNL     1      -6.238   6.305  14.663  1.00  0.00    -0.268 OA
HETATM    9  N6  UNL     1      -5.052   7.370  16.218  1.00  0.00    -0.305 N
ATOM     10  H6  UNL     1      -5.913   7.579  16.724  1.00  0.00     0.170 HD
ENDROOT
BRANCH   1  11
HETATM   11  C1  UNL     1      -3.785   8.552  17.950  1.00  0.00     0.302 C
HETATM   12  N3  UNL     1      -4.877   8.911  18.740  1.00  0.00    -0.247 N
ATOM     13  H3  UNL     1      -5.818   8.639  18.452  1.00  0.00     0.187 HD
HETATM   14  O1  UNL     1      -2.617   8.906  18.335  1.00  0.00    -0.263 OA
BRANCH  12  15
HETATM   15  N2  UNL     1      -4.701   9.638  19.918  1.00  0.00    -0.027 NA
BRANCH  15  16
HETATM   16  N1  UNL     1      -4.379  10.934  19.572  1.00  0.00    -0.329 N
ATOM     17  H12 UNL     1      -3.443  11.265  19.335  1.00  0.00     0.174 HD
ATOM     18  H11 UNL     1      -5.235  11.487  19.596  1.00  0.00     0.174 HD
ENDBRANCH  15  16
ENDBRANCH  12  15
ENDBRANCH   1  11
TORSDOF 3
ENDMDL