MODEL 5
REMARK VINA RESULT: -5.184275384      1.707      3.571
REMARK  1 active torsions:
REMARK  status: ('A' for Active; 'I' for Inactive)
REMARK    1  A    between atoms: N1_1  and  C1_4
ROOT
HETATM    1  C1  UNL     1      -2.987   8.676  17.994  1.00  0.00     0.679 A
HETATM    2  N2  UNL     1      -4.103   8.451  18.699  1.00  0.00    -0.154 N
ATOM      3  H2  UNL     1      -4.128   8.761  19.671  1.00  0.00     0.187 HD
HETATM    4  C2  UNL     1      -5.187   7.845  18.203  1.00  0.00     0.290 A
HETATM    5  O1  UNL     1      -6.238   7.632  18.863  1.00  0.00    -0.265 OA
HETATM    6  C3  UNL     1      -5.160   7.425  16.895  1.00  0.00     0.149 A
HETATM    7  N3  UNL     1      -6.201   6.808  16.311  1.00  0.00    -0.279 N
ATOM      8  H3  UNL     1      -7.050   6.639  16.850  1.00  0.00     0.189 HD
HETATM    9  N4  UNL     1      -6.143   6.416  15.047  1.00  0.00    -0.240 N
ATOM     10  H4  UNL     1      -6.958   5.952  14.645  1.00  0.00     0.208 HD
HETATM   11  N5  UNL     1      -5.091   6.596  14.288  1.00  0.00    -0.269 N
ATOM     12  H5  UNL     1      -5.080   6.280  13.319  1.00  0.00     0.190 HD
HETATM   13  C4  UNL     1      -4.008   7.220  14.839  1.00  0.00     0.145 A
HETATM   14  N6  UNL     1      -2.982   7.397  14.103  1.00  0.00    -0.382 N
ATOM     15  H61 UNL     1      -2.173   7.864  14.514  1.00  0.00     0.157 HD
ATOM     16  H62 UNL     1      -2.990   7.076  13.136  1.00  0.00     0.157 HD
HETATM   17  C5  UNL     1      -3.997   7.660  16.160  1.00  0.00     0.127 A
HETATM   18  N7  UNL     1      -2.940   8.275  16.717  1.00  0.00    -0.186 N
ATOM     19  H7  UNL     1      -2.098   8.437  16.165  1.00  0.00     0.184 HD
ENDROOT
BRANCH   1  20
HETATM   20  N1  UNL     1      -1.952   9.276  18.533  1.00  0.00    -0.234 N
ATOM     21  H12 UNL     1      -1.718  10.232  18.265  1.00  0.00     0.174 HD
ATOM     22  H11 UNL     1      -1.368   8.804  19.223  1.00  0.00     0.174 HD
ENDBRANCH   1  20
TORSDOF 1
ENDMDL