MODEL 4
REMARK VINA RESULT: -3.723938488      1.686      3.799
REMARK  1 active torsions:
REMARK  status: ('A' for Active; 'I' for Inactive)
REMARK    1  A    between atoms: N1_2  and  C2_4
ROOT
HETATM    1  C2  UNL     1      86.879  -4.946   6.388  1.00  0.00     0.054 A
HETATM    2  C3  UNL     1      85.868  -5.505   5.629  1.00  0.00     0.173 A
HETATM    3  O1  UNL     1      85.232  -6.391   6.362  1.00  0.00    -0.306 OA
HETATM    4  C4  UNL     1      85.736  -6.475   7.556  1.00  0.00     0.158 A
HETATM    5  N2  UNL     1      85.308  -7.323   8.618  1.00  0.00    -0.074 NA
HETATM    6  C5  UNL     1      86.779  -5.580   7.620  1.00  0.00     0.084 A
ENDROOT
BRANCH   1   7
HETATM    7  N1  UNL     1      87.818  -3.947   6.006  1.00  0.00    -0.393 N
HETATM    8  C1  UNL     1      87.349  -2.796   5.262  1.00  0.00     0.146 C
ATOM      9  H1  UNL     1      88.803  -4.041   6.251  1.00  0.00     0.159 HD
ENDBRANCH   1   7
TORSDOF 1
ENDMDL