MODEL 3
REMARK VINA RESULT: -2.631544109      2.158      2.952
REMARK  1 active torsions:
REMARK  status: ('A' for Active; 'I' for Inactive)
REMARK       I    between atoms: C1_4  and  N3_6
REMARK    1  A    between atoms: N3_6  and  N4_8
ROOT
HETATM    1  N1  UNL     1      85.793  -4.032  10.506  1.00  0.00    -0.372 N
ATOM      2  H11 UNL     1      84.971  -4.610  10.331  1.00  0.00     0.158 HD
ATOM      3  H12 UNL     1      85.771  -3.154  11.025  1.00  0.00     0.158 HD
HETATM    4  C1  UNL     1      86.932  -4.411  10.058  1.00  0.00     0.201 C
HETATM    5  N2  UNL     1      88.070  -3.612  10.300  1.00  0.00    -0.062 NA
HETATM    6  N3  UNL     1      86.962  -5.627   9.338  1.00  0.00    -0.268 N
ATOM      7  H3  UNL     1      87.186  -6.499   9.818  1.00  0.00     0.190 HD
ENDROOT
BRANCH   6   8
HETATM    8  N4  UNL     1      86.687  -5.631   7.978  1.00  0.00    -0.276 N
HETATM    9  C2  UNL     1      87.358  -4.914   7.028  1.00  0.00     0.116 A
HETATM   10  C3  UNL     1      86.791  -5.181   5.800  1.00  0.00     0.021 A
HETATM   11  C4  UNL     1      85.770  -6.068   6.029  1.00  0.00     0.021 A
HETATM   12  C5  UNL     1      85.702  -6.348   7.366  1.00  0.00     0.116 A
ENDBRANCH   6   8
TORSDOF 1
ENDMDL