MODEL 1
REMARK VINA RESULT: -3.046466964      0.000      0.000
REMARK  2 active torsions:
REMARK  status: ('A' for Active; 'I' for Inactive)
REMARK    1  A    between atoms: C1_4  and  C2_5
REMARK    2  A    between atoms: C1_4  and  O1_7
ROOT
HETATM    1  N1  UNL     1      84.902  -7.112   8.502  1.00  0.00    -0.382 N
ATOM      2  H11 UNL     1      84.835  -7.332   9.495  1.00  0.00     0.158 HD
ATOM      3  H12 UNL     1      84.204  -7.441   7.834  1.00  0.00     0.158 HD
HETATM    4  C1  UNL     1      85.875  -6.412   8.066  1.00  0.00     0.137 C
ENDROOT
BRANCH   4   5
HETATM    5  C2  UNL     1      85.973  -6.091   6.618  1.00  0.00     0.170 C
HETATM    6  S1  UNL     1      87.698  -5.744   6.135  1.00  0.00    -0.089 SA
ENDBRANCH   4   5
BRANCH   4   7
HETATM    7  O1  UNL     1      86.823  -5.965   8.972  1.00  0.00    -0.252 OA
HETATM    8  S2  UNL     1      86.637  -4.418   9.674  1.00  0.00     0.101 SA
ENDBRANCH   4   7
TORSDOF 2
ENDMDL