MODEL 1
REMARK VINA RESULT: -3.756705069      0.000      0.000
REMARK  2 active torsions:
REMARK  status: ('A' for Active; 'I' for Inactive)
REMARK    1  A    between atoms: N1_1  and  N2_4
REMARK    2  A    between atoms: N2_4  and  C1_6
ROOT
HETATM    1  C1  UNL     1      86.765  -5.024   6.739  1.00  0.00     0.088 A
HETATM    2  C2  UNL     1      85.965  -6.093   6.472  1.00  0.00     0.039 A
HETATM    3  C3  UNL     1      85.605  -6.878   7.503  1.00  0.00     0.010 A
HETATM    4  C4  UNL     1      86.076  -6.527   8.746  1.00  0.00     0.052 A
HETATM    5  S1  UNL     1      87.002  -5.124   8.429  1.00  0.00    -0.083 SA
ENDROOT
BRANCH   1   6
HETATM    6  N2  UNL     1      87.306  -4.059   5.800  1.00  0.00    -0.300 N
ATOM      7  H2  UNL     1      88.298  -4.085   5.565  1.00  0.00     0.187 HD
BRANCH   6   8
HETATM    8  N1  UNL     1      86.472  -3.084   5.208  1.00  0.00    -0.344 N
ATOM      9  H12 UNL     1      85.460  -3.192   5.288  1.00  0.00     0.176 HD
ATOM     10  H11 UNL     1      86.873  -2.289   4.711  1.00  0.00     0.176 HD
ENDBRANCH   6   8
ENDBRANCH   1   6
TORSDOF 2
ENDMDL