MODEL 3
REMARK VINA RESULT: -5.080108370      0.133      1.687
REMARK  0 active torsions:
REMARK  status: ('A' for Active; 'I' for Inactive)
ROOT
HETATM    1  N1  UNL     1      87.767  -3.427   5.590  1.00  0.00    -0.102 NA
HETATM    2  C1  UNL     1      87.103  -4.473   6.267  1.00  0.00     0.046 A
HETATM    3  C2  UNL     1      86.146  -5.265   5.674  1.00  0.00     0.028 A
HETATM    4  C3  UNL     1      85.512  -6.280   6.355  1.00  0.00     0.028 A
HETATM    5  C4  UNL     1      85.860  -6.492   7.670  1.00  0.00     0.046 A
HETATM    6  N2  UNL     1      85.245  -7.522   8.435  1.00  0.00    -0.102 NA
HETATM    7  C5  UNL     1      86.803  -5.727   8.290  1.00  0.00     0.028 A
HETATM    8  C6  UNL     1      87.419  -4.724   7.591  1.00  0.00     0.028 A
ENDROOT
TORSDOF 0
ENDMDL