MODEL 2
REMARK VINA RESULT: -4.058144317      1.104      2.790
REMARK  1 active torsions:
REMARK  status: ('A' for Active; 'I' for Inactive)
REMARK    1  A    between atoms: C4_8  and  N3_9
ROOT
HETATM    1  C1  UNL     1      87.690  -4.524   8.990  1.00  0.00     0.072 C
HETATM    2  C2  UNL     1      86.712  -5.475   8.361  1.00  0.00     0.052 A
HETATM    3  N1  UNL     1      86.015  -6.434   8.942  1.00  0.00    -0.353 N
ATOM      4  H1  UNL     1      86.035  -6.683   9.930  1.00  0.00     0.166 HD
HETATM    5  C3  UNL     1      85.277  -7.020   7.986  1.00  0.00     0.182 A
HETATM    6  N2  UNL     1      85.502  -6.437   6.812  1.00  0.00    -0.336 N
ATOM      7  H2  UNL     1      85.073  -6.683   5.920  1.00  0.00     0.168 HD
HETATM    8  C4  UNL     1      86.398  -5.467   7.023  1.00  0.00     0.143 A
ENDROOT
BRANCH   8   9
HETATM    9  N3  UNL     1      86.924  -4.596   6.057  1.00  0.00    -0.290 N
HETATM   10  N4  UNL     1      86.211  -3.683   5.553  1.00  0.00    -0.344 N
ATOM     11  H42 UNL     1      85.244  -3.592   5.863  1.00  0.00     0.176 HD
ATOM     12  H41 UNL     1      86.594  -3.050   4.850  1.00  0.00     0.176 HD
ATOM     13  H3  UNL     1      87.894  -4.702   5.758  1.00  0.00     0.188 HD
ENDBRANCH   8   9
TORSDOF 1
ENDMDL