MODEL 5
REMARK VINA RESULT: -3.871104054      1.998      3.126
REMARK  1 active torsions:
REMARK  status: ('A' for Active; 'I' for Inactive)
REMARK    1  A    between atoms: N1_1  and  C1_4
ROOT
HETATM    1  C1  UNL     1      87.468  -5.844   6.702  1.00  0.00     0.143 A
HETATM    2  N2  UNL     1      87.556  -5.193   7.861  1.00  0.00    -0.325 N
ATOM      3  H2  UNL     1      88.435  -4.761   8.147  1.00  0.00     0.169 HD
HETATM    4  C2  UNL     1      86.503  -5.114   8.622  1.00  0.00     0.124 A
HETATM    5  N3  UNL     1      86.513  -4.422   9.902  1.00  0.00    -0.082 NA
HETATM    6  C3  UNL     1      85.350  -5.709   8.189  1.00  0.00     0.098 A
HETATM    7  S1  UNL     1      85.843  -6.360   6.691  1.00  0.00    -0.063 SA
ENDROOT
BRANCH   1   8
HETATM    8  N1  UNL     1      88.408  -6.034   5.801  1.00  0.00    -0.380 N
ATOM      9  H12 UNL     1      88.412  -6.654   4.992  1.00  0.00     0.158 HD
ATOM     10  H11 UNL     1      89.324  -5.587   5.741  1.00  0.00     0.158 HD
ENDBRANCH   1   8
TORSDOF 1
ENDMDL