MODEL 2
REMARK VINA RESULT: -4.684299959      0.054      2.188
REMARK  0 active torsions:
REMARK  status: ('A' for Active; 'I' for Inactive)
ROOT
HETATM    1  N1  UNL     1      84.358  -6.023   8.518  1.00  0.00    -0.100 NA
HETATM    2  C1  UNL     1      85.557  -5.767   7.815  1.00  0.00     0.070 A
HETATM    3  C2  UNL     1      85.753  -6.175   6.507  1.00  0.00     0.028 A
HETATM    4  C3  UNL     1      86.916  -5.930   5.811  1.00  0.00     0.002 A
HETATM    5  C4  UNL     1      87.956  -5.252   6.411  1.00  0.00     0.002 A
HETATM    6  C5  UNL     1      87.781  -4.837   7.711  1.00  0.00     0.028 A
HETATM    7  C6  UNL     1      86.620  -5.078   8.413  1.00  0.00     0.070 A
HETATM    8  N2  UNL     1      86.474  -4.635   9.756  1.00  0.00    -0.100 NA
ENDROOT
TORSDOF 0
ENDMDL