MODEL 5
REMARK VINA RESULT: -3.379858459      0.692      1.146
REMARK  2 active torsions:
REMARK  status: ('A' for Active; 'I' for Inactive)
REMARK    1  A    between atoms: C2_2  and  C3_3
REMARK    2  A    between atoms: C5_6  and  N1_7
ROOT
HETATM    1  C3  UNL     1      87.072  -5.355   7.162  1.00  0.00     0.034 A
HETATM    2  C4  UNL     1      87.201  -5.061   8.503  1.00  0.00     0.170 A
HETATM    3  O1  UNL     1      86.322  -5.786   9.192  1.00  0.00    -0.290 OA
HETATM    4  C5  UNL     1      85.637  -6.527   8.368  1.00  0.00     0.221 A
HETATM    5  N2  UNL     1      86.073  -6.284   7.121  1.00  0.00    -0.324 N
ATOM      6  H2  UNL     1      85.714  -6.726   6.275  1.00  0.00     0.169 HD
ENDROOT
BRANCH   4   7
HETATM    7  N1  UNL     1      84.701  -7.348   8.709  1.00  0.00    -0.365 N
ATOM      8  H12 UNL     1      83.771  -7.415   8.296  1.00  0.00     0.159 HD
ATOM      9  H11 UNL     1      84.774  -8.047   9.449  1.00  0.00     0.159 HD
ENDBRANCH   4   7
BRANCH   1  10
HETATM   10  C2  UNL     1      87.817  -4.816   5.995  1.00  0.00     0.054 C
HETATM   11  C1  UNL     1      88.759  -5.863   5.444  1.00  0.00     0.011 C
ENDBRANCH   1  10
TORSDOF 2
ENDMDL