MODEL 5
REMARK VINA RESULT: -3.670188893      1.474      2.619
REMARK  0 active torsions:
REMARK  status: ('A' for Active; 'I' for Inactive)
ROOT
HETATM    1  C1  UNL     1      84.847  -8.005   7.945  1.00  0.00     0.068 C
HETATM    2  C2  UNL     1      85.696  -6.771   7.902  1.00  0.00     0.008 A
HETATM    3  C3  UNL     1      86.039  -6.066   6.769  1.00  0.00     0.054 A
HETATM    4  C4  UNL     1      86.829  -5.001   7.178  1.00  0.00     0.089 A
HETATM    5  N1  UNL     1      87.399  -4.022   6.330  1.00  0.00    -0.099 NA
HETATM    6  C5  UNL     1      86.961  -5.068   8.556  1.00  0.00     0.141 A
HETATM    7  N2  UNL     1      87.694  -4.172   9.410  1.00  0.00    -0.081 NA
HETATM    8  N3  UNL     1      86.263  -6.148   8.939  1.00  0.00    -0.347 N
ATOM      9  H3  UNL     1      86.176  -6.458   9.907  1.00  0.00     0.167 HD
ENDROOT
TORSDOF 0
ENDMDL