MODEL 3
REMARK VINA RESULT: -7.037336532      3.441      8.716
REMARK  5 active torsions:
REMARK  status: ('A' for Active; 'I' for Inactive)
REMARK       I    between atoms: C2_2  and  N1_4
REMARK    1  A    between atoms: N1_4  and  C3_6
REMARK    2  A    between atoms: C3_6  and  O2_7
REMARK    3  A    between atoms: C3_6  and  C4_9
REMARK       I    between atoms: C4_9  and  N2_11
REMARK    4  A    between atoms: N2_11  and  N3_13
REMARK       I    between atoms: N3_13  and  C5_15
REMARK       I    between atoms: C5_15  and  N4_17
REMARK    5  A    between atoms: N4_17  and  C6_19
ROOT
HETATM    1  N3  UNL     1       4.691  17.363  23.687  1.00  0.00    -0.249 N
ATOM      2  H3  UNL     1       4.909  16.376  23.824  1.00  0.00     0.192 HD
HETATM    3  C5  UNL     1       3.735  17.867  24.572  1.00  0.00     0.335 C
HETATM    4  O4  UNL     1       3.320  19.021  24.568  1.00  0.00    -0.246 OA
HETATM    5  N4  UNL     1       3.199  16.986  25.550  1.00  0.00    -0.336 N
ATOM      6  H4  UNL     1       3.518  16.018  25.584  1.00  0.00     0.164 HD
ENDROOT
BRANCH   1   7
HETATM    7  N2  UNL     1       5.387  17.953  22.671  1.00  0.00    -0.259 N
HETATM    8  C4  UNL     1       6.500  18.838  22.678  1.00  0.00     0.311 C
HETATM    9  O3  UNL     1       7.039  19.238  23.719  1.00  0.00    -0.262 OA
ATOM     10  H2  UNL     1       5.048  17.716  21.738  1.00  0.00     0.190 HD
BRANCH   8  11
HETATM   11  C3  UNL     1       7.001  19.271  21.390  1.00  0.00     0.214 C
BRANCH  11  12
HETATM   12  N1  UNL     1       6.470  20.153  20.479  1.00  0.00    -0.303 N
HETATM   13  C2  UNL     1       5.164  20.331  20.033  1.00  0.00     0.219 C
HETATM   14  C1  UNL     1       4.921  21.440  19.020  1.00  0.00     0.117 C
HETATM   15  O1  UNL     1       4.175  19.677  20.379  1.00  0.00    -0.274 OA
ATOM     16  H1  UNL     1       7.150  20.785  20.057  1.00  0.00     0.171 HD
ENDBRANCH  11  12
BRANCH  11  17
HETATM   17  O2  UNL     1       8.154  18.711  21.069  1.00  0.00    -0.342 OA
ATOM     18  H2  UNL     1       8.691  18.400  21.789  1.00  0.00     0.219 HD
ENDBRANCH  11  17
ENDBRANCH   8  11
ENDBRANCH   1   7
BRANCH   5  19
HETATM   19  C6  UNL     1       2.223  17.438  26.482  1.00  0.00     0.112 C
HETATM   20  C7  UNL     1       1.461  16.336  27.132  1.00  0.00     0.028 C
HETATM   21  C8  UNL     1       1.163  16.757  28.551  1.00  0.00     0.029 C
HETATM   22  C9  UNL     1       0.873  18.239  28.652  1.00  0.00     0.232 C
HETATM   23  N5  UNL     1       1.950  19.068  28.204  1.00  0.00    -0.073 N
HETATM   24  C10 UNL     1       2.968  18.269  27.537  1.00  0.00     0.257 C
ATOM     25  H52 UNL     1       1.621  19.831  27.613  1.00  0.00     0.277 HD
ATOM     26  H51 UNL     1       2.343  19.624  28.965  1.00  0.00     0.277 HD
ENDBRANCH   5  19
TORSDOF 5
ENDMDL