MODEL 3
REMARK VINA RESULT: -5.369390597      3.126      6.891
REMARK  4 active torsions:
REMARK  status: ('A' for Active; 'I' for Inactive)
REMARK    1  A    between atoms: N1_1  and  C1_5
REMARK    2  A    between atoms: C1_5  and  C2_6
REMARK    3  A    between atoms: C2_6  and  N2_7
REMARK       I    between atoms: N2_7  and  C3_9
REMARK       I    between atoms: C3_9  and  N5_15
REMARK    4  A    between atoms: N3_10  and  N4_12
ROOT
HETATM    1  N2  UNL     1       7.094  20.278  20.198  1.00  0.00    -0.223 N
ATOM      2  H2  UNL     1       6.149  20.456  20.536  1.00  0.00     0.177 HD
HETATM    3  C3  UNL     1       7.596  20.929  18.982  1.00  0.00     0.690 C
HETATM    4  N3  UNL     1       8.808  21.219  19.020  1.00  0.00    -0.139 N
ATOM      5  H3  UNL     1       9.176  20.922  19.924  1.00  0.00     0.205 HD
HETATM    6  N5  UNL     1       6.655  21.143  17.945  1.00  0.00    -0.214 N
HETATM    7  C4  UNL     1       5.244  21.097  18.271  1.00  0.00     0.160 C
HETATM    8  C5  UNL     1       4.731  22.256  19.036  1.00  0.00     0.134 C
HETATM    9  N6  UNL     1       4.082  23.283  18.292  1.00  0.00    -0.418 N
ATOM     10  H6  UNL     1       4.271  24.269  18.465  1.00  0.00     0.153 HD
HETATM   11  C6  UNL     1       3.155  22.864  17.296  1.00  0.00     0.141 C
HETATM   12  C7  UNL     1       2.530  24.130  16.685  1.00  0.00     0.251 C
HETATM   13  N7  UNL     1       3.548  25.073  16.318  1.00  0.00    -0.072 N
ATOM     14  H71 UNL     1       4.161  25.265  17.110  1.00  0.00     0.277 HD
ATOM     15  H72 UNL     1       3.145  26.001  16.184  1.00  0.00     0.277 HD
HETATM   16  C8  UNL     1       4.317  24.686  15.166  1.00  0.00     0.259 C
HETATM   17  C9  UNL     1       5.797  24.592  15.474  1.00  0.00     0.259 C
HETATM   18  N8  UNL     1       6.300  23.269  15.241  1.00  0.00    -0.072 N
ATOM     19  H81 UNL     1       6.757  23.186  14.332  1.00  0.00     0.277 HD
ATOM     20  H82 UNL     1       5.551  22.594  15.091  1.00  0.00     0.277 HD
HETATM   21  C10 UNL     1       7.161  22.889  16.315  1.00  0.00     0.252 C
HETATM   22  C11 UNL     1       7.098  21.397  16.601  1.00  0.00     0.168 C
ENDROOT
BRANCH   1  23
HETATM   23  C2  UNL     1       7.972  19.384  20.899  1.00  0.00     0.165 C
BRANCH  23  24
HETATM   24  C1  UNL     1       7.433  18.970  22.238  1.00  0.00     0.249 C
BRANCH  24  25
HETATM   25  N1  UNL     1       7.006  17.603  22.181  1.00  0.00    -0.078 N
ATOM     26  H13 UNL     1       6.002  17.519  22.016  1.00  0.00     0.274 HD
ATOM     27  H12 UNL     1       7.331  17.132  21.337  1.00  0.00     0.274 HD
ATOM     28  H11 UNL     1       7.298  17.118  23.030  1.00  0.00     0.274 HD
ENDBRANCH  24  25
ENDBRANCH  23  24
ENDBRANCH   1  23
BRANCH   4  29
HETATM   29  N4  UNL     1       9.794  21.763  18.334  1.00  0.00    -0.331 N
ATOM     30  H42 UNL     1       9.848  21.251  17.453  1.00  0.00     0.177 HD
ATOM     31  H41 UNL     1      10.508  22.491  18.356  1.00  0.00     0.177 HD
ENDBRANCH   4  29
TORSDOF 4
ENDMDL