MODEL 5
REMARK VINA RESULT: -7.512020189      2.955      6.219
REMARK  4 active torsions:
REMARK  status: ('A' for Active; 'I' for Inactive)
REMARK    1  A    between atoms: C2_2  and  N1_3
REMARK       I    between atoms: C3_5  and  N3_7
REMARK    2  A    between atoms: C7_14  and  O1_15
REMARK    3  A    between atoms: C7_14  and  C8_17
REMARK    4  A    between atoms: C10_21  and  N7_22
ROOT
HETATM    1  C1  UNL     1       3.594  21.056  24.350  1.00  0.00     0.041 C
HETATM    2  C2  UNL     1       3.445  19.536  24.220  1.00  0.00     0.057 C
HETATM    3  C5  UNL     1       4.378  18.918  25.187  1.00  0.00     0.036 C
HETATM    4  C6  UNL     1       3.751  18.290  26.384  1.00  0.00     0.050 C
HETATM    5  C7  UNL     1       2.620  19.072  26.981  1.00  0.00     0.138 C
HETATM    6  C9  UNL     1       1.789  19.797  25.961  1.00  0.00     0.082 C
HETATM    7  C10 UNL     1       2.000  19.225  24.572  1.00  0.00     0.214 C
ENDROOT
BRANCH   2   8
HETATM    8  N1  UNL     1       3.643  19.122  22.862  1.00  0.00    -0.353 N
HETATM    9  C3  UNL     1       4.696  18.880  22.227  1.00  0.00     0.191 C
HETATM   10  N2  UNL     1       4.625  18.479  20.867  1.00  0.00    -0.063 NA
HETATM   11  N3  UNL     1       5.957  18.999  22.848  1.00  0.00    -0.307 N
HETATM   12  C4  UNL     1       7.066  19.153  22.220  1.00  0.00     0.203 C
ATOM     13  H3  UNL     1       5.990  18.961  23.867  1.00  0.00     0.170 HD
HETATM   14  N4  UNL     1       8.280  19.263  22.944  1.00  0.00    -0.066 NA
HETATM   15  N5  UNL     1       7.106  19.217  20.806  1.00  0.00    -0.066 NA
ATOM     16  H1  UNL     1       2.785  19.006  22.324  1.00  0.00     0.163 HD
ENDBRANCH   2   8
BRANCH   7  17
HETATM   17  N7  UNL     1       1.085  19.795  23.641  1.00  0.00    -0.073 N
ATOM     18  H73 UNL     1       0.599  20.596  24.044  1.00  0.00     0.274 HD
ATOM     19  H72 UNL     1       1.576  20.269  22.883  1.00  0.00     0.274 HD
ATOM     20  H71 UNL     1       0.424  19.107  23.279  1.00  0.00     0.274 HD
ENDBRANCH   7  17
BRANCH   5  21
HETATM   21  O1  UNL     1       3.091  19.975  27.929  1.00  0.00    -0.380 OA
ATOM     22  H1  UNL     1       3.052  19.599  28.800  1.00  0.00     0.211 HD
ENDBRANCH   5  21
BRANCH   5  23
HETATM   23  C8  UNL     1       1.732  18.111  27.685  1.00  0.00     0.265 C
HETATM   24  N6  UNL     1       1.131  18.440  28.932  1.00  0.00    -0.059 NA
HETATM   25  O2  UNL     1       1.479  16.967  27.204  1.00  0.00    -0.273 OA
ENDBRANCH   5  23
TORSDOF 4
ENDMDL