MODEL 4
REMARK VINA RESULT: -7.270079294      1.987      8.332
REMARK  6 active torsions:
REMARK  status: ('A' for Active; 'I' for Inactive)
REMARK    1  A    between atoms: C2_2  and  C4_4
REMARK       I    between atoms: C4_4  and  N1_6
REMARK    2  A    between atoms: N1_6  and  N2_8
REMARK       I    between atoms: N2_8  and  C5_10
REMARK    3  A    between atoms: C5_10  and  C6_12
REMARK       I    between atoms: C6_12  and  N3_14
REMARK    4  A    between atoms: N3_14  and  N4_16
REMARK       I    between atoms: N4_16  and  C7_18
REMARK    5  A    between atoms: C7_18  and  C8_20
REMARK    6  A    between atoms: C10_22  and  N5_23
ROOT
HETATM    1  C6  UNL     1       4.436  20.294  21.642  1.00  0.00     0.329 C
HETATM    2  O3  UNL     1       3.899  21.451  21.589  1.00  0.00    -0.261 OA
HETATM    3  N3  UNL     1       5.335  19.905  20.626  1.00  0.00    -0.259 N
ATOM      4  H3  UNL     1       5.754  18.977  20.680  1.00  0.00     0.190 HD
ENDROOT
BRANCH   1   5
HETATM    5  C5  UNL     1       4.132  19.387  22.722  1.00  0.00     0.329 C
HETATM    6  N2  UNL     1       4.539  19.683  24.048  1.00  0.00    -0.259 N
ATOM      7  H2  UNL     1       5.052  20.548  24.216  1.00  0.00     0.190 HD
HETATM    8  O2  UNL     1       3.508  18.330  22.500  1.00  0.00    -0.261 OA
BRANCH   6   9
HETATM    9  N1  UNL     1       4.273  18.854  25.126  1.00  0.00    -0.267 N
HETATM   10  C4  UNL     1       3.105  18.994  25.911  1.00  0.00     0.239 C
HETATM   11  O1  UNL     1       2.269  19.881  25.655  1.00  0.00    -0.271 OA
ATOM     12  H1  UNL     1       4.941  18.119  25.361  1.00  0.00     0.190 HD
BRANCH  10  13
HETATM   13  C2  UNL     1       2.823  18.097  27.071  1.00  0.00     0.071 C
HETATM   14  C1  UNL     1       1.895  18.717  28.071  1.00  0.00     0.019 C
HETATM   15  C3  UNL     1       2.238  16.798  26.505  1.00  0.00     0.019 C
ENDBRANCH  10  13
ENDBRANCH   6   9
ENDBRANCH   1   5
BRANCH   3  16
HETATM   16  N4  UNL     1       5.679  20.726  19.555  1.00  0.00    -0.267 N
HETATM   17  C7  UNL     1       7.033  20.855  19.172  1.00  0.00     0.242 C
HETATM   18  O4  UNL     1       7.894  20.191  19.850  1.00  0.00    -0.271 OA
ATOM     19  H4  UNL     1       4.955  21.232  19.047  1.00  0.00     0.190 HD
BRANCH  17  20
HETATM   20  C8  UNL     1       7.514  21.682  18.073  1.00  0.00     0.112 A
HETATM   21  C9  UNL     1       7.884  23.101  18.508  1.00  0.00     0.050 A
HETATM   22  C10 UNL     1       8.877  22.142  17.850  1.00  0.00     0.197 A
BRANCH  22  23
HETATM   23  N5  UNL     1      10.023  21.837  18.638  1.00  0.00    -0.074 N
ATOM     24  H53 UNL     1       9.731  21.936  19.610  1.00  0.00     0.274 HD
ATOM     25  H52 UNL     1      10.174  20.834  18.539  1.00  0.00     0.274 HD
ATOM     26  H51 UNL     1      10.944  22.270  18.573  1.00  0.00     0.274 HD
ENDBRANCH  22  23
ENDBRANCH  17  20
ENDBRANCH   3  16
TORSDOF 6
ENDMDL