MODEL 4
REMARK VINA RESULT: -7.292382310      1.869      2.269
REMARK  5 active torsions:
REMARK  status: ('A' for Active; 'I' for Inactive)
REMARK    1  A    between atoms: N1_1  and  N2_4
REMARK       I    between atoms: N2_4  and  C1_6
REMARK       I    between atoms: C1_6  and  N3_8
REMARK    2  A    between atoms: N3_8  and  N4_10
REMARK       I    between atoms: N4_10  and  C2_12
REMARK    3  A    between atoms: C2_12  and  C3_14
REMARK    4  A    between atoms: C3_14  and  O3_15
REMARK    5  A    between atoms: C3_14  and  C4_17
REMARK       I    between atoms: N5_22  and  C9_23
ROOT
HETATM    1  N4  UNL     1       2.710  16.461  26.517  1.00  0.00    -0.264 N
ATOM      2  H4  UNL     1       3.649  16.207  26.823  1.00  0.00     0.190 HD
HETATM    3  C2  UNL     1       2.578  17.125  25.278  1.00  0.00     0.267 C
HETATM    4  O2  UNL     1       1.442  17.439  24.893  1.00  0.00    -0.269 OA
ENDROOT
BRANCH   3   5
HETATM    5  C3  UNL     1       3.776  17.431  24.467  1.00  0.00     0.234 C
BRANCH   5   6
HETATM    6  O3  UNL     1       4.785  17.723  25.440  1.00  0.00    -0.384 OA
ATOM      7  H3  UNL     1       4.371  17.514  26.269  1.00  0.00     0.210 HD
ENDBRANCH   5   6
BRANCH   5   8
HETATM    8  C4  UNL     1       3.648  18.677  23.673  1.00  0.00     0.126 C
HETATM    9  C5  UNL     1       3.758  19.892  24.565  1.00  0.00     0.028 C
HETATM   10  C6  UNL     1       3.752  21.104  23.686  1.00  0.00     0.004 C
HETATM   11  C7  UNL     1       3.252  20.892  22.281  1.00  0.00     0.020 C
HETATM   12  C8  UNL     1       4.023  19.804  21.551  1.00  0.00     0.128 C
HETATM   13  N5  UNL     1       4.568  18.889  22.598  1.00  0.00    -0.329 N
HETATM   14  C9  UNL     1       5.869  18.443  22.445  1.00  0.00     0.331 C
HETATM   15  N6  UNL     1       6.615  18.713  21.268  1.00  0.00    -0.040 NA
HETATM   16  O4  UNL     1       6.465  17.780  23.325  1.00  0.00    -0.251 OA
ENDBRANCH   5   8
ENDBRANCH   3   5
BRANCH   1  17
HETATM   17  N3  UNL     1       1.652  16.132  27.346  1.00  0.00    -0.248 N
HETATM   18  C1  UNL     1       1.275  16.987  28.408  1.00  0.00     0.353 C
HETATM   19  N2  UNL     1       0.190  16.637  29.248  1.00  0.00    -0.257 N
HETATM   20  O1  UNL     1       1.897  18.050  28.605  1.00  0.00    -0.244 OA
ATOM     21  H2  UNL     1      -0.301  15.762  29.063  1.00  0.00     0.191 HD
ATOM     22  H3  UNL     1       1.139  15.264  27.191  1.00  0.00     0.192 HD
BRANCH  19  23
HETATM   23  N1  UNL     1      -0.243  17.422  30.311  1.00  0.00    -0.341 N
ATOM     24  H12 UNL     1       0.007  17.112  31.250  1.00  0.00     0.177 HD
ATOM     25  H11 UNL     1      -0.789  18.276  30.196  1.00  0.00     0.177 HD
ENDBRANCH  19  23
ENDBRANCH   1  17
TORSDOF 5
ENDMDL