MODEL 4
REMARK VINA RESULT: -6.760491876      4.659      7.508
REMARK  3 active torsions:
REMARK  status: ('A' for Active; 'I' for Inactive)
REMARK    1  A    between atoms: C3_3  and  N1_4
REMARK    2  A    between atoms: C3_3  and  C4_8
REMARK       I    between atoms: C4_8  and  N2_10
REMARK    3  A    between atoms: N2_10  and  C5_12
ROOT
HETATM    1  C1  UNL     1       1.496  20.050  23.513  1.00  0.00     0.015 C
HETATM    2  C2  UNL     1       2.518  19.757  22.954  1.00  0.00    -0.075 C
HETATM    3  C3  UNL     1       3.756  19.378  22.260  1.00  0.00     0.352 C
ENDROOT
BRANCH   3   4
HETATM    4  N1  UNL     1       3.539  18.073  21.683  1.00  0.00    -0.056 N
ATOM      5  H13 UNL     1       3.200  17.389  22.359  1.00  0.00     0.276 HD
ATOM      6  H12 UNL     1       2.738  18.043  21.053  1.00  0.00     0.276 HD
ATOM      7  H11 UNL     1       4.411  17.793  21.235  1.00  0.00     0.276 HD
ENDBRANCH   3   4
BRANCH   3   8
HETATM    8  C4  UNL     1       4.151  20.389  21.255  1.00  0.00     0.262 C
HETATM    9  O1  UNL     1       3.974  21.593  21.568  1.00  0.00    -0.270 OA
HETATM   10  N2  UNL     1       4.698  20.096  19.999  1.00  0.00    -0.336 N
ATOM     11  H2  UNL     1       4.840  19.119  19.745  1.00  0.00     0.164 HD
BRANCH  10  12
HETATM   12  C5  UNL     1       5.076  21.138  19.032  1.00  0.00     0.205 C
HETATM   13  C6  UNL     1       6.571  21.103  18.956  1.00  0.00     0.278 C
HETATM   14  N3  UNL     1       7.176  22.424  18.691  1.00  0.00    -0.070 N
HETATM   15  C7  UNL     1       6.444  22.967  17.611  1.00  0.00     0.251 C
ATOM     16  H32 UNL     1       7.209  23.031  19.510  1.00  0.00     0.277 HD
ATOM     17  H31 UNL     1       8.182  22.388  18.527  1.00  0.00     0.277 HD
HETATM   18  C8  UNL     1       7.025  24.127  16.846  1.00  0.00     0.146 C
HETATM   19  N4  UNL     1       6.072  24.326  15.753  1.00  0.00    -0.399 N
HETATM   20  C9  UNL     1       4.869  24.940  16.094  1.00  0.00     0.075 C
ATOM     21  H4  UNL     1       6.278  24.033  14.797  1.00  0.00     0.158 HD
HETATM   22  C10 UNL     1       3.644  24.112  16.257  1.00  0.00     0.162 C
HETATM   23  N5  UNL     1       3.653  22.829  15.653  1.00  0.00    -0.396 N
HETATM   24  C11 UNL     1       2.856  21.826  16.215  1.00  0.00     0.075 C
ATOM     25  H5  UNL     1       4.224  22.643  14.829  1.00  0.00     0.159 HD
HETATM   26  C12 UNL     1       3.147  21.332  17.568  1.00  0.00     0.160 C
HETATM   27  N6  UNL     1       4.416  20.738  17.787  1.00  0.00    -0.396 N
ATOM     28  H6  UNL     1       4.837  20.083  17.128  1.00  0.00     0.155 HD
ENDBRANCH  10  12
ENDBRANCH   3   8
TORSDOF 3
ENDMDL