MODEL 5
REMARK VINA RESULT: -6.883953290      2.243      6.750
REMARK  3 active torsions:
REMARK  status: ('A' for Active; 'I' for Inactive)
REMARK       I    between atoms: C2_4  and  N2_5
REMARK       I    between atoms: C2_4  and  N5_10
REMARK    1  A    between atoms: N5_10  and  N6_12
REMARK    2  A    between atoms: C4_14  and  C5_15
REMARK    3  A    between atoms: C7_17  and  N7_18
REMARK       I    between atoms: N8_23  and  C9_24
ROOT
HETATM    1  C5  UNL     1       5.524  21.549  18.299  1.00  0.00     0.129 C
HETATM    2  C6  UNL     1       5.392  22.980  18.819  1.00  0.00     0.065 C
HETATM    3  C7  UNL     1       4.712  23.768  17.745  1.00  0.00     0.203 C
HETATM    4  C8  UNL     1       4.745  22.843  16.557  1.00  0.00     0.159 C
HETATM    5  N8  UNL     1       4.611  21.534  17.201  1.00  0.00    -0.344 N
HETATM    6  C9  UNL     1       3.716  20.543  16.726  1.00  0.00     0.184 C
HETATM    7  N9  UNL     1       2.460  20.683  16.965  1.00  0.00    -0.374 N
ATOM      8  H91 UNL     1       1.815  19.970  16.623  1.00  0.00     0.158 HD
ATOM      9  H92 UNL     1       2.177  21.511  17.490  1.00  0.00     0.158 HD
HETATM   10  N10 UNL     1       4.109  19.392  15.996  1.00  0.00    -0.064 NA
ENDROOT
BRANCH   1  11
HETATM   11  C4  UNL     1       5.150  20.647  19.407  1.00  0.00     0.106 C
HETATM   12  N6  UNL     1       4.456  21.007  20.421  1.00  0.00    -0.299 N
ATOM     13  H6  UNL     1       4.123  21.968  20.503  1.00  0.00     0.186 HD
BRANCH  12  14
HETATM   14  N5  UNL     1       4.159  20.074  21.410  1.00  0.00    -0.133 N
HETATM   15  C2  UNL     1       3.939  20.399  22.761  1.00  0.00     0.694 C
HETATM   16  N1  UNL     1       4.763  19.967  23.646  1.00  0.00    -0.229 N
HETATM   17  N2  UNL     1       2.810  21.203  23.172  1.00  0.00    -0.165 N
HETATM   18  C1  UNL     1       5.890  19.165  23.235  1.00  0.00     0.165 C
ATOM     19  H1  UNL     1       4.622  20.190  24.632  1.00  0.00     0.177 HD
HETATM   20  C3  UNL     1       1.731  20.603  23.512  1.00  0.00     0.215 C
ATOM     21  H2  UNL     1       2.871  22.221  23.192  1.00  0.00     0.186 HD
HETATM   22  N3  UNL     1       1.611  19.183  23.495  1.00  0.00    -0.066 NA
HETATM   23  N4  UNL     1       0.612  21.398  23.920  1.00  0.00    -0.066 NA
ATOM     24  H5  UNL     1       4.097  19.093  21.139  1.00  0.00     0.205 HD
ENDBRANCH  12  14
ENDBRANCH   1  11
BRANCH   3  25
HETATM   25  N7  UNL     1       5.433  25.001  17.497  1.00  0.00    -0.073 N
ATOM     26  H73 UNL     1       5.372  25.288  16.520  1.00  0.00     0.274 HD
ATOM     27  H72 UNL     1       4.969  25.805  17.920  1.00  0.00     0.274 HD
ATOM     28  H71 UNL     1       6.401  24.912  17.809  1.00  0.00     0.274 HD
ENDBRANCH   3  25
TORSDOF 3
ENDMDL