MODEL 4
REMARK VINA RESULT: -6.116426924      5.549      8.403
REMARK  3 active torsions:
REMARK  status: ('A' for Active; 'I' for Inactive)
REMARK       I    between atoms: C1_4  and  N3_6
REMARK       I    between atoms: N3_6  and  C2_8
REMARK       I    between atoms: C2_8  and  N5_12
REMARK    1  A    between atoms: C6_16  and  C7_17
REMARK       I    between atoms: C7_17  and  N6_19
REMARK    2  A    between atoms: N6_19  and  S1_21
REMARK    3  A    between atoms: S1_21  and  N7_22
ROOT
HETATM    1  N1  UNL     1       3.860  19.168  21.028  1.00  0.00    -0.373 N
ATOM      2  H11 UNL     1       3.578  19.179  20.048  1.00  0.00     0.158 HD
ATOM      3  H12 UNL     1       3.865  18.300  21.563  1.00  0.00     0.158 HD
HETATM    4  C1  UNL     1       4.208  20.284  21.545  1.00  0.00     0.200 C
HETATM    5  N2  UNL     1       4.607  20.269  22.930  1.00  0.00    -0.063 NA
HETATM    6  N3  UNL     1       4.200  21.484  20.804  1.00  0.00    -0.164 N
ATOM      7  H3  UNL     1       3.975  22.365  21.266  1.00  0.00     0.187 HD
HETATM    8  C2  UNL     1       4.503  21.469  19.428  1.00  0.00     0.677 C
HETATM    9  N4  UNL     1       4.295  20.363  18.793  1.00  0.00    -0.234 N
ATOM     10  H41 UNL     1       4.514  20.353  17.797  1.00  0.00     0.174 HD
ATOM     11  H42 UNL     1       3.928  19.552  19.291  1.00  0.00     0.174 HD
HETATM   12  N5  UNL     1       5.009  22.589  18.741  1.00  0.00    -0.204 N
HETATM   13  C3  UNL     1       4.679  23.953  19.033  1.00  0.00     0.142 C
HETATM   14  C4  UNL     1       4.373  24.470  17.619  1.00  0.00     0.023 C
HETATM   15  C5  UNL     1       5.419  23.771  16.801  1.00  0.00     0.037 C
HETATM   16  C6  UNL     1       5.925  22.594  17.643  1.00  0.00     0.195 C
ENDROOT
BRANCH  16  17
HETATM   17  C7  UNL     1       7.321  22.883  17.989  1.00  0.00     0.255 C
HETATM   18  O1  UNL     1       7.817  22.165  18.921  1.00  0.00    -0.270 OA
HETATM   19  N6  UNL     1       8.152  23.859  17.405  1.00  0.00    -0.236 N
ATOM     20  H6  UNL     1       7.786  24.452  16.660  1.00  0.00     0.183 HD
BRANCH  19  21
HETATM   21  S1  UNL     1       9.779  24.062  17.934  1.00  0.00     0.319 S
HETATM   22  O2  UNL     1       9.841  25.013  19.120  1.00  0.00    -0.183 OA
HETATM   23  O3  UNL     1      10.583  24.706  16.839  1.00  0.00    -0.183 OA
BRANCH  21  24
HETATM   24  N7  UNL     1      10.523  22.627  18.392  1.00  0.00    -0.311 N
ATOM     25  H72 UNL     1      11.537  22.526  18.427  1.00  0.00     0.170 HD
ATOM     26  H71 UNL     1       9.867  21.883  18.628  1.00  0.00     0.170 HD
ENDBRANCH  21  24
ENDBRANCH  19  21
ENDBRANCH  16  17
TORSDOF 3
ENDMDL