MODEL 3
REMARK VINA RESULT: -6.338107501      2.091      2.604
REMARK  6 active torsions:
REMARK  status: ('A' for Active; 'I' for Inactive)
REMARK    1  A    between atoms: N1_1  and  N2_4
REMARK    2  A    between atoms: N2_4  and  C1_6
REMARK    3  A    between atoms: C1_6  and  N3_8
REMARK    4  A    between atoms: N3_8  and  N4_10
REMARK       I    between atoms: N4_10  and  C2_12
REMARK    5  A    between atoms: C2_12  and  C3_14
REMARK    6  A    between atoms: C3_14  and  N5_15
ROOT
HETATM    1  N4  UNL     1       3.262  17.298  25.581  1.00  0.00    -0.263 N
ATOM      2  H4  UNL     1       3.729  16.538  25.087  1.00  0.00     0.190 HD
HETATM    3  C2  UNL     1       2.692  18.433  24.873  1.00  0.00     0.276 C
HETATM    4  O1  UNL     1       2.138  19.346  25.497  1.00  0.00    -0.265 OA
ENDROOT
BRANCH   1   5
HETATM    5  N3  UNL     1       3.139  17.304  26.959  1.00  0.00    -0.272 N
ATOM      6  H3  UNL     1       3.946  17.528  27.541  1.00  0.00     0.189 HD
BRANCH   5   7
HETATM    7  C1  UNL     1       1.895  16.998  27.561  1.00  0.00     0.205 C
HETATM    8  S1  UNL     1       1.169  15.594  27.228  1.00  0.00    -0.038 SA
BRANCH   7   9
HETATM    9  N2  UNL     1       1.324  17.942  28.446  1.00  0.00    -0.282 N
ATOM     10  H2  UNL     1       0.579  17.671  29.087  1.00  0.00     0.189 HD
BRANCH   9  11
HETATM   11  N1  UNL     1       1.808  19.259  28.420  1.00  0.00    -0.343 N
ATOM     12  H12 UNL     1       1.230  20.019  28.779  1.00  0.00     0.176 HD
ATOM     13  H11 UNL     1       2.739  19.426  28.038  1.00  0.00     0.176 HD
ENDBRANCH   9  11
ENDBRANCH   7   9
ENDBRANCH   5   7
ENDBRANCH   1   5
BRANCH   3  14
HETATM   14  C3  UNL     1       2.787  18.476  23.402  1.00  0.00     0.181 C
BRANCH  14  15
HETATM   15  N5  UNL     1       4.028  18.975  22.961  1.00  0.00    -0.300 N
HETATM   16  C4  UNL     1       4.454  18.511  21.704  1.00  0.00     0.157 C
HETATM   17  C5  UNL     1       5.553  19.386  21.093  1.00  0.00     0.131 C
HETATM   18  S2  UNL     1       6.976  19.010  22.138  1.00  0.00     0.033 S
HETATM   19  O2  UNL     1       7.827  17.704  21.463  1.00  0.00    -0.257 OA
HETATM   20  C6  UNL     1       6.221  18.349  23.635  1.00  0.00     0.243 C
HETATM   21  N6  UNL     1       5.006  19.061  23.939  1.00  0.00    -0.127 NA
ENDBRANCH  14  15
ENDBRANCH   3  14
TORSDOF 6
ENDMDL