MODEL 5
REMARK VINA RESULT: -6.909611406      2.227      3.134
REMARK  4 active torsions:
REMARK  status: ('A' for Active; 'I' for Inactive)
REMARK    1  A    between atoms: C4_5  and  N2_6
REMARK       I    between atoms: N2_6  and  C5_8
REMARK    2  A    between atoms: C5_8  and  C6_10
REMARK       I    between atoms: C6_10  and  N3_12
REMARK    3  A    between atoms: N3_12  and  N4_14
REMARK       I    between atoms: N4_14  and  C7_16
REMARK       I    between atoms: C7_16  and  N6_20
REMARK    4  A    between atoms: N6_20  and  N7_22
ROOT
HETATM    1  C6  UNL     1       4.561  19.739  21.658  1.00  0.00     0.328 C
HETATM    2  O2  UNL     1       4.877  18.868  20.815  1.00  0.00    -0.261 OA
HETATM    3  N3  UNL     1       4.179  21.045  21.294  1.00  0.00    -0.247 N
ATOM      4  H3  UNL     1       3.930  21.714  22.022  1.00  0.00     0.191 HD
ENDROOT
BRANCH   1   5
HETATM    5  C5  UNL     1       4.589  19.376  23.068  1.00  0.00     0.311 C
HETATM    6  N2  UNL     1       3.414  19.163  23.832  1.00  0.00    -0.348 N
ATOM      7  H2  UNL     1       2.500  19.264  23.391  1.00  0.00     0.163 HD
HETATM    8  O1  UNL     1       5.731  19.245  23.637  1.00  0.00    -0.262 OA
BRANCH   6   9
HETATM    9  C4  UNL     1       3.499  18.809  25.204  1.00  0.00     0.088 C
HETATM   10  C3  UNL     1       2.434  19.524  26.048  1.00  0.00     0.055 C
HETATM   11  C2  UNL     1       2.738  19.137  27.482  1.00  0.00     0.274 C
HETATM   12  N1  UNL     1       2.424  17.735  27.682  1.00  0.00     0.084 N
HETATM   13  C1  UNL     1       1.250  17.675  28.529  1.00  0.00     0.309 C
HETATM   14  C9  UNL     1       2.204  17.044  26.431  1.00  0.00     0.274 C
HETATM   15  C8  UNL     1       3.352  17.338  25.492  1.00  0.00     0.055 C
ENDBRANCH   6   9
ENDBRANCH   1   5
BRANCH   3  16
HETATM   16  N4  UNL     1       4.134  21.440  19.956  1.00  0.00    -0.128 N
HETATM   17  C7  UNL     1       5.292  21.941  19.312  1.00  0.00     0.704 C
HETATM   18  N5  UNL     1       6.213  21.166  18.802  1.00  0.00    -0.232 N
HETATM   19  N6  UNL     1       5.481  23.341  19.207  1.00  0.00    -0.138 N
ATOM     20  H52 UNL     1       6.077  20.158  18.877  1.00  0.00     0.174 HD
ATOM     21  H51 UNL     1       7.047  21.526  18.338  1.00  0.00     0.174 HD
ATOM     22  H6  UNL     1       6.301  23.758  19.647  1.00  0.00     0.205 HD
ATOM     23  H4  UNL     1       3.258  21.369  19.437  1.00  0.00     0.205 HD
BRANCH  19  24
HETATM   24  N7  UNL     1       4.585  24.179  18.524  1.00  0.00    -0.331 N
ATOM     25  H72 UNL     1       3.629  23.847  18.399  1.00  0.00     0.177 HD
ATOM     26  H71 UNL     1       4.855  25.092  18.155  1.00  0.00     0.177 HD
ENDBRANCH  19  24
ENDBRANCH   3  16
TORSDOF 4
ENDMDL