MODEL 5
REMARK VINA RESULT: -5.488918307      1.297      2.265
REMARK  14 active torsions:
REMARK  status: ('A' for Active; 'I' for Inactive)
REMARK    1  A    between atoms: C2_2  and  C4_4
REMARK    2  A    between atoms: C5_5  and  C6_6
REMARK    3  A    between atoms: C6_6  and  O1_8
REMARK    4  A    between atoms: C6_6  and  C8_10
REMARK    5  A    between atoms: C9_11  and  O2_12
REMARK    6  A    between atoms: C10_15  and  C11_16
REMARK    7  A    between atoms: C13_18  and  O4_19
REMARK    8  A    between atoms: C15_22  and  O6_23
REMARK    9  A    between atoms: O6_23  and  C16_24
REMARK   10  A    between atoms: C16_24  and  C17_26
REMARK   11  A    between atoms: C21_31  and  C22_32
REMARK   12  A    between atoms: C22_32  and  C24_34
REMARK   13  A    between atoms: C24_34  and  O9_35
REMARK   14  A    between atoms: C26_37  and  O10_38
ROOT
HETATM    1  C11 UNL     1      48.625  41.856  61.526  1.00  0.00     0.067 C
HETATM    2  C12 UNL     1      49.512  41.648  60.372  1.00  0.00     0.028 C
HETATM    3  C13 UNL     1      49.671  42.401  62.590  1.00  0.00     0.277 C
HETATM    4  O5  UNL     1      50.255  41.221  63.059  1.00  0.00    -0.329 OA
HETATM    5  C15 UNL     1      49.434  40.147  62.791  1.00  0.00     0.278 C
HETATM    6  C21 UNL     1      48.090  40.785  62.347  1.00  0.00     0.067 C
ENDROOT
BRANCH   1   7
HETATM    7  C10 UNL     1      47.738  43.060  61.370  1.00  0.00     0.103 A
HETATM    8  O3  UNL     1      47.190  43.374  60.213  1.00  0.00    -0.288 OA
HETATM    9  C9  UNL     1      46.480  44.472  60.328  1.00  0.00     0.196 A
HETATM   10  C8  UNL     1      46.563  44.904  61.624  1.00  0.00     0.082 A
HETATM   11  C26 UNL     1      47.363  44.006  62.292  1.00  0.00     0.111 A
BRANCH   9  12
HETATM   12  O2  UNL     1      45.794  45.027  59.249  1.00  0.00    -0.340 OA
ATOM     13  H2  UNL     1      45.915  44.886  58.317  1.00  0.00     0.220 HD
ENDBRANCH   9  12
BRANCH  10  14
HETATM   14  C6  UNL     1      45.902  46.118  62.174  1.00  0.00     0.152 C
HETATM   15  C7  UNL     1      46.330  47.376  61.454  1.00  0.00     0.066 C
BRANCH  14  16
HETATM   16  C5  UNL     1      44.452  45.943  61.956  1.00  0.00    -0.058 C
HETATM   17  C4  UNL     1      43.264  45.807  61.795  1.00  0.00    -0.069 C
BRANCH  17  18
HETATM   18  C2  UNL     1      41.845  45.664  61.609  1.00  0.00    -0.018 C
HETATM   19  C1  UNL     1      41.188  44.839  62.408  1.00  0.00     0.028 C
HETATM   20  C3  UNL     1      41.148  46.430  60.544  1.00  0.00     0.057 C
ENDBRANCH  17  18
ENDBRANCH  14  16
BRANCH  14  21
HETATM   21  O1  UNL     1      46.137  46.250  63.527  1.00  0.00    -0.373 OA
ATOM     22  H1  UNL     1      45.614  46.969  63.861  1.00  0.00     0.212 HD
ENDBRANCH  14  21
ENDBRANCH  10  14
BRANCH  11  23
HETATM   23  O10 UNL     1      47.689  44.068  63.609  1.00  0.00    -0.357 OA
ATOM     24  H10 UNL     1      47.914  43.326  64.158  1.00  0.00     0.217 HD
ENDBRANCH  11  23
ENDBRANCH   1   7
BRANCH   3  25
HETATM   25  O4  UNL     1      50.592  43.129  61.900  1.00  0.00    -0.365 OA
HETATM   26  C14 UNL     1      51.251  44.156  62.453  1.00  0.00     0.204 C
ENDBRANCH   3  25
BRANCH   6  27
HETATM   27  C22 UNL     1      47.223  39.708  61.892  1.00  0.00     0.015 C
HETATM   28  C23 UNL     1      46.116  40.085  60.907  1.00  0.00     0.012 C
BRANCH  27  29
HETATM   29  C24 UNL     1      46.343  39.278  63.100  1.00  0.00     0.171 C
BRANCH  29  30
HETATM   30  O9  UNL     1      46.504  38.061  63.596  1.00  0.00    -0.396 OA
HETATM   31  C25 UNL     1      45.310  37.355  63.475  1.00  0.00     0.201 C
ENDBRANCH  29  30
ENDBRANCH  27  29
ENDBRANCH   6  27
BRANCH   5  32
HETATM   32  O6  UNL     1      49.935  39.481  61.654  1.00  0.00    -0.285 OA
BRANCH  32  33
HETATM   33  C16 UNL     1      50.858  38.486  61.606  1.00  0.00     0.297 C
HETATM   34  O7  UNL     1      50.487  37.305  61.861  1.00  0.00    -0.259 OA
BRANCH  33  35
HETATM   35  C17 UNL     1      52.275  38.703  61.273  1.00  0.00     0.063 A
HETATM   36  C18 UNL     1      52.976  39.886  61.302  1.00  0.00     0.044 A
HETATM   37  C19 UNL     1      54.277  39.618  60.910  1.00  0.00     0.142 A
HETATM   38  O8  UNL     1      54.346  38.329  60.660  1.00  0.00    -0.334 OA
HETATM   39  C20 UNL     1      53.184  37.755  60.863  1.00  0.00     0.159 A
ENDBRANCH  33  35
ENDBRANCH  32  33
ENDBRANCH   5  32
TORSDOF 14
ENDMDL