MODEL 3
REMARK VINA RESULT: -5.825965467      1.832      3.709
REMARK  12 active torsions:
REMARK  status: ('A' for Active; 'I' for Inactive)
REMARK    1  A    between atoms: C2_2  and  O1_3
REMARK    2  A    between atoms: C2_2  and  C7_8
REMARK    3  A    between atoms: O1_3  and  C3_4
REMARK    4  A    between atoms: C7_8  and  C8_10
REMARK    5  A    between atoms: C7_8  and  C23_34
REMARK    6  A    between atoms: C8_10  and  O2_11
REMARK    7  A    between atoms: C8_10  and  C10_13
REMARK    8  A    between atoms: C10_13  and  O4_15
REMARK    9  A    between atoms: O4_15  and  C11_16
REMARK   10  A    between atoms: C17_23  and  O6_24
REMARK   11  A    between atoms: C20_28  and  O7_29
REMARK   12  A    between atoms: C23_34  and  O9_37
ROOT
HETATM    1  C10 UNL     1      46.987  45.219  73.721  1.00  0.00     0.295 C
HETATM    2  O3  UNL     1      46.183  44.261  73.391  1.00  0.00    -0.262 OA
ENDROOT
BRANCH   1   3
HETATM    3  C8  UNL     1      47.021  45.700  75.116  1.00  0.00     0.249 C
BRANCH   3   4
HETATM    4  C7  UNL     1      48.045  44.988  75.989  1.00  0.00     0.131 C
HETATM    5  S1  UNL     1      48.254  43.308  75.419  1.00  0.00    -0.073 SA
BRANCH   4   6
HETATM    6  C2  UNL     1      49.357  45.697  75.902  1.00  0.00     0.064 C
HETATM    7  C1  UNL     1      49.747  46.729  76.460  1.00  0.00     0.048 C
BRANCH   6   8
HETATM    8  O1  UNL     1      50.312  45.072  75.034  1.00  0.00    -0.345 OA
BRANCH   8   9
HETATM    9  C3  UNL     1      51.606  44.723  75.478  1.00  0.00     0.056 C
HETATM   10  C4  UNL     1      51.707  44.436  76.942  1.00  0.00     0.045 C
HETATM   11  C5  UNL     1      52.614  45.830  75.197  1.00  0.00     0.045 C
HETATM   12  C6  UNL     1      52.061  43.519  74.689  1.00  0.00     0.045 C
ENDBRANCH   8   9
ENDBRANCH   6   8
ENDBRANCH   4   6
BRANCH   4  13
HETATM   13  C23 UNL     1      47.559  44.998  77.423  1.00  0.00     0.077 C
HETATM   14  C24 UNL     1      48.400  44.163  78.353  1.00  0.00     0.047 C
HETATM   15  C25 UNL     1      46.112  44.422  77.446  1.00  0.00     0.047 C
BRANCH  13  16
HETATM   16  O9  UNL     1      47.430  46.266  77.885  1.00  0.00    -0.388 OA
ATOM     17  H9  UNL     1      46.911  46.289  78.680  1.00  0.00     0.210 HD
ENDBRANCH  13  16
ENDBRANCH   4  13
ENDBRANCH   3   4
BRANCH   3  18
HETATM   18  O2  UNL     1      47.442  47.062  74.991  1.00  0.00    -0.379 OA
HETATM   19  C9  UNL     1      46.306  47.830  74.889  1.00  0.00     0.202 C
ENDBRANCH   3  18
ENDBRANCH   1   3
BRANCH   1  20
HETATM   20  O4  UNL     1      47.741  45.664  72.658  1.00  0.00    -0.281 OA
BRANCH  20  21
HETATM   21  C11 UNL     1      48.806  44.996  72.100  1.00  0.00     0.071 C
HETATM   22  C12 UNL     1      48.686  43.563  71.699  1.00  0.00     0.078 C
HETATM   23  C13 UNL     1      49.950  45.604  71.911  1.00  0.00     0.095 A
HETATM   24  C14 UNL     1      50.280  47.011  72.240  1.00  0.00     0.200 A
HETATM   25  C22 UNL     1      51.136  44.992  71.329  1.00  0.00     0.202 A
HETATM   26  O5  UNL     1      49.492  47.815  72.751  1.00  0.00    -0.286 OA
HETATM   27  C15 UNL     1      51.673  47.169  71.829  1.00  0.00     0.035 A
HETATM   28  C16 UNL     1      52.467  48.317  71.927  1.00  0.00     0.053 A
HETATM   29  C21 UNL     1      52.172  46.006  71.301  1.00  0.00     0.063 A
HETATM   30  C17 UNL     1      53.766  48.269  71.485  1.00  0.00     0.075 A
HETATM   31  C18 UNL     1      54.256  47.085  70.955  1.00  0.00     0.005 A
HETATM   32  C19 UNL     1      55.662  46.974  70.463  1.00  0.00     0.054 C
HETATM   33  C20 UNL     1      53.482  45.927  70.846  1.00  0.00     0.089 A
HETATM   34  O8  UNL     1      51.234  43.789  70.923  1.00  0.00    -0.286 OA
BRANCH  30  35
HETATM   35  O6  UNL     1      54.642  49.334  71.530  1.00  0.00    -0.360 OA
ATOM     36  H6  UNL     1      55.142  49.645  70.785  1.00  0.00     0.217 HD
ENDBRANCH  30  35
BRANCH  33  37
HETATM   37  O7  UNL     1      54.006  44.772  70.314  1.00  0.00    -0.359 OA
ATOM     38  H7  UNL     1      53.455  44.016  70.149  1.00  0.00     0.217 HD
ENDBRANCH  33  37
ENDBRANCH  20  21
ENDBRANCH   1  20
TORSDOF 12
ENDMDL