MODEL 5
REMARK VINA RESULT: -4.793067696     11.453     13.232
REMARK  11 active torsions:
REMARK  status: ('A' for Active; 'I' for Inactive)
REMARK    1  A    between atoms: O1_2  and  C2_3
REMARK    2  A    between atoms: C3_4  and  C4_5
REMARK    3  A    between atoms: C8_9  and  C9_10
REMARK    4  A    between atoms: C14_17  and  O2_18
REMARK    5  A    between atoms: O2_18  and  C15_19
REMARK    6  A    between atoms: C16_21  and  C17_22
REMARK    7  A    between atoms: C17_22  and  O4_23
REMARK    8  A    between atoms: C18_25  and  O5_26
REMARK    9  A    between atoms: C19_28  and  O6_29
REMARK   10  A    between atoms: C20_31  and  O7_32
REMARK   11  A    between atoms: C21_34  and  O8_35
ROOT
HETATM    1  C9  UNL     1      49.175  42.327  75.010  1.00  0.00     0.053 C
HETATM    2  C10 UNL     1      48.324  41.274  74.320  1.00  0.00     0.012 C
HETATM    3  C11 UNL     1      47.361  40.574  75.232  1.00  0.00     0.003 C
HETATM    4  C12 UNL     1      47.740  40.858  76.643  1.00  0.00     0.036 C
HETATM    5  C13 UNL     1      47.654  42.337  76.859  1.00  0.00     0.103 A
HETATM    6  S1  UNL     1      47.097  43.006  78.412  1.00  0.00    -0.071 SA
HETATM    7  S2  UNL     1      48.831  42.759  78.448  1.00  0.00    -0.071 SA
HETATM    8  C14 UNL     1      48.227  43.156  75.738  1.00  0.00     0.163 C
ENDROOT
BRANCH   8   9
HETATM    9  O2  UNL     1      48.570  44.344  76.266  1.00  0.00    -0.350 OA
BRANCH   9  10
HETATM   10  C15 UNL     1      48.289  45.421  75.397  1.00  0.00     0.292 C
HETATM   11  O3  UNL     1      49.424  46.267  75.457  1.00  0.00    -0.348 OA
HETATM   12  C16 UNL     1      49.468  47.205  74.466  1.00  0.00     0.179 C
HETATM   13  C18 UNL     1      48.081  47.675  74.101  1.00  0.00     0.180 C
HETATM   14  C19 UNL     1      47.188  47.642  75.343  1.00  0.00     0.183 C
HETATM   15  C20 UNL     1      47.143  46.235  75.911  1.00  0.00     0.204 C
BRANCH  12  16
HETATM   16  C17 UNL     1      50.293  46.805  73.285  1.00  0.00     0.198 C
BRANCH  16  17
HETATM   17  O4  UNL     1      49.762  47.134  72.062  1.00  0.00    -0.398 OA
ATOM     18  H4  UNL     1      50.055  47.963  71.703  1.00  0.00     0.209 HD
ENDBRANCH  16  17
ENDBRANCH  12  16
BRANCH  13  19
HETATM   19  O5  UNL     1      48.085  49.014  73.671  1.00  0.00    -0.390 OA
ATOM     20  H5  UNL     1      48.670  49.143  72.933  1.00  0.00     0.210 HD
ENDBRANCH  13  19
BRANCH  14  21
HETATM   21  O6  UNL     1      45.915  48.010  74.922  1.00  0.00    -0.390 OA
ATOM     22  H6  UNL     1      45.559  48.572  75.601  1.00  0.00     0.210 HD
ENDBRANCH  14  21
BRANCH  15  23
HETATM   23  O7  UNL     1      47.280  46.372  77.295  1.00  0.00    -0.388 OA
ATOM     24  H7  UNL     1      47.332  45.506  77.682  1.00  0.00     0.210 HD
ENDBRANCH  15  23
ENDBRANCH   9  10
ENDBRANCH   8   9
BRANCH   1  25
HETATM   25  C8  UNL     1      50.118  42.813  74.057  1.00  0.00    -0.017 A
HETATM   26  C7  UNL     1      51.452  42.917  74.412  1.00  0.00     0.020 A
HETATM   27  C3  UNL     1      52.443  43.363  73.533  1.00  0.00    -0.020 A
HETATM   28  C2  UNL     1      52.130  43.721  72.265  1.00  0.00     0.083 A
HETATM   29  C23 UNL     1      50.807  43.627  71.887  1.00  0.00     0.006 A
HETATM   30  C21 UNL     1      49.843  43.188  72.757  1.00  0.00     0.083 A
HETATM   31  C24 UNL     1      50.433  44.011  70.508  1.00  0.00     0.054 C
BRANCH  27  32
HETATM   32  C4  UNL     1      53.873  43.467  73.937  1.00  0.00     0.013 C
HETATM   33  C5  UNL     1      54.101  44.627  74.892  1.00  0.00     0.015 C
HETATM   34  C6  UNL     1      54.347  42.221  74.640  1.00  0.00     0.015 C
ENDBRANCH  27  32
BRANCH  28  35
HETATM   35  O1  UNL     1      53.096  44.168  71.373  1.00  0.00    -0.355 OA
HETATM   36  C1  UNL     1      53.340  45.565  71.288  1.00  0.00     0.210 C
ENDBRANCH  28  35
BRANCH  30  37
HETATM   37  O8  UNL     1      48.550  43.106  72.368  1.00  0.00    -0.355 OA
HETATM   38  C22 UNL     1      47.689  44.250  72.244  1.00  0.00     0.210 C
ENDBRANCH  30  37
ENDBRANCH   1  25
TORSDOF 11
ENDMDL