MODEL 4
REMARK VINA RESULT: -6.218878306      2.753      4.254
REMARK  13 active torsions:
REMARK  status: ('A' for Active; 'I' for Inactive)
REMARK    1  A    between atoms: C2_2  and  C4_4
REMARK    2  A    between atoms: C4_4  and  C5_5
REMARK    3  A    between atoms: C5_5  and  C6_6
REMARK    4  A    between atoms: C6_6  and  C7_7
REMARK    5  A    between atoms: C7_7  and  O2_9
REMARK    6  A    between atoms: O2_9  and  C8_10
REMARK    7  A    between atoms: C12_14  and  O3_16
REMARK    8  A    between atoms: C15_20  and  C16_21
REMARK    9  A    between atoms: C16_21  and  O5_23
REMARK   10  A    between atoms: C16_21  and  O6_25
REMARK   11  A    between atoms: O6_25  and  C18_26
REMARK   12  A    between atoms: C18_26  and  O7_27
REMARK   13  A    between atoms: C18_26  and  C19_29
ROOT
HETATM    1  C8  UNL     1      51.036  47.349  73.647  1.00  0.00     0.295 C
HETATM    2  C9  UNL     1      51.806  46.550  74.628  1.00  0.00     0.030 C
HETATM    3  C10 UNL     1      52.336  45.409  74.309  1.00  0.00    -0.014 C
HETATM    4  C11 UNL     1      52.192  44.859  72.955  1.00  0.00     0.098 A
HETATM    5  C12 UNL     1      51.258  43.711  72.799  1.00  0.00     0.128 A
HETATM    6  C13 UNL     1      51.906  42.462  72.240  1.00  0.00     0.055 C
HETATM    7  C14 UNL     1      50.504  44.474  71.781  1.00  0.00     0.202 A
HETATM    8  O4  UNL     1      49.559  44.245  71.028  1.00  0.00    -0.291 OA
HETATM    9  C15 UNL     1      51.368  45.675  72.036  1.00  0.00     0.193 A
HETATM   10  O8  UNL     1      50.605  46.662  72.566  1.00  0.00    -0.332 OA
ENDROOT
BRANCH   9  11
HETATM   11  C16 UNL     1      52.124  46.039  70.757  1.00  0.00     0.201 C
HETATM   12  C17 UNL     1      53.316  46.857  71.080  1.00  0.00     0.083 C
BRANCH  11  13
HETATM   13  O5  UNL     1      51.224  46.891  70.063  1.00  0.00    -0.363 OA
ATOM     14  H5  UNL     1      51.790  47.538  69.660  1.00  0.00     0.213 HD
ENDBRANCH  11  13
BRANCH  11  15
HETATM   15  O6  UNL     1      52.408  44.928  70.002  1.00  0.00    -0.317 OA
BRANCH  15  16
HETATM   16  C18 UNL     1      53.738  44.813  69.719  1.00  0.00     0.314 C
BRANCH  16  17
HETATM   17  O7  UNL     1      53.842  44.846  68.247  1.00  0.00    -0.366 OA
ATOM     18  H7  UNL     1      53.074  44.389  67.923  1.00  0.00     0.213 HD
ENDBRANCH  16  17
BRANCH  16  19
HETATM   19  C19 UNL     1      54.411  43.575  70.102  1.00  0.00     0.088 A
HETATM   20  N1  UNL     1      54.222  42.393  69.437  1.00  0.00    -0.344 N
HETATM   21  C20 UNL     1      54.966  41.432  69.970  1.00  0.00     0.077 A
ATOM     22  H1  UNL     1      53.595  42.268  68.641  1.00  0.00     0.167 HD
HETATM   23  C21 UNL     1      55.032  40.006  69.517  1.00  0.00     0.089 C
HETATM   24  N2  UNL     1      55.635  41.967  70.968  1.00  0.00    -0.348 N
HETATM   25  C22 UNL     1      55.321  43.283  71.082  1.00  0.00     0.034 A
ATOM     26  H2  UNL     1      56.291  41.467  71.568  1.00  0.00     0.167 HD
HETATM   27  C23 UNL     1      55.867  44.196  72.092  1.00  0.00     0.070 C
ENDBRANCH  16  19
ENDBRANCH  15  16
ENDBRANCH  11  15
ENDBRANCH   9  11
BRANCH   5  28
HETATM   28  O3  UNL     1      50.546  43.471  73.975  1.00  0.00    -0.382 OA
ATOM     29  H3  UNL     1      50.505  44.249  74.519  1.00  0.00     0.211 HD
ENDBRANCH   5  28
BRANCH   1  30
HETATM   30  O2  UNL     1      49.922  47.855  74.375  1.00  0.00    -0.285 OA
BRANCH  30  31
HETATM   31  C7  UNL     1      48.608  47.663  73.969  1.00  0.00     0.270 C
HETATM   32  O1  UNL     1      48.204  48.408  73.042  1.00  0.00    -0.264 OA
BRANCH  31  33
HETATM   33  C6  UNL     1      47.700  46.673  74.550  1.00  0.00     0.051 A
HETATM   34  C24 UNL     1      47.868  46.403  76.023  1.00  0.00     0.020 A
HETATM   35  C25 UNL     1      46.549  47.033  76.316  1.00  0.00     0.002 A
HETATM   36  C26 UNL     1      46.345  47.272  74.849  1.00  0.00     0.020 A
BRANCH  33  37
HETATM   37  C5  UNL     1      47.568  45.375  73.785  1.00  0.00     0.047 C
BRANCH  37  38
HETATM   38  C4  UNL     1      46.346  44.640  74.137  1.00  0.00    -0.023 C
BRANCH  38  39
HETATM   39  C2  UNL     1      46.310  43.530  74.849  1.00  0.00    -0.091 C
HETATM   40  C1  UNL     1      47.251  42.403  74.556  1.00  0.00     0.042 C
HETATM   41  C3  UNL     1      45.346  43.339  75.967  1.00  0.00     0.042 C
ENDBRANCH  38  39
ENDBRANCH  37  38
ENDBRANCH  33  37
ENDBRANCH  31  33
ENDBRANCH  30  31
ENDBRANCH   1  30
TORSDOF 13
ENDMDL