MODEL 3
REMARK VINA RESULT: -6.380659587      1.983      2.342
REMARK  11 active torsions:
REMARK  status: ('A' for Active; 'I' for Inactive)
REMARK    1  A    between atoms: O1_2  and  C2_3
REMARK    2  A    between atoms: C3_4  and  N1_5
REMARK    3  A    between atoms: C7_12  and  C8_13
REMARK    4  A    between atoms: C8_13  and  O2_14
REMARK    5  A    between atoms: O2_14  and  C9_15
REMARK    6  A    between atoms: C12_19  and  N2_20
REMARK       I    between atoms: N2_20  and  C13_22
REMARK    7  A    between atoms: C13_22  and  C14_24
REMARK    8  A    between atoms: C15_25  and  O5_26
REMARK    9  A    between atoms: C17_30  and  O7_31
REMARK   10  A    between atoms: C18_33  and  N3_34
REMARK   11  A    between atoms: N3_34  and  C19_36
ROOT
HETATM    1  C9  UNL     1      49.408  41.908  61.871  1.00  0.00     0.177 C
HETATM    2  C10 UNL     1      50.409  40.872  62.250  1.00  0.00     0.151 C
HETATM    3  C11 UNL     1      51.227  40.531  61.010  1.00  0.00     0.042 C
HETATM    4  O3  UNL     1      49.782  39.777  62.782  1.00  0.00    -0.357 OA
HETATM    5  C12 UNL     1      48.417  40.023  62.820  1.00  0.00     0.249 C
HETATM    6  C18 UNL     1      48.144  41.059  61.749  1.00  0.00     0.163 C
ENDROOT
BRANCH   1   7
HETATM    7  O2  UNL     1      49.274  42.895  62.813  1.00  0.00    -0.381 OA
BRANCH   7   8
HETATM    8  C8  UNL     1      49.205  44.179  62.356  1.00  0.00     0.175 C
BRANCH   8   9
HETATM    9  C7  UNL     1      48.194  45.065  63.051  1.00  0.00     0.040 C
HETATM   10  C2  UNL     1      48.981  46.237  63.591  1.00  0.00     0.157 C
HETATM   11  C3  UNL     1      48.086  47.404  63.976  1.00  0.00     0.212 C
HETATM   12  C4  UNL     1      47.510  47.881  62.635  1.00  0.00     0.035 C
HETATM   13  C5  UNL     1      46.573  46.818  62.184  1.00  0.00     0.003 C
HETATM   14  C6  UNL     1      47.075  45.431  62.161  1.00  0.00     0.009 C
BRANCH  10  15
HETATM   15  O1  UNL     1      49.869  46.736  62.643  1.00  0.00    -0.388 OA
HETATM   16  C1  UNL     1      51.010  47.174  63.298  1.00  0.00     0.202 C
ENDBRANCH  10  15
BRANCH  11  17
HETATM   17  N1  UNL     1      47.073  46.940  64.871  1.00  0.00    -0.073 N
ATOM     18  H13 UNL     1      46.233  46.630  64.380  1.00  0.00     0.274 HD
ATOM     19  H12 UNL     1      47.319  46.052  65.307  1.00  0.00     0.274 HD
ATOM     20  H11 UNL     1      46.876  47.668  65.557  1.00  0.00     0.274 HD
ENDBRANCH  11  17
ENDBRANCH   8   9
ENDBRANCH   7   8
ENDBRANCH   1   7
BRANCH   6  21
HETATM   21  N3  UNL     1      46.952  41.815  61.984  1.00  0.00    -0.367 N
ATOM     22  H3  UNL     1      46.848  42.376  62.829  1.00  0.00     0.161 HD
BRANCH  21  23
HETATM   23  C19 UNL     1      46.008  41.770  61.094  1.00  0.00     0.113 A
HETATM   24  S1  UNL     1      45.504  40.529  60.046  1.00  0.00    -0.076 SA
HETATM   25  C20 UNL     1      44.203  41.080  59.110  1.00  0.00     0.066 A
HETATM   26  C21 UNL     1      43.864  42.374  59.407  1.00  0.00    -0.012 A
HETATM   27  C22 UNL     1      42.732  43.064  58.692  1.00  0.00     0.057 C
HETATM   28  S2  UNL     1      44.888  42.963  60.627  1.00  0.00    -0.070 SA
ENDBRANCH  21  23
ENDBRANCH   6  21
BRANCH   5  29
HETATM   29  N2  UNL     1      47.740  38.762  62.535  1.00  0.00    -0.328 N
HETATM   30  C13 UNL     1      46.469  38.450  63.075  1.00  0.00     0.261 C
HETATM   31  O4  UNL     1      45.958  39.352  63.829  1.00  0.00    -0.267 OA
ATOM     32  H2  UNL     1      48.198  38.083  61.926  1.00  0.00     0.165 HD
BRANCH  30  33
HETATM   33  C14 UNL     1      45.728  37.229  62.846  1.00  0.00     0.125 A
HETATM   34  C15 UNL     1      46.114  36.182  62.033  1.00  0.00     0.108 A
HETATM   35  C16 UNL     1      45.101  35.257  62.132  1.00  0.00     0.182 A
HETATM   36  O6  UNL     1      44.192  35.719  62.936  1.00  0.00    -0.297 OA
HETATM   37  C17 UNL     1      44.514  36.915  63.406  1.00  0.00     0.201 A
BRANCH  34  38
HETATM   38  O5  UNL     1      47.256  36.043  61.266  1.00  0.00    -0.358 OA
ATOM     39  H5  UNL     1      48.081  35.627  61.485  1.00  0.00     0.217 HD
ENDBRANCH  34  38
BRANCH  37  40
HETATM   40  O7  UNL     1      43.700  37.613  64.284  1.00  0.00    -0.340 OA
ATOM     41  H7  UNL     1      43.890  38.053  65.104  1.00  0.00     0.220 HD
ENDBRANCH  37  40
ENDBRANCH  30  33
ENDBRANCH   5  29
TORSDOF 11
ENDMDL