MODEL 3
REMARK VINA RESULT: -6.108844474     11.580     14.532
REMARK  12 active torsions:
REMARK  status: ('A' for Active; 'I' for Inactive)
REMARK    1  A    between atoms: O1_2  and  C2_3
REMARK    2  A    between atoms: C2_3  and  C3_5
REMARK    3  A    between atoms: C3_5  and  C4_6
REMARK    4  A    between atoms: C4_6  and  C5_7
REMARK    5  A    between atoms: C6_9  and  O4_10
REMARK    6  A    between atoms: C7_12  and  C8_13
REMARK    7  A    between atoms: C18_25  and  C19_26
REMARK    8  A    between atoms: C19_26  and  O7_27
REMARK    9  A    between atoms: O7_27  and  C20_28
REMARK   10  A    between atoms: C23_32  and  O9_33
REMARK   11  A    between atoms: C24_35  and  O10_36
REMARK   12  A    between atoms: C25_38  and  O11_39
ROOT
HETATM    1  C5  UNL     1      46.582  43.866  74.489  1.00  0.00     0.065 A
HETATM    2  O3  UNL     1      45.664  43.022  74.976  1.00  0.00    -0.291 OA
HETATM    3  C6  UNL     1      46.222  41.939  75.419  1.00  0.00     0.191 A
HETATM    4  C7  UNL     1      47.578  42.059  75.216  1.00  0.00     0.020 A
HETATM    5  C18 UNL     1      47.807  43.251  74.643  1.00  0.00     0.007 A
ENDROOT
BRANCH   5   6
HETATM    6  C19 UNL     1      49.043  43.984  74.161  1.00  0.00     0.213 C
BRANCH   6   7
HETATM    7  O7  UNL     1      49.045  44.078  72.742  1.00  0.00    -0.354 OA
BRANCH   7   8
HETATM    8  C20 UNL     1      50.176  44.808  72.365  1.00  0.00     0.291 C
HETATM    9  O8  UNL     1      50.899  45.422  73.273  1.00  0.00    -0.351 OA
HETATM   10  C21 UNL     1      51.431  46.658  72.972  1.00  0.00     0.152 C
HETATM   11  C22 UNL     1      52.762  46.721  73.702  1.00  0.00     0.042 C
HETATM   12  C23 UNL     1      51.695  46.982  71.556  1.00  0.00     0.178 C
HETATM   13  C24 UNL     1      50.883  46.246  70.552  1.00  0.00     0.183 C
HETATM   14  C25 UNL     1      49.617  45.801  71.283  1.00  0.00     0.204 C
BRANCH  12  15
HETATM   15  O9  UNL     1      51.440  48.360  71.352  1.00  0.00    -0.390 OA
ATOM     16  H9  UNL     1      51.155  48.487  70.455  1.00  0.00     0.210 HD
ENDBRANCH  12  15
BRANCH  13  17
HETATM   17  O10 UNL     1      51.567  45.134  70.113  1.00  0.00    -0.390 OA
ATOM     18  H10 UNL     1      50.979  44.553  69.643  1.00  0.00     0.210 HD
ENDBRANCH  13  17
BRANCH  14  19
HETATM   19  O11 UNL     1      48.941  46.848  71.825  1.00  0.00    -0.388 OA
ATOM     20  H11 UNL     1      49.401  47.674  71.732  1.00  0.00     0.210 HD
ENDBRANCH  14  19
ENDBRANCH   7   8
ENDBRANCH   6   7
ENDBRANCH   5   6
BRANCH   1  21
HETATM   21  C4  UNL     1      46.115  45.165  73.918  1.00  0.00     0.075 C
BRANCH  21  22
HETATM   22  C3  UNL     1      46.364  46.134  75.064  1.00  0.00     0.117 C
BRANCH  22  23
HETATM   23  C2  UNL     1      46.601  47.520  74.615  1.00  0.00     0.258 C
HETATM   24  O2  UNL     1      45.676  48.312  74.352  1.00  0.00    -0.265 OA
BRANCH  23  25
HETATM   25  O1  UNL     1      47.909  47.949  74.487  1.00  0.00    -0.326 OA
HETATM   26  C1  UNL     1      48.973  47.584  75.327  1.00  0.00     0.213 C
ENDBRANCH  23  25
ENDBRANCH  22  23
ENDBRANCH  21  22
ENDBRANCH   1  21
BRANCH   4  27
HETATM   27  C8  UNL     1      48.522  40.983  75.611  1.00  0.00     0.065 C
HETATM   28  C9  UNL     1      49.360  40.684  74.424  1.00  0.00     0.052 C
HETATM   29  C10 UNL     1      50.814  40.394  74.784  1.00  0.00     0.063 C
HETATM   30  C11 UNL     1      50.825  39.097  75.507  1.00  0.00     0.046 C
HETATM   31  C12 UNL     1      51.553  40.372  73.473  1.00  0.00     0.046 C
HETATM   32  O5  UNL     1      51.307  41.504  75.529  1.00  0.00    -0.319 OA
HETATM   33  C13 UNL     1      50.622  41.740  76.738  1.00  0.00     0.193 A
HETATM   34  O6  UNL     1      51.033  42.204  77.911  1.00  0.00    -0.299 OA
HETATM   35  C17 UNL     1      49.272  41.466  76.818  1.00  0.00     0.017 A
HETATM   36  C14 UNL     1      50.041  42.250  78.748  1.00  0.00     0.152 A
HETATM   37  C15 UNL     1      48.902  41.784  78.074  1.00  0.00    -0.028 A
HETATM   38  C16 UNL     1      47.605  41.700  78.806  1.00  0.00     0.050 C
ENDBRANCH   4  27
BRANCH   3  39
HETATM   39  O4  UNL     1      45.488  40.884  75.984  1.00  0.00    -0.340 OA
ATOM     40  H4  UNL     1      44.629  40.630  75.668  1.00  0.00     0.220 HD
ENDBRANCH   3  39
TORSDOF 12
ENDMDL