MODEL 2
REMARK VINA RESULT: -7.029724336      3.012      9.392
REMARK  9 active torsions:
REMARK  status: ('A' for Active; 'I' for Inactive)
REMARK    1  A    between atoms: C2_2  and  N1_3
REMARK    2  A    between atoms: N1_3  and  C3_6
REMARK    3  A    between atoms: C3_6  and  O1_7
REMARK    4  A    between atoms: C3_6  and  N2_9
REMARK    5  A    between atoms: N2_9  and  C4_11
REMARK    6  A    between atoms: N5_21  and  C10_22
REMARK    7  A    between atoms: N6_33  and  C21_34
REMARK    8  A    between atoms: C21_34  and  C22_35
REMARK    9  A    between atoms: C22_35  and  O2_36
ROOT
HETATM    1  C10 UNL     1      46.344  45.952  60.758  1.00  0.00     0.092 C
HETATM    2  C11 UNL     1      45.839  46.859  61.813  1.00  0.00     0.026 C
HETATM    3  C12 UNL     1      46.182  46.599  63.211  1.00  0.00     0.005 C
HETATM    4  C13 UNL     1      47.574  46.379  63.607  1.00  0.00     0.041 C
HETATM    5  C14 UNL     1      48.655  46.879  62.684  1.00  0.00     0.096 C
HETATM    6  C15 UNL     1      48.610  48.343  62.417  1.00  0.00     0.041 C
HETATM    7  C16 UNL     1      49.911  49.066  62.794  1.00  0.00     0.006 C
HETATM    8  C17 UNL     1      51.081  48.642  61.971  1.00  0.00     0.041 C
HETATM    9  C18 UNL     1      51.784  47.467  62.622  1.00  0.00     0.099 C
HETATM   10  C19 UNL     1      52.293  47.883  63.969  1.00  0.00     0.071 C
HETATM   11  C20 UNL     1      53.506  47.055  64.409  1.00  0.00     0.275 C
HETATM   12  N6  UNL     1      54.626  47.252  63.538  1.00  0.00     0.090 N
HETATM   13  C23 UNL     1      54.185  47.755  62.251  1.00  0.00     0.275 C
HETATM   14  C24 UNL     1      52.954  46.994  61.810  1.00  0.00     0.071 C
HETATM   15  O3  UNL     1      50.860  46.432  62.671  1.00  0.00    -0.229 OA
HETATM   16  O4  UNL     1      49.847  46.670  63.435  1.00  0.00    -0.229 OA
HETATM   17  C25 UNL     1      48.775  45.998  61.489  1.00  0.00     0.043 C
HETATM   18  C26 UNL     1      47.787  46.168  60.413  1.00  0.00     0.029 C
ENDROOT
BRANCH   1  19
HETATM   19  N5  UNL     1      45.991  44.567  60.864  1.00  0.00    -0.323 N
HETATM   20  C6  UNL     1      46.656  43.611  61.519  1.00  0.00     0.136 A
HETATM   21  N3  UNL     1      47.791  43.565  62.258  1.00  0.00    -0.348 N
HETATM   22  C7  UNL     1      45.986  42.410  61.384  1.00  0.00     0.080 A
HETATM   23  C5  UNL     1      48.269  42.447  62.836  1.00  0.00     0.119 A
ATOM     24  H3  UNL     1      48.316  44.430  62.385  1.00  0.00     0.167 HD
HETATM   25  C4  UNL     1      47.625  41.238  62.718  1.00  0.00     0.049 A
HETATM   26  C8  UNL     1      46.465  41.245  61.974  1.00  0.00     0.064 A
HETATM   27  N4  UNL     1      44.921  42.709  60.632  1.00  0.00    -0.349 N
HETATM   28  C9  UNL     1      44.910  44.009  60.311  1.00  0.00     0.185 A
ATOM     29  H4  UNL     1      44.211  42.037  60.342  1.00  0.00     0.166 HD
BRANCH  25  30
HETATM   30  N2  UNL     1      48.127  40.055  63.325  1.00  0.00    -0.340 N
ATOM     31  H2  UNL     1      48.553  40.140  64.249  1.00  0.00     0.164 HD
BRANCH  30  32
HETATM   32  C3  UNL     1      48.079  38.749  62.733  1.00  0.00     0.426 C
BRANCH  32  33
HETATM   33  N1  UNL     1      47.138  37.902  63.476  1.00  0.00    -0.031 N
ATOM     34  H12 UNL     1      46.910  38.277  64.397  1.00  0.00     0.282 HD
ATOM     35  H11 UNL     1      47.556  37.026  63.787  1.00  0.00     0.282 HD
BRANCH  33  36
HETATM   36  C2  UNL     1      45.969  37.702  62.648  1.00  0.00     0.233 C
HETATM   37  C1  UNL     1      44.880  37.141  63.552  1.00  0.00     0.034 C
ENDBRANCH  33  36
ENDBRANCH  32  33
BRANCH  32  38
HETATM   38  O1  UNL     1      49.335  38.159  62.859  1.00  0.00    -0.354 OA
ATOM     39  H1  UNL     1      49.739  38.541  63.629  1.00  0.00     0.214 HD
ENDBRANCH  32  38
ENDBRANCH  30  32
ENDBRANCH  25  30
ENDBRANCH   1  19
BRANCH  12  40
HETATM   40  C21 UNL     1      55.664  48.054  64.113  1.00  0.00     0.298 C
BRANCH  40  41
HETATM   41  C22 UNL     1      55.779  49.357  63.384  1.00  0.00     0.194 C
BRANCH  41  42
HETATM   42  O2  UNL     1      56.132  50.380  64.289  1.00  0.00    -0.399 OA
ATOM     43  H2  UNL     1      56.334  50.003  65.137  1.00  0.00     0.209 HD
ENDBRANCH  41  42
ENDBRANCH  40  41
ENDBRANCH  12  40
TORSDOF 9
ENDMDL