MODEL 1
REMARK VINA RESULT: -6.065792354      0.000      0.000
REMARK  11 active torsions:
REMARK  status: ('A' for Active; 'I' for Inactive)
REMARK    1  A    between atoms: C2_2  and  O1_3
REMARK    2  A    between atoms: O1_3  and  C3_4
REMARK    3  A    between atoms: C3_4  and  C4_6
REMARK    4  A    between atoms: C4_6  and  C5_7
REMARK    5  A    between atoms: N1_9  and  N2_11
REMARK    6  A    between atoms: N2_11  and  C7_12
REMARK    7  A    between atoms: C8_15  and  N4_16
REMARK    8  A    between atoms: C10_21  and  N5_22
REMARK    9  A    between atoms: C15_27  and  C16_28
REMARK   10  A    between atoms: C18_32  and  C19_33
REMARK   11  A    between atoms: C21_36  and  O3_37
ROOT
HETATM    1  C7  UNL     1      48.078  40.527  62.421  1.00  0.00     0.283 A
HETATM    2  N3  UNL     1      49.119  40.255  61.555  1.00  0.00    -0.300 N
ATOM      3  H3  UNL     1      49.268  39.315  61.187  1.00  0.00     0.171 HD
HETATM    4  C8  UNL     1      49.918  41.260  61.217  1.00  0.00     0.122 A
HETATM    5  C9  UNL     1      49.726  42.559  61.713  1.00  0.00     0.080 A
HETATM    6  S1  UNL     1      50.508  44.058  61.523  1.00  0.00    -0.064 SA
HETATM    7  C10 UNL     1      49.512  45.012  62.539  1.00  0.00     0.109 A
HETATM    8  C21 UNL     1      48.591  44.124  62.999  1.00  0.00     0.128 A
HETATM    9  C22 UNL     1      48.701  42.846  62.571  1.00  0.00     0.093 A
HETATM   10  N7  UNL     1      47.911  41.774  62.883  1.00  0.00    -0.311 N
ATOM     11  H7  UNL     1      47.131  41.937  63.519  1.00  0.00     0.170 HD
ENDROOT
BRANCH   7  12
HETATM   12  N5  UNL     1      49.646  46.431  62.819  1.00  0.00    -0.362 N
HETATM   13  C11 UNL     1      50.939  46.978  63.034  1.00  0.00     0.124 C
HETATM   14  C12 UNL     1      51.032  48.450  63.238  1.00  0.00     0.020 C
HETATM   15  C13 UNL     1      49.908  49.153  62.515  1.00  0.00     0.004 C
HETATM   16  C14 UNL     1      48.631  48.629  63.173  1.00  0.00     0.032 C
HETATM   17  C15 UNL     1      48.455  47.203  62.863  1.00  0.00     0.142 C
BRANCH  17  18
HETATM   18  C16 UNL     1      47.679  47.104  61.565  1.00  0.00     0.074 A
HETATM   19  N6  UNL     1      48.116  47.201  60.331  1.00  0.00    -0.361 N
HETATM   20  C17 UNL     1      47.297  47.089  59.335  1.00  0.00     0.103 A
ATOM     21  H6  UNL     1      49.107  47.366  60.155  1.00  0.00     0.165 HD
HETATM   22  C18 UNL     1      45.974  46.866  59.620  1.00  0.00    -0.001 A
HETATM   23  S2  UNL     1      45.997  46.833  61.329  1.00  0.00    -0.078 SA
BRANCH  22  24
HETATM   24  C19 UNL     1      44.807  46.696  58.692  1.00  0.00     0.043 C
HETATM   25  C20 UNL     1      43.606  47.417  59.203  1.00  0.00     0.010 C
ENDBRANCH  22  24
ENDBRANCH  17  18
ENDBRANCH   7  12
BRANCH   8  26
HETATM   26  O3  UNL     1      47.568  44.564  63.895  1.00  0.00    -0.356 OA
ATOM     27  H3  UNL     1      46.843  43.986  64.102  1.00  0.00     0.218 HD
ENDBRANCH   8  26
BRANCH   4  28
HETATM   28  N4  UNL     1      50.926  41.125  60.413  1.00  0.00    -0.384 N
ATOM     29  H42 UNL     1      50.742  40.564  59.582  1.00  0.00     0.157 HD
ATOM     30  H41 UNL     1      51.840  41.544  60.588  1.00  0.00     0.157 HD
ENDBRANCH   4  28
BRANCH   1  31
HETATM   31  N2  UNL     1      47.306  39.628  62.769  1.00  0.00    -0.287 NA
BRANCH  31  32
HETATM   32  N1  UNL     1      46.530  38.719  63.121  1.00  0.00    -0.230 N
HETATM   33  C4  UNL     1      45.959  37.709  62.611  1.00  0.00     0.113 C
ATOM     34  H1  UNL     1      46.281  38.816  64.105  1.00  0.00     0.202 HD
BRANCH  33  35
HETATM   35  C3  UNL     1      45.089  36.874  63.418  1.00  0.00     0.308 C
HETATM   36  O2  UNL     1      45.518  35.987  64.200  1.00  0.00    -0.258 OA
BRANCH  35  37
HETATM   37  O1  UNL     1      43.693  37.007  63.374  1.00  0.00    -0.317 OA
BRANCH  37  38
HETATM   38  C2  UNL     1      42.885  36.124  62.633  1.00  0.00     0.175 C
HETATM   39  C1  UNL     1      41.917  36.942  61.813  1.00  0.00     0.034 C
ENDBRANCH  37  38
ENDBRANCH  35  37
ENDBRANCH  33  35
BRANCH  33  40
HETATM   40  C5  UNL     1      46.185  37.389  61.184  1.00  0.00     0.061 C
HETATM   41  C6  UNL     1      45.162  38.093  60.334  1.00  0.00     0.011 C
ENDBRANCH  33  40
ENDBRANCH  31  32
ENDBRANCH   1  31
TORSDOF 11
ENDMDL