MODEL 3
REMARK VINA RESULT: -5.797240063      3.922      6.706
REMARK  13 active torsions:
REMARK  status: ('A' for Active; 'I' for Inactive)
REMARK    1  A    between atoms: O1_2  and  C2_3
REMARK    2  A    between atoms: C4_5  and  C5_6
REMARK    3  A    between atoms: C5_6  and  N1_7
REMARK    4  A    between atoms: C6_9  and  N2_10
REMARK    5  A    between atoms: C6_9  and  S1_15
REMARK    6  A    between atoms: N2_10  and  N3_12
REMARK    7  A    between atoms: S1_15  and  S2_16
REMARK    8  A    between atoms: S2_16  and  C7_17
REMARK    9  A    between atoms: C7_17  and  N5_21
REMARK   10  A    between atoms: N5_21  and  C8_23
REMARK   11  A    between atoms: C17_32  and  O4_33
REMARK   12  A    between atoms: O4_33  and  C18_34
REMARK   13  A    between atoms: C18_34  and  C20_36
ROOT
HETATM    1  N1  UNL     1      51.095  40.402  62.756  1.00  0.00    -0.365 N
ATOM      2  H1  UNL     1      51.272  39.937  63.647  1.00  0.00     0.162 HD
HETATM    3  C6  UNL     1      49.893  40.703  62.527  1.00  0.00     0.171 C
ENDROOT
BRANCH   3   4
HETATM    4  N2  UNL     1      48.946  40.339  63.568  1.00  0.00    -0.219 N
ATOM      5  H2  UNL     1      49.192  40.500  64.545  1.00  0.00     0.195 HD
BRANCH   4   6
HETATM    6  N3  UNL     1      47.708  39.776  63.260  1.00  0.00    -0.037 N
HETATM    7  O2  UNL     1      46.644  40.354  63.559  1.00  0.00    -0.516 OA
HETATM    8  O3  UNL     1      47.689  38.562  62.614  1.00  0.00    -0.516 OA
ENDBRANCH   4   6
ENDBRANCH   3   4
BRANCH   3   9
HETATM    9  S1  UNL     1      49.215  41.496  61.105  1.00  0.00    -0.012 SA
BRANCH   9  10
HETATM   10  S2  UNL     1      49.176  43.592  61.195  1.00  0.00    -0.014 SA
BRANCH  10  11
HETATM   11  C7  UNL     1      48.390  44.151  62.693  1.00  0.00     0.145 C
HETATM   12  N4  UNL     1      47.452  43.429  63.191  1.00  0.00    -0.379 N
ATOM     13  H42 UNL     1      47.205  42.569  62.702  1.00  0.00     0.158 HD
ATOM     14  H41 UNL     1      47.003  43.749  64.049  1.00  0.00     0.158 HD
BRANCH  11  15
HETATM   15  N5  UNL     1      48.733  45.342  63.370  1.00  0.00    -0.365 N
ATOM     16  H5  UNL     1      49.572  45.393  63.948  1.00  0.00     0.162 HD
BRANCH  15  17
HETATM   17  C8  UNL     1      47.862  46.488  63.222  1.00  0.00     0.087 C
HETATM   18  C9  UNL     1      47.936  46.972  61.814  1.00  0.00     0.025 C
HETATM   19  C10 UNL     1      49.223  47.658  61.504  1.00  0.00     0.002 C
HETATM   20  C11 UNL     1      49.690  48.640  62.528  1.00  0.00     0.001 C
HETATM   21  C12 UNL     1      49.523  48.145  63.944  1.00  0.00     0.006 C
HETATM   22  C13 UNL     1      48.172  47.566  64.207  1.00  0.00     0.004 C
HETATM   23  C14 UNL     1      47.077  48.610  64.193  1.00  0.00     0.012 C
ENDBRANCH  15  17
ENDBRANCH  11  15
ENDBRANCH  10  11
ENDBRANCH   9  10
ENDBRANCH   3   9
BRANCH   1  24
HETATM   24  C5  UNL     1      52.238  40.623  61.939  1.00  0.00     0.160 C
BRANCH  24  25
HETATM   25  C4  UNL     1      52.711  42.038  62.090  1.00  0.00    -0.038 A
HETATM   26  C3  UNL     1      53.052  42.511  63.334  1.00  0.00     0.048 A
HETATM   27  C2  UNL     1      53.480  43.805  63.441  1.00  0.00     0.102 A
HETATM   28  C17 UNL     1      53.589  44.680  62.341  1.00  0.00     0.103 A
HETATM   29  C16 UNL     1      53.233  44.147  61.130  1.00  0.00     0.040 A
HETATM   30  C15 UNL     1      52.792  42.838  60.971  1.00  0.00     0.012 A
BRANCH  27  31
HETATM   31  O1  UNL     1      53.824  44.289  64.674  1.00  0.00    -0.353 OA
HETATM   32  C1  UNL     1      55.055  44.083  65.310  1.00  0.00     0.210 C
ENDBRANCH  27  31
BRANCH  28  33
HETATM   33  O4  UNL     1      54.032  45.970  62.553  1.00  0.00    -0.333 OA
BRANCH  33  34
HETATM   34  C18 UNL     1      53.183  47.052  62.706  1.00  0.00     0.225 C
HETATM   35  C19 UNL     1      53.522  47.884  63.944  1.00  0.00     0.052 C
BRANCH  34  36
HETATM   36  C20 UNL     1      53.317  47.969  61.506  1.00  0.00     0.203 C
HETATM   37  O5  UNL     1      52.631  47.770  60.472  1.00  0.00    -0.646 OA
HETATM   38  O6  UNL     1      54.211  49.019  61.594  1.00  0.00    -0.646 OA
ENDBRANCH  34  36
ENDBRANCH  33  34
ENDBRANCH  28  33
ENDBRANCH  24  25
ENDBRANCH   1  24
TORSDOF 13
ENDMDL