MODEL 2
REMARK VINA RESULT: -5.388784101     12.583     15.286
REMARK  11 active torsions:
REMARK  status: ('A' for Active; 'I' for Inactive)
REMARK    1  A    between atoms: S1_2  and  C2_3
REMARK    2  A    between atoms: C2_3  and  C3_4
REMARK    3  A    between atoms: C3_4  and  C4_5
REMARK    4  A    between atoms: C4_5  and  C5_6
REMARK    5  A    between atoms: C6_7  and  C7_8
REMARK    6  A    between atoms: C8_9  and  C9_10
REMARK    7  A    between atoms: C11_13  and  O2_14
REMARK    8  A    between atoms: O2_14  and  C12_15
REMARK    9  A    between atoms: C14_18  and  O4_19
REMARK   10  A    between atoms: C15_21  and  O5_22
REMARK   11  A    between atoms: C16_24  and  O6_25
ROOT
HETATM    1  C7  UNL     1      51.139  42.381  61.911  1.00  0.00    -0.019 A
HETATM    2  C8  UNL     1      49.807  41.953  62.080  1.00  0.00    -0.015 A
HETATM    3  C17 UNL     1      48.911  42.904  62.508  1.00  0.00     0.032 A
HETATM    4  C18 UNL     1      49.192  44.181  62.774  1.00  0.00     0.035 A
HETATM    5  C19 UNL     1      50.489  44.623  62.614  1.00  0.00     0.092 A
HETATM    6  C20 UNL     1      51.455  43.717  62.182  1.00  0.00    -0.016 A
HETATM    7  C21 UNL     1      52.828  44.221  61.996  1.00  0.00     0.052 C
HETATM    8  O7  UNL     1      50.833  45.919  62.871  1.00  0.00    -0.348 OA
HETATM    9  C22 UNL     1      50.030  46.997  63.230  1.00  0.00     0.191 C
HETATM   10  C23 UNL     1      48.633  46.939  62.628  1.00  0.00     0.073 C
HETATM   11  C24 UNL     1      47.742  48.045  63.069  1.00  0.00     0.024 C
HETATM   12  S2  UNL     1      47.941  45.336  63.284  1.00  0.00    -0.120 SA
ENDROOT
BRANCH   2  13
HETATM   13  C9  UNL     1      49.305  40.601  61.661  1.00  0.00     0.186 C
HETATM   14  O1  UNL     1      48.230  40.921  60.825  1.00  0.00    -0.376 OA
HETATM   15  C10 UNL     1      47.453  39.978  60.281  1.00  0.00     0.204 C
HETATM   16  C11 UNL     1      46.322  39.453  61.135  1.00  0.00     0.187 C
HETATM   17  C14 UNL     1      46.826  38.543  62.222  1.00  0.00     0.181 C
HETATM   18  C15 UNL     1      47.567  39.441  63.214  1.00  0.00     0.181 C
HETATM   19  C16 UNL     1      48.915  39.799  62.845  1.00  0.00     0.182 C
BRANCH  16  20
HETATM   20  O2  UNL     1      45.221  39.004  60.448  1.00  0.00    -0.311 OA
BRANCH  20  21
HETATM   21  C12 UNL     1      44.841  37.699  60.293  1.00  0.00     0.255 C
HETATM   22  C13 UNL     1      43.656  37.123  60.916  1.00  0.00     0.126 C
HETATM   23  O3  UNL     1      45.608  37.034  59.555  1.00  0.00    -0.266 OA
ENDBRANCH  20  21
ENDBRANCH  16  20
BRANCH  17  24
HETATM   24  O4  UNL     1      47.689  37.565  61.832  1.00  0.00    -0.390 OA
ATOM     25  H4  UNL     1      47.842  36.868  62.459  1.00  0.00     0.210 HD
ENDBRANCH  17  24
BRANCH  18  26
HETATM   26  O5  UNL     1      46.733  40.402  63.743  1.00  0.00    -0.390 OA
ATOM     27  H5  UNL     1      47.001  40.650  64.620  1.00  0.00     0.210 HD
ENDBRANCH  18  26
BRANCH  19  28
HETATM   28  O6  UNL     1      49.709  38.588  62.864  1.00  0.00    -0.390 OA
ATOM     29  H6  UNL     1      49.213  37.907  63.303  1.00  0.00     0.210 HD
ENDBRANCH  19  28
ENDBRANCH   2  13
BRANCH   1  30
HETATM   30  C6  UNL     1      52.103  41.422  61.474  1.00  0.00     0.009 C
HETATM   31  C5  UNL     1      53.007  40.709  62.059  1.00  0.00    -0.026 C
BRANCH  31  32
HETATM   32  C4  UNL     1      53.841  39.793  61.186  1.00  0.00     0.028 C
BRANCH  32  33
HETATM   33  C3  UNL     1      53.134  38.528  60.808  1.00  0.00     0.014 C
BRANCH  33  34
HETATM   34  C2  UNL     1      53.987  37.324  60.601  1.00  0.00     0.073 C
BRANCH  34  35
HETATM   35  S1  UNL     1      53.152  35.925  61.431  1.00  0.00    -0.173 SA
HETATM   36  C1  UNL     1      51.388  35.896  61.158  1.00  0.00     0.089 C
ENDBRANCH  34  35
ENDBRANCH  33  34
ENDBRANCH  32  33
ENDBRANCH  31  32
ENDBRANCH   1  30
TORSDOF 11
ENDMDL