MODEL 3
REMARK VINA RESULT: -3.293559289      1.342      2.597
REMARK  1 active torsions:
REMARK  status: ('A' for Active; 'I' for Inactive)
REMARK    1  A    between atoms: C2_2  and  N1_3
ROOT
HETATM    1  N1  UNL     1      -7.990  30.171  35.784  1.00  0.00    -0.040 N
HETATM    2  C3  UNL     1      -8.404  31.076  34.773  1.00  0.00     0.468 C
HETATM    3  N2  UNL     1      -9.840  31.217  35.104  1.00  0.00    -0.043 N
ATOM      4  H21 UNL     1     -10.498  30.910  34.387  1.00  0.00     0.279 HD
ATOM      5  H22 UNL     1     -10.201  32.170  35.138  1.00  0.00     0.279 HD
HETATM    6  C4  UNL     1      -9.868  30.491  36.334  1.00  0.00     0.239 C
HETATM    7  C5  UNL     1      -9.102  29.242  35.984  1.00  0.00     0.274 C
HETATM    8  C6  UNL     1      -8.527  30.857  36.978  1.00  0.00     0.274 C
ENDROOT
BRANCH   1   9
HETATM    9  C2  UNL     1      -6.692  29.682  35.852  1.00  0.00     0.235 C
HETATM   10  C1  UNL     1      -5.839  30.000  34.646  1.00  0.00     0.035 C
ENDBRANCH   1   9
TORSDOF 1
ENDMDL