MODEL 5
REMARK VINA RESULT: -3.969871382      4.238      6.157
REMARK  4 active torsions:
REMARK  status: ('A' for Active; 'I' for Inactive)
REMARK    1  A    between atoms: C3_3  and  C4_4
REMARK    2  A    between atoms: C5_5  and  C6_6
REMARK    3  A    between atoms: C6_6  and  N1_7
REMARK    4  A    between atoms: N1_7  and  C7_9
ROOT
HETATM    1  C1  UNL     1      -5.796  32.508  32.644  1.00  0.00     0.113 C
HETATM    2  C2  UNL     1      -6.317  31.513  33.604  1.00  0.00    -0.097 C
HETATM    3  C3  UNL     1      -6.745  30.712  34.405  1.00  0.00    -0.015 C
ENDROOT
BRANCH   3   4
HETATM    4  C4  UNL     1      -7.250  29.789  35.359  1.00  0.00    -0.013 C
HETATM    5  C5  UNL     1      -7.676  29.010  36.192  1.00  0.00    -0.073 C
BRANCH   5   6
HETATM    6  C6  UNL     1      -8.189  28.090  37.211  1.00  0.00     0.217 C
BRANCH   6   7
HETATM    7  N1  UNL     1      -7.430  28.164  38.437  1.00  0.00    -0.358 N
ATOM      8  H1  UNL     1      -6.610  27.566  38.530  1.00  0.00     0.162 HD
BRANCH   7   9
HETATM    9  C7  UNL     1      -7.754  29.008  39.507  1.00  0.00     0.349 C
HETATM   10  O1  UNL     1      -8.107  28.497  40.608  1.00  0.00    -0.284 OA
ENDBRANCH   7   9
ENDBRANCH   6   7
ENDBRANCH   5   6
ENDBRANCH   3   4
TORSDOF 4
ENDMDL