MODEL 2
REMARK VINA RESULT: -3.978358762      1.297      2.021
REMARK  0 active torsions:
REMARK  status: ('A' for Active; 'I' for Inactive)
ROOT
HETATM    1  C1  UNL     1      -8.223  30.780  34.285  1.00  0.00     0.055 C
HETATM    2  C2  UNL     1      -6.788  30.809  33.782  1.00  0.00     0.236 C
HETATM    3  N1  UNL     1      -6.135  29.629  34.331  1.00  0.00    -0.051 N
ATOM      4  H11 UNL     1      -5.219  29.474  33.910  1.00  0.00     0.279 HD
ATOM      5  H12 UNL     1      -6.592  28.769  34.027  1.00  0.00     0.279 HD
HETATM    6  C3  UNL     1      -6.052  29.711  35.794  1.00  0.00     0.467 C
HETATM    7  N2  UNL     1      -7.374  29.690  36.322  1.00  0.00    -0.040 N
HETATM    8  C4  UNL     1      -8.214  30.688  35.763  1.00  0.00     0.241 C
HETATM    9  C5  UNL     1      -7.621  29.411  37.717  1.00  0.00     0.267 A
HETATM   10  C6  UNL     1      -7.868  28.396  36.701  1.00  0.00     0.267 A
ENDROOT
TORSDOF 0
ENDMDL