MODEL 1
REMARK VINA RESULT: -3.622966649      0.000      0.000
REMARK  1 active torsions:
REMARK  status: ('A' for Active; 'I' for Inactive)
REMARK    1  A    between atoms: N1_2  and  C4_5
ROOT
HETATM    1  C4  UNL     1      -7.417  31.303  34.529  1.00  0.00     0.387 C
HETATM    2  C5  UNL     1      -6.027  30.892  34.054  1.00  0.00     0.090 C
HETATM    3  C6  UNL     1      -6.354  31.946  32.984  1.00  0.00     0.238 C
HETATM    4  N2  UNL     1      -7.745  31.479  33.141  1.00  0.00    -0.046 N
ATOM      5  H21 UNL     1      -8.540  32.044  32.843  1.00  0.00     0.279 HD
ATOM      6  H22 UNL     1      -8.124  30.717  32.578  1.00  0.00     0.279 HD
ENDROOT
BRANCH   1   7
HETATM    7  N1  UNL     1      -8.133  30.386  35.301  1.00  0.00    -0.050 N
HETATM    8  C1  UNL     1      -9.315  29.948  34.545  1.00  0.00     0.274 C
HETATM    9  C2  UNL     1      -8.573  30.797  36.588  1.00  0.00     0.274 C
HETATM   10  C3  UNL     1      -7.336  29.162  35.490  1.00  0.00     0.274 C
ENDBRANCH   1   7
TORSDOF 1
ENDMDL