MODEL 1
REMARK VINA RESULT: -3.877250700      0.000      0.000
REMARK  2 active torsions:
REMARK  status: ('A' for Active; 'I' for Inactive)
REMARK    1  A    between atoms: C5_8  and  C6_9
REMARK    2  A    between atoms: C6_9  and  O1_10
ROOT
HETATM    1  C1  UNL     1      -9.760  28.982  38.104  1.00  0.00     0.014 C
HETATM    2  C2  UNL     1      -8.899  29.187  36.946  1.00  0.00     0.044 C
HETATM    3  C3  UNL     1      -7.752  30.137  37.017  1.00  0.00     0.200 C
HETATM    4  N1  UNL     1      -7.074  29.157  37.823  1.00  0.00    -0.065 N
ATOM      5  H11 UNL     1      -7.200  29.020  38.826  1.00  0.00     0.278 HD
ATOM      6  H12 UNL     1      -6.086  29.173  38.076  1.00  0.00     0.278 HD
HETATM    7  C4  UNL     1      -7.661  28.356  36.788  1.00  0.00     0.200 C
HETATM    8  C5  UNL     1      -7.243  29.413  35.819  1.00  0.00     0.071 C
ENDROOT
BRANCH   8   9
HETATM    9  C6  UNL     1      -5.858  29.536  35.409  1.00  0.00     0.173 C
BRANCH   9  10
HETATM   10  O1  UNL     1      -5.798  29.458  33.997  1.00  0.00    -0.400 OA
ATOM     11  H1  UNL     1      -6.024  28.573  33.734  1.00  0.00     0.209 HD
ENDBRANCH   9  10
ENDBRANCH   8   9
TORSDOF 2
ENDMDL