MODEL 4
REMARK VINA RESULT: -3.308924324      0.738      1.529
REMARK  1 active torsions:
REMARK  status: ('A' for Active; 'I' for Inactive)
REMARK    1  A    between atoms: N1_2  and  C2_3
ROOT
HETATM    1  C1  UNL     1      -8.673  30.672  37.664  1.00  0.00     0.277 C
HETATM    2  N1  UNL     1      -8.289  29.648  36.678  1.00  0.00    -0.019 N
HETATM    3  C5  UNL     1      -8.274  28.355  37.309  1.00  0.00     0.471 C
HETATM    4  N2  UNL     1      -7.047  28.841  37.968  1.00  0.00    -0.026 N
ATOM      5  H21 UNL     1      -6.353  28.211  38.370  1.00  0.00     0.281 HD
ATOM      6  H22 UNL     1      -7.059  29.316  38.871  1.00  0.00     0.281 HD
HETATM    7  C6  UNL     1      -6.828  29.556  36.696  1.00  0.00     0.471 C
ENDROOT
BRANCH   2   8
HETATM    8  C2  UNL     1      -8.902  29.784  35.419  1.00  0.00     0.194 A
HETATM    9  C3  UNL     1     -10.029  30.717  35.199  1.00  0.00     0.036 A
HETATM   10  C4  UNL     1      -8.692  30.966  34.532  1.00  0.00     0.036 A
ENDBRANCH   2   8
TORSDOF 1
ENDMDL