MODEL 4
REMARK VINA RESULT: -4.650639572      1.987      2.611
REMARK  4 active torsions:
REMARK  status: ('A' for Active; 'I' for Inactive)
REMARK    1  A    between atoms: N1_1  and  N2_4
REMARK    2  A    between atoms: C1_6  and  C2_7
REMARK    3  A    between atoms: C2_7  and  C3_8
REMARK    4  A    between atoms: C4_9  and  C5_10
ROOT
HETATM    1  N2  UNL     1      -4.529  32.047  33.774  1.00  0.00    -0.321 N
ATOM      2  H2  UNL     1      -4.802  31.292  34.404  1.00  0.00     0.185 HD
HETATM    3  C1  UNL     1      -5.413  32.569  32.997  1.00  0.00     0.091 C
ENDROOT
BRANCH   3   4
HETATM    4  C2  UNL     1      -6.823  32.104  32.989  1.00  0.00     0.140 C
BRANCH   4   5
HETATM    5  C3  UNL     1      -7.027  31.020  33.976  1.00  0.00    -0.101 C
HETATM    6  C4  UNL     1      -7.190  30.151  34.795  1.00  0.00    -0.101 C
BRANCH   6   7
HETATM    7  C5  UNL     1      -7.394  29.114  35.806  1.00  0.00     0.065 A
HETATM    8  C6  UNL     1      -7.372  29.489  37.243  1.00  0.00     0.018 A
HETATM    9  C7  UNL     1      -8.684  29.228  36.569  1.00  0.00     0.018 A
ENDBRANCH   6   7
ENDBRANCH   4   5
ENDBRANCH   3   4
BRANCH   1  10
HETATM   10  N1  UNL     1      -3.224  32.484  33.775  1.00  0.00    -0.346 N
ATOM     11  H12 UNL     1      -2.497  31.834  33.475  1.00  0.00     0.176 HD
ATOM     12  H11 UNL     1      -2.979  33.430  34.065  1.00  0.00     0.176 HD
ENDBRANCH   1  10
TORSDOF 4
ENDMDL