MODEL 5
REMARK VINA RESULT: -3.988592083      2.296      5.633
REMARK  3 active torsions:
REMARK  status: ('A' for Active; 'I' for Inactive)
REMARK    1  A    between atoms: N1_3  and  C3_4
REMARK    2  A    between atoms: C3_4  and  C4_5
REMARK    3  A    between atoms: C5_6  and  C6_7
ROOT
HETATM    1  C1  UNL     1      -6.182  32.343  32.947  1.00  0.00     0.032 C
HETATM    2  C2  UNL     1      -6.520  31.381  33.591  1.00  0.00    -0.011 C
HETATM    3  N1  UNL     1      -6.899  30.255  34.334  1.00  0.00    -0.150 NA
ENDROOT
BRANCH   3   4
HETATM    4  C3  UNL     1      -8.342  30.308  34.478  1.00  0.00     0.219 C
BRANCH   4   5
HETATM    5  C4  UNL     1      -8.606  30.531  35.906  1.00  0.00    -0.076 C
HETATM    6  C5  UNL     1      -8.819  30.727  37.086  1.00  0.00    -0.014 C
BRANCH   6   7
HETATM    7  C6  UNL     1      -9.061  30.972  38.464  1.00  0.00    -0.015 C
HETATM    8  C7  UNL     1      -9.263  31.197  39.638  1.00  0.00    -0.097 C
HETATM    9  C8  UNL     1      -9.490  31.480  41.061  1.00  0.00     0.113 C
ENDBRANCH   6   7
ENDBRANCH   4   5
ENDBRANCH   3   4
TORSDOF 3
ENDMDL