MODEL 4
REMARK VINA RESULT: -3.708437401      1.440      1.785
REMARK  0 active torsions:
REMARK  status: ('A' for Active; 'I' for Inactive)
ROOT
HETATM    1  C1  UNL     1      -5.455  29.879  35.225  1.00  0.00     0.042 C
HETATM    2  C2  UNL     1      -6.927  29.504  35.337  1.00  0.00     0.210 C
HETATM    3  C3  UNL     1      -7.417  29.562  36.758  1.00  0.00     0.272 C
HETATM    4  N1  UNL     1      -8.666  30.260  36.726  1.00  0.00    -0.038 N
HETATM    5  C4  UNL     1      -9.805  29.796  37.445  1.00  0.00     0.267 A
HETATM    6  C5  UNL     1      -9.017  30.974  37.909  1.00  0.00     0.267 A
HETATM    7  C6  UNL     1      -8.849  30.805  35.419  1.00  0.00     0.468 C
HETATM    8  N2  UNL     1      -7.676  30.528  34.637  1.00  0.00    -0.045 N
ATOM      9  H21 UNL     1      -7.889  30.278  33.672  1.00  0.00     0.279 HD
ATOM     10  H22 UNL     1      -7.122  31.362  34.438  1.00  0.00     0.279 HD
ENDROOT
TORSDOF 0
ENDMDL