MODEL 2
REMARK VINA RESULT: -3.248526937      2.392      4.342
REMARK  0 active torsions:
REMARK  status: ('A' for Active; 'I' for Inactive)
ROOT
HETATM    1  C1  UNL     1      -8.056  26.119  37.916  1.00  0.00     0.297 C
HETATM    2  N1  UNL     1      -8.319  27.476  38.168  1.00  0.00     0.007 N
HETATM    3  C2  UNL     1      -9.694  27.806  38.443  1.00  0.00     0.260 C
HETATM    4  C3  UNL     1      -9.856  29.299  38.119  1.00  0.00     0.037 C
HETATM    5  C4  UNL     1      -8.432  29.649  37.746  1.00  0.00     0.031 C
HETATM    6  C5  UNL     1      -7.597  29.493  38.989  1.00  0.00     0.149 C
HETATM    7  N2  UNL     1      -7.536  28.052  39.166  1.00  0.00    -0.047 NA
HETATM    8  C6  UNL     1      -8.046  28.354  37.014  1.00  0.00     0.265 C
ENDROOT
TORSDOF 0
ENDMDL