MODEL 1
REMARK VINA RESULT: -7.486048081      0.000      0.000
REMARK  7 active torsions:
REMARK  status: ('A' for Active; 'I' for Inactive)
REMARK    1  A    between atoms: C6_7  and  C7_8
REMARK    2  A    between atoms: C7_8  and  O1_9
REMARK    3  A    between atoms: C7_8  and  C8_11
REMARK    4  A    between atoms: C9_14  and  C10_15
REMARK    5  A    between atoms: C10_15  and  C11_17
REMARK    6  A    between atoms: C13_19  and  N1_20
REMARK    7  A    between atoms: C16_25  and  O5_26
ROOT
HETATM    1  C1  UNL     1      48.843  46.269  32.199  1.00  0.00     0.010 C
HETATM    2  C2  UNL     1      48.824  47.673  31.597  1.00  0.00    -0.014 C
HETATM    3  C3  UNL     1      50.027  47.789  30.718  1.00  0.00     0.009 C
HETATM    4  C4  UNL     1      50.913  48.938  30.982  1.00  0.00     0.047 C
HETATM    5  C5  UNL     1      50.061  50.141  31.334  1.00  0.00    -0.010 A
HETATM    6  S1  UNL     1      50.061  51.792  30.902  1.00  0.00    -0.095 SA
HETATM    7  C6  UNL     1      48.721  52.327  31.848  1.00  0.00     0.032 A
HETATM    8  C9  UNL     1      48.313  51.183  32.473  1.00  0.00     0.038 A
HETATM    9  C17 UNL     1      49.012  50.063  32.199  1.00  0.00    -0.029 A
HETATM   10  C18 UNL     1      48.806  48.656  32.728  1.00  0.00     0.045 C
ENDROOT
BRANCH   8  11
HETATM   11  C10 UNL     1      47.192  51.203  33.452  1.00  0.00     0.196 C
HETATM   12  O2  UNL     1      46.045  51.090  32.901  1.00  0.00    -0.286 OA
BRANCH  11  13
HETATM   13  C11 UNL     1      47.310  51.341  34.865  1.00  0.00     0.050 A
HETATM   14  C12 UNL     1      47.916  50.403  35.709  1.00  0.00     0.054 A
HETATM   15  C13 UNL     1      48.007  50.500  37.061  1.00  0.00     0.104 A
HETATM   16  C14 UNL     1      47.461  51.617  37.668  1.00  0.00     0.039 A
HETATM   17  C15 UNL     1      46.854  52.577  36.909  1.00  0.00     0.040 A
HETATM   18  C16 UNL     1      46.769  52.452  35.520  1.00  0.00     0.080 A
BRANCH  15  19
HETATM   19  N1  UNL     1      48.600  49.525  37.893  1.00  0.00    -0.116 N
HETATM   20  O3  UNL     1      48.406  48.327  37.672  1.00  0.00    -0.532 OA
HETATM   21  O4  UNL     1      49.385  49.894  38.951  1.00  0.00    -0.532 OA
ENDBRANCH  15  19
BRANCH  18  22
HETATM   22  O5  UNL     1      46.147  53.450  34.879  1.00  0.00    -0.360 OA
ATOM     23  H5  UNL     1      46.440  54.354  34.913  1.00  0.00     0.217 HD
ENDBRANCH  18  22
ENDBRANCH  11  13
ENDBRANCH   8  11
BRANCH   7  24
HETATM   24  C7  UNL     1      48.264  53.733  31.881  1.00  0.00     0.223 C
BRANCH  24  25
HETATM   25  O1  UNL     1      48.190  54.312  33.120  1.00  0.00    -0.385 OA
ATOM     26  H1  UNL     1      47.424  54.851  33.283  1.00  0.00     0.210 HD
ENDBRANCH  24  25
BRANCH  24  27
HETATM   27  C8  UNL     1      46.899  53.788  31.182  1.00  0.00     0.386 C
HETATM   28  F1  UNL     1      46.667  55.043  30.675  1.00  0.00    -0.211 F
HETATM   29  F2  UNL     1      46.860  52.879  30.169  1.00  0.00    -0.211 F
ENDBRANCH  24  27
ENDBRANCH   7  24
TORSDOF 7
ENDMDL