MODEL 2
REMARK VINA RESULT: -7.124906825      4.327      8.131
REMARK  8 active torsions:
REMARK  status: ('A' for Active; 'I' for Inactive)
REMARK    1  A    between atoms: C2_2  and  O1_3
REMARK    2  A    between atoms: O1_3  and  C3_4
REMARK    3  A    between atoms: C3_4  and  C4_6
REMARK    4  A    between atoms: C5_7  and  N1_8
REMARK       I    between atoms: N1_8  and  C6_10
REMARK    5  A    between atoms: C6_10  and  C7_12
REMARK    6  A    between atoms: C7_12  and  O4_13
REMARK    7  A    between atoms: O4_13  and  C8_14
REMARK       I    between atoms: C8_14  and  N2_16
REMARK    8  A    between atoms: N2_16  and  C9_18
ROOT
HETATM    1  N1  UNL     1      51.544  51.339  35.949  1.00  0.00    -0.319 N
ATOM      2  H1  UNL     1      51.797  50.576  36.577  1.00  0.00     0.169 HD
HETATM    3  C6  UNL     1      52.503  52.241  35.431  1.00  0.00     0.246 C
HETATM    4  O3  UNL     1      52.187  53.161  34.682  1.00  0.00    -0.271 OA
ENDROOT
BRANCH   1   5
HETATM    5  C5  UNL     1      50.171  51.572  35.526  1.00  0.00     0.094 A
HETATM    6  C4  UNL     1      49.095  52.071  36.198  1.00  0.00     0.080 A
HETATM    7  C12 UNL     1      47.922  52.143  35.513  1.00  0.00    -0.030 A
HETATM    8  C10 UNL     1      47.934  51.711  34.222  1.00  0.00    -0.012 A
HETATM    9  C13 UNL     1      46.636  52.695  36.115  1.00  0.00     0.050 C
HETATM   10  S1  UNL     1      49.531  51.218  33.958  1.00  0.00    -0.076 SA
HETATM   11  C11 UNL     1      46.775  51.671  33.247  1.00  0.00     0.057 C
BRANCH   6  12
HETATM   12  C3  UNL     1      49.217  52.528  37.632  1.00  0.00     0.296 C
HETATM   13  O2  UNL     1      49.607  53.705  37.898  1.00  0.00    -0.259 OA
BRANCH  12  14
HETATM   14  O1  UNL     1      48.930  51.731  38.683  1.00  0.00    -0.318 OA
BRANCH  14  15
HETATM   15  C2  UNL     1      48.354  50.457  38.633  1.00  0.00     0.174 C
HETATM   16  C1  UNL     1      47.960  49.960  40.007  1.00  0.00     0.034 C
ENDBRANCH  14  15
ENDBRANCH  12  14
ENDBRANCH   6  12
ENDBRANCH   1   5
BRANCH   3  17
HETATM   17  C7  UNL     1      53.933  52.068  35.815  1.00  0.00     0.283 C
BRANCH  17  18
HETATM   18  O4  UNL     1      54.199  50.713  36.101  1.00  0.00    -0.295 OA
BRANCH  18  19
HETATM   19  C8  UNL     1      55.216  49.996  35.497  1.00  0.00     0.364 C
HETATM   20  O5  UNL     1      55.569  50.403  34.346  1.00  0.00    -0.238 OA
HETATM   21  N2  UNL     1      55.806  48.886  36.142  1.00  0.00    -0.288 N
ATOM     22  H2  UNL     1      55.444  48.638  37.063  1.00  0.00     0.169 HD
BRANCH  21  23
HETATM   23  C9  UNL     1      56.858  48.085  35.625  1.00  0.00     0.271 C
HETATM   24 CL1  UNL     1      57.201  46.760  36.801  1.00  0.00    -0.060 Cl
HETATM   25 CL2  UNL     1      56.366  47.330  34.066  1.00  0.00    -0.060 Cl
HETATM   26 CL3  UNL     1      58.332  49.048  35.393  1.00  0.00    -0.060 Cl
ENDBRANCH  21  23
ENDBRANCH  18  19
ENDBRANCH  17  18
ENDBRANCH   3  17
TORSDOF 8
ENDMDL