MODEL 5
REMARK VINA RESULT: -7.781397261      2.497      4.591
REMARK  7 active torsions:
REMARK  status: ('A' for Active; 'I' for Inactive)
REMARK    1  A    between atoms: C2_2  and  C3_3
REMARK    2  A    between atoms: N3_15  and  C11_16
REMARK    3  A    between atoms: C11_16  and  C12_17
REMARK    4  A    between atoms: C15_20  and  C16_21
REMARK    5  A    between atoms: C16_21  and  C17_24
REMARK    6  A    between atoms: C17_24  and  O1_25
REMARK    7  A    between atoms: N4_27  and  O2_29
ROOT
HETATM    1  C12 UNL     1      49.497  49.254  32.656  1.00  0.00     0.005 C
HETATM    2  C13 UNL     1      49.638  50.754  32.550  1.00  0.00     0.007 C
HETATM    3  C14 UNL     1      48.812  51.327  33.702  1.00  0.00     0.013 C
HETATM    4  C15 UNL     1      47.328  51.185  33.343  1.00  0.00     0.084 C
HETATM    5  C18 UNL     1      47.045  49.887  32.706  1.00  0.00     0.103 C
HETATM    6  C19 UNL     1      46.926  50.063  31.231  1.00  0.00     0.064 C
HETATM    7  N5  UNL     1      46.815  50.208  30.089  1.00  0.00    -0.197 NA
HETATM    8  C20 UNL     1      48.094  48.817  32.901  1.00  0.00     0.026 C
ENDROOT
BRANCH   4   9
HETATM    9  C16 UNL     1      46.551  51.571  34.544  1.00  0.00     0.313 C
HETATM   10  F1  UNL     1      46.972  50.810  35.650  1.00  0.00    -0.196 F
HETATM   11  F2  UNL     1      45.208  51.188  34.362  1.00  0.00    -0.196 F
BRANCH   9  12
HETATM   12  C17 UNL     1      46.554  52.966  34.950  1.00  0.00     0.210 C
HETATM   13  N4  UNL     1      46.484  53.395  36.177  1.00  0.00    -0.246 N
ATOM     14  H4  UNL     1      46.493  54.397  36.366  1.00  0.00     0.196 HD
BRANCH  12  15
HETATM   15  O1  UNL     1      46.639  53.997  33.993  1.00  0.00    -0.344 OA
ATOM     16  H1  UNL     1      46.167  54.812  34.112  1.00  0.00     0.219 HD
ENDBRANCH  12  15
BRANCH  13  17
HETATM   17  O2  UNL     1      46.399  52.515  37.203  1.00  0.00    -0.288 OA
ATOM     18  H2  UNL     1      46.093  52.803  38.054  1.00  0.00     0.244 HD
ENDBRANCH  13  17
ENDBRANCH   9  12
ENDBRANCH   4   9
BRANCH   1  19
HETATM   19  C11 UNL     1      50.063  48.496  31.502  1.00  0.00     0.136 C
BRANCH  19  20
HETATM   20  N3  UNL     1      51.256  47.744  31.798  1.00  0.00    -0.320 N
HETATM   21  C3  UNL     1      51.468  46.453  31.462  1.00  0.00     0.085 A
HETATM   22  N1  UNL     1      52.690  46.067  31.890  1.00  0.00    -0.342 N
HETATM   23  C4  UNL     1      53.274  47.093  32.499  1.00  0.00     0.084 A
ATOM     24  H1  UNL     1      53.098  45.141  31.764  1.00  0.00     0.167 HD
HETATM   25  C5  UNL     1      54.510  47.198  33.097  1.00  0.00    -0.030 A
HETATM   26  C10 UNL     1      52.363  48.153  32.439  1.00  0.00     0.137 A
HETATM   27  C6  UNL     1      55.503  46.098  33.180  1.00  0.00     0.050 C
HETATM   28  C7  UNL     1      54.844  48.411  33.654  1.00  0.00     0.033 A
HETATM   29  C8  UNL     1      53.924  49.454  33.585  1.00  0.00     0.007 A
HETATM   30  C9  UNL     1      54.228  50.794  34.170  1.00  0.00     0.068 C
HETATM   31  N2  UNL     1      52.734  49.297  32.992  1.00  0.00    -0.344 N
ATOM     32  H2  UNL     1      52.091  50.088  32.964  1.00  0.00     0.167 HD
BRANCH  21  33
HETATM   33  C2  UNL     1      50.510  45.601  30.739  1.00  0.00     0.072 C
HETATM   34  C1  UNL     1      51.094  45.015  29.471  1.00  0.00     0.013 C
ENDBRANCH  21  33
ENDBRANCH  19  20
ENDBRANCH   1  19
TORSDOF 7
ENDMDL