MODEL 3
REMARK VINA RESULT: -6.494860148      1.756      1.974
REMARK  7 active torsions:
REMARK  status: ('A' for Active; 'I' for Inactive)
REMARK    1  A    between atoms: C5_6  and  C6_7
REMARK       I    between atoms: C6_7  and  N1_9
REMARK    2  A    between atoms: N1_9  and  C7_11
REMARK    3  A    between atoms: C7_11  and  N2_13
REMARK    4  A    between atoms: N2_13  and  C8_15
REMARK    5  A    between atoms: C8_15  and  C10_17
REMARK    6  A    between atoms: C11_20  and  S2_21
REMARK    7  A    between atoms: S2_21  and  C12_22
ROOT
HETATM    1  N2  UNL     1      49.179  50.025  33.623  1.00  0.00    -0.357 N
ATOM      2  H2  UNL     1      50.047  49.582  33.321  1.00  0.00     0.162 HD
ENDROOT
BRANCH   1   3
HETATM    3  C7  UNL     1      47.940  49.357  33.425  1.00  0.00     0.175 C
HETATM    4  S1  UNL     1      47.715  47.896  34.132  1.00  0.00    -0.041 SA
BRANCH   3   5
HETATM    5  N1  UNL     1      46.909  49.941  32.619  1.00  0.00    -0.300 N
HETATM    6  C6  UNL     1      47.096  50.235  31.266  1.00  0.00     0.260 C
HETATM    7  O2  UNL     1      48.239  49.970  30.765  1.00  0.00    -0.267 OA
ATOM      8  H1  UNL     1      46.008  50.149  33.048  1.00  0.00     0.171 HD
BRANCH   6   9
HETATM    9  C5  UNL     1      46.131  50.815  30.350  1.00  0.00     0.063 A
HETATM   10  C2  UNL     1      45.361  51.910  30.492  1.00  0.00     0.064 A
HETATM   11  C1  UNL     1      45.247  52.821  31.660  1.00  0.00     0.077 C
HETATM   12  O1  UNL     1      44.650  52.095  29.374  1.00  0.00    -0.326 OA
HETATM   13  C3  UNL     1      44.939  51.143  28.501  1.00  0.00     0.143 A
HETATM   14  C4  UNL     1      45.867  50.307  29.062  1.00  0.00     0.044 A
ENDBRANCH   6   9
ENDBRANCH   3   5
ENDBRANCH   1   3
BRANCH   1  15
HETATM   15  C8  UNL     1      49.218  51.297  34.233  1.00  0.00     0.131 C
HETATM   16  C9  UNL     1      50.565  51.895  34.427  1.00  0.00     0.039 C
BRANCH  15  17
HETATM   17  C10 UNL     1      48.514  51.258  35.592  1.00  0.00     0.046 A
HETATM   18  N3  UNL     1      48.905  50.484  36.555  1.00  0.00    -0.346 N
HETATM   19  C11 UNL     1      48.267  50.493  37.709  1.00  0.00     0.117 A
ATOM     20  H3  UNL     1      49.706  49.868  36.420  1.00  0.00     0.167 HD
HETATM   21  S3  UNL     1      47.040  51.649  37.452  1.00  0.00    -0.068 SA
HETATM   22  C13 UNL     1      47.421  52.067  35.844  1.00  0.00     0.006 A
HETATM   23  C14 UNL     1      46.776  53.045  34.907  1.00  0.00     0.058 C
BRANCH  19  24
HETATM   24  S2  UNL     1      48.622  49.510  39.191  1.00  0.00    -0.035 SA
BRANCH  24  25
HETATM   25  C12 UNL     1      48.639  50.639  40.611  1.00  0.00     0.422 C
HETATM   26  F1  UNL     1      47.560  50.363  41.423  1.00  0.00    -0.202 F
HETATM   27  F2  UNL     1      49.829  50.463  41.286  1.00  0.00    -0.202 F
ENDBRANCH  24  25
ENDBRANCH  19  24
ENDBRANCH  15  17
ENDBRANCH   1  15
TORSDOF 7
ENDMDL