MODEL 1
REMARK VINA RESULT: -8.326637746      0.000      0.000
REMARK  7 active torsions:
REMARK  status: ('A' for Active; 'I' for Inactive)
REMARK    1  A    between atoms: N2_10  and  C7_11
REMARK    2  A    between atoms: C7_11  and  C8_12
REMARK    3  A    between atoms: C10_14  and  C11_15
REMARK    4  A    between atoms: C11_15  and  O1_16
REMARK    5  A    between atoms: N3_18  and  O2_20
REMARK    6  A    between atoms: C13_25  and  S1_26
REMARK    7  A    between atoms: S1_26  and  C14_27
ROOT
HETATM    1  N1  UNL     1      47.153  55.936  30.752  1.00  0.00    -0.195 NA
HETATM    2  C1  UNL     1      47.353  54.781  30.857  1.00  0.00     0.084 C
HETATM    3  C2  UNL     1      47.626  53.349  30.977  1.00  0.00     0.191 C
HETATM    4  C3  UNL     1      46.547  52.663  30.168  1.00  0.00     0.046 C
HETATM    5  C4  UNL     1      45.220  53.112  30.793  1.00  0.00     0.083 C
HETATM    6  C5  UNL     1      45.213  52.525  32.175  1.00  0.00     0.259 C
HETATM    7  F1  UNL     1      45.260  51.135  32.086  1.00  0.00    -0.205 F
HETATM    8  F2  UNL     1      44.005  52.836  32.786  1.00  0.00    -0.205 F
HETATM    9  C6  UNL     1      46.369  52.980  33.007  1.00  0.00     0.202 C
HETATM   10  N2  UNL     1      47.630  52.995  32.347  1.00  0.00    -0.366 N
ENDROOT
BRANCH  10  11
HETATM   11  C7  UNL     1      48.418  51.893  32.753  1.00  0.00     0.101 C
BRANCH  11  12
HETATM   12  C8  UNL     1      48.509  51.546  34.150  1.00  0.00     0.014 A
HETATM   13  C9  UNL     1      48.923  52.388  35.141  1.00  0.00     0.032 A
HETATM   14  C10 UNL     1      48.964  51.985  36.484  1.00  0.00     0.033 A
HETATM   15  C12 UNL     1      48.577  50.708  36.810  1.00  0.00     0.104 A
HETATM   16  N4  UNL     1      48.178  49.906  35.836  1.00  0.00    -0.359 N
HETATM   17  C13 UNL     1      48.126  50.258  34.544  1.00  0.00     0.087 A
ATOM     18  H4  UNL     1      47.891  48.960  36.084  1.00  0.00     0.166 HD
BRANCH  14  19
HETATM   19  C11 UNL     1      49.412  52.903  37.523  1.00  0.00     0.171 C
HETATM   20  N3  UNL     1      49.318  52.570  38.751  1.00  0.00    -0.247 N
ATOM     21  H3  UNL     1      48.927  51.659  38.989  1.00  0.00     0.196 HD
BRANCH  19  22
HETATM   22  O1  UNL     1      49.934  54.120  37.192  1.00  0.00    -0.344 OA
ATOM     23  H1  UNL     1      50.363  54.247  36.354  1.00  0.00     0.219 HD
ENDBRANCH  19  22
BRANCH  20  24
HETATM   24  O2  UNL     1      49.729  53.404  39.761  1.00  0.00    -0.288 OA
ATOM     25  H2  UNL     1      49.260  54.203  39.975  1.00  0.00     0.244 HD
ENDBRANCH  20  24
ENDBRANCH  14  19
BRANCH  17  26
HETATM   26  S1  UNL     1      47.565  49.079  33.304  1.00  0.00    -0.054 SA
BRANCH  26  27
HETATM   27  C14 UNL     1      48.944  48.176  32.690  1.00  0.00     0.075 A
HETATM   28  C15 UNL     1      48.747  46.877  32.253  1.00  0.00     0.037 A
HETATM   29  C16 UNL     1      49.789  46.109  31.757  1.00  0.00     0.004 A
HETATM   30  C17 UNL     1      51.077  46.633  31.686  1.00  0.00     0.017 A
HETATM   31  C18 UNL     1      51.228  47.932  32.131  1.00  0.00     0.089 A
HETATM   32  N5  UNL     1      50.196  48.663  32.613  1.00  0.00    -0.360 N
ATOM     33  H5  UNL     1      50.373  49.617  32.928  1.00  0.00     0.166 HD
ENDBRANCH  26  27
ENDBRANCH  17  26
ENDBRANCH  11  12
ENDBRANCH  10  11
TORSDOF 7
ENDMDL