MODEL 2
REMARK VINA RESULT: -7.295020629      0.975      1.308
REMARK  7 active torsions:
REMARK  status: ('A' for Active; 'I' for Inactive)
REMARK    1  A    between atoms: C2_2  and  O1_3
REMARK    2  A    between atoms: C2_2  and  N1_5
REMARK    3  A    between atoms: N1_5  and  C3_7
REMARK    4  A    between atoms: C6_12  and  C7_13
REMARK    5  A    between atoms: C7_13  and  S2_14
REMARK    6  A    between atoms: S2_14  and  C8_15
REMARK    7  A    between atoms: C9_18  and  C10_19
ROOT
HETATM    1  C7  UNL     1      45.998  50.986  34.084  1.00  0.00     0.123 C
ENDROOT
BRANCH   1   2
HETATM    2  C6  UNL     1      46.467  50.662  32.673  1.00  0.00    -0.013 A
HETATM    3  C3  UNL     1      47.513  49.853  32.400  1.00  0.00     0.080 A
HETATM    4  S1  UNL     1      47.443  49.597  30.713  1.00  0.00    -0.065 SA
HETATM    5  C4  UNL     1      46.077  50.494  30.355  1.00  0.00     0.054 A
HETATM    6 BR1  UNL     1      45.270  50.823  28.604  1.00  0.00    -0.043 Br
HETATM    7  C5  UNL     1      45.679  51.004  31.566  1.00  0.00     0.037 A
BRANCH   3   8
HETATM    8  N1  UNL     1      48.545  49.281  33.252  1.00  0.00    -0.358 N
ATOM      9  H1  UNL     1      49.451  49.721  33.408  1.00  0.00     0.162 HD
BRANCH   8  10
HETATM   10  C2  UNL     1      48.169  48.070  33.836  1.00  0.00     0.214 C
HETATM   11  C1  UNL     1      48.355  46.796  33.074  1.00  0.00     0.063 C
BRANCH  10  12
HETATM   12  O1  UNL     1      47.622  47.978  35.023  1.00  0.00    -0.377 OA
ATOM     13  H1  UNL     1      48.170  48.194  35.768  1.00  0.00     0.212 HD
ENDBRANCH  10  12
ENDBRANCH   8  10
ENDBRANCH   3   8
ENDBRANCH   1   2
BRANCH   1  14
HETATM   14  S2  UNL     1      47.277  52.048  34.841  1.00  0.00    -0.088 SA
BRANCH  14  15
HETATM   15  C8  UNL     1      47.757  51.302  36.359  1.00  0.00     0.160 A
HETATM   16  N2  UNL     1      47.217  51.405  37.569  1.00  0.00    -0.324 N
HETATM   17  C9  UNL     1      47.875  50.701  38.491  1.00  0.00     0.102 A
ATOM     18  H2  UNL     1      46.388  51.963  37.771  1.00  0.00     0.169 HD
HETATM   19  N3  UNL     1      48.890  50.121  37.805  1.00  0.00    -0.287 N
HETATM   20  N4  UNL     1      48.825  50.468  36.536  1.00  0.00    -0.278 N
ATOM     21  H3  UNL     1      49.597  49.508  38.210  1.00  0.00     0.188 HD
ATOM     22  H4  UNL     1      49.467  50.164  35.804  1.00  0.00     0.189 HD
BRANCH  17  23
HETATM   23  C10 UNL     1      47.685  50.513  39.955  1.00  0.00     0.055 A
HETATM   24  C11 UNL     1      48.812  51.084  40.810  1.00  0.00     0.012 A
HETATM   25  C12 UNL     1      49.231  49.688  41.166  1.00  0.00     0.002 A
HETATM   26  C13 UNL     1      48.095  49.117  40.376  1.00  0.00     0.012 A
ENDBRANCH  17  23
ENDBRANCH  14  15
ENDBRANCH   1  14
TORSDOF 7
ENDMDL