MODEL 2
REMARK VINA RESULT: -6.921135518      1.898      3.117
REMARK  5 active torsions:
REMARK  status: ('A' for Active; 'I' for Inactive)
REMARK    1  A    between atoms: C2_2  and  C3_3
REMARK    2  A    between atoms: C3_3  and  N1_4
REMARK    3  A    between atoms: C10_18  and  C11_19
REMARK    4  A    between atoms: C13_21  and  O1_22
REMARK    5  A    between atoms: O1_22  and  C14_23
ROOT
HETATM    1  N1  UNL     1      47.612  49.137  33.639  1.00  0.00    -0.345 N
HETATM    2  C4  UNL     1      48.178  48.849  32.363  1.00  0.00     0.194 C
HETATM    3  C5  UNL     1      49.634  48.852  32.480  1.00  0.00     0.084 C
HETATM    4  N2  UNL     1      50.782  48.855  32.567  1.00  0.00    -0.195 NA
HETATM    5  C6  UNL     1      47.783  50.085  31.511  1.00  0.00     0.050 C
HETATM    6  C7  UNL     1      47.998  51.126  32.576  1.00  0.00     0.053 C
HETATM    7  C8  UNL     1      47.646  52.501  32.214  1.00  0.00     0.091 C
HETATM    8  S1  UNL     1      45.869  52.811  32.145  1.00  0.00    -0.094 SA
HETATM    9  C9  UNL     1      45.159  51.626  33.301  1.00  0.00     0.135 C
HETATM   10  N3  UNL     1      43.872  51.547  33.398  1.00  0.00    -0.380 N
ATOM     11  H31 UNL     1      43.470  50.875  34.052  1.00  0.00     0.158 HD
ATOM     12  H32 UNL     1      43.241  52.130  32.849  1.00  0.00     0.158 HD
HETATM   13  N4  UNL     1      46.037  50.814  34.066  1.00  0.00    -0.340 N
ATOM     14  H4  UNL     1      45.645  50.399  34.910  1.00  0.00     0.164 HD
HETATM   15  C10 UNL     1      47.399  50.513  33.795  1.00  0.00     0.148 C
ENDROOT
BRANCH   1  16
HETATM   16  C3  UNL     1      46.896  48.165  34.324  1.00  0.00     0.062 C
BRANCH  16  17
HETATM   17  C2  UNL     1      47.664  47.039  34.962  1.00  0.00     0.040 C
HETATM   18  C1  UNL     1      47.886  45.867  34.011  1.00  0.00     0.010 C
ENDBRANCH  16  17
ENDBRANCH   1  16
BRANCH  15  19
HETATM   19  C11 UNL     1      48.168  51.098  34.959  1.00  0.00     0.037 A
HETATM   20  C12 UNL     1      47.861  51.067  36.276  1.00  0.00     0.059 A
HETATM   21  C13 UNL     1      48.717  51.682  37.140  1.00  0.00     0.116 A
HETATM   22  C17 UNL     1      49.808  52.270  36.594  1.00  0.00     0.191 A
HETATM   23  F1  UNL     1      50.865  52.970  37.112  1.00  0.00    -0.195 F
HETATM   24  S2  UNL     1      49.628  51.964  34.901  1.00  0.00    -0.057 SA
BRANCH  21  25
HETATM   25  O1  UNL     1      48.458  51.691  38.528  1.00  0.00    -0.343 OA
BRANCH  25  26
HETATM   26  C14 UNL     1      48.159  50.676  39.379  1.00  0.00     0.121 C
HETATM   27  C15 UNL     1      48.638  49.311  38.861  1.00  0.00     0.040 C
HETATM   28  C16 UNL     1      48.762  50.844  40.771  1.00  0.00     0.040 C
ENDBRANCH  25  26
ENDBRANCH  21  25
ENDBRANCH  15  19
TORSDOF 5
ENDMDL