MODEL 1
REMARK VINA RESULT: -7.947277835      0.000      0.000
REMARK  8 active torsions:
REMARK  status: ('A' for Active; 'I' for Inactive)
REMARK    1  A    between atoms: O1_1  and  N1_3
REMARK    2  A    between atoms: N1_3  and  C1_5
REMARK    3  A    between atoms: C1_5  and  O2_6
REMARK    4  A    between atoms: C1_5  and  C2_8
REMARK    5  A    between atoms: C6_12  and  N2_13
REMARK    6  A    between atoms: C11_22  and  O3_23
REMARK    7  A    between atoms: O3_23  and  C12_24
REMARK    8  A    between atoms: C12_24  and  C13_25
ROOT
HETATM    1  N2  UNL     1      47.389  51.430  35.290  1.00  0.00    -0.336 N
HETATM    2  C7  UNL     1      46.492  52.429  35.348  1.00  0.00     0.184 A
HETATM    3  N3  UNL     1      45.834  52.541  34.183  1.00  0.00    -0.348 N
ATOM      4  H3  UNL     1      45.104  53.219  33.967  1.00  0.00     0.167 HD
HETATM    5  C8  UNL     1      46.305  51.612  33.362  1.00  0.00     0.102 A
HETATM    6  C9  UNL     1      45.982  51.281  32.039  1.00  0.00     0.186 A
HETATM    7  F1  UNL     1      45.045  51.947  31.362  1.00  0.00    -0.200 F
HETATM    8  C10 UNL     1      46.668  50.238  31.452  1.00  0.00     0.190 A
HETATM    9  F2  UNL     1      46.422  49.846  30.170  1.00  0.00    -0.200 F
HETATM   10  C11 UNL     1      47.638  49.542  32.140  1.00  0.00     0.112 A
HETATM   11  C18 UNL     1      47.957  49.872  33.452  1.00  0.00     0.072 A
HETATM   12  C19 UNL     1      47.275  50.918  34.052  1.00  0.00     0.068 A
ENDROOT
BRANCH   1  13
HETATM   13  C6  UNL     1      48.281  51.015  36.361  1.00  0.00     0.091 C
HETATM   14  C5  UNL     1      49.552  51.820  36.360  1.00  0.00     0.026 C
HETATM   15  C4  UNL     1      49.551  52.990  37.286  1.00  0.00     0.003 C
HETATM   16  C3  UNL     1      49.384  52.563  38.751  1.00  0.00     0.013 C
HETATM   17  C2  UNL     1      48.811  51.173  38.718  1.00  0.00     0.064 C
HETATM   18  C20 UNL     1      47.647  51.096  37.714  1.00  0.00     0.038 C
BRANCH  17  19
HETATM   19  C1  UNL     1      48.440  50.643  40.027  1.00  0.00     0.139 C
BRANCH  19  20
HETATM   20  N1  UNL     1      49.095  50.861  41.074  1.00  0.00    -0.251 N
ATOM     21  H1  UNL     1      48.648  51.514  41.718  1.00  0.00     0.196 HD
BRANCH  20  22
HETATM   22  O1  UNL     1      50.270  50.396  41.498  1.00  0.00    -0.288 OA
ATOM     23  H1  UNL     1      50.872  50.711  42.162  1.00  0.00     0.244 HD
ENDBRANCH  20  22
ENDBRANCH  19  20
BRANCH  19  24
HETATM   24  O2  UNL     1      47.276  49.847  40.069  1.00  0.00    -0.348 OA
ATOM     25  H2  UNL     1      46.568  50.001  39.455  1.00  0.00     0.219 HD
ENDBRANCH  19  24
ENDBRANCH  17  19
ENDBRANCH   1  13
BRANCH  10  26
HETATM   26  O3  UNL     1      48.306  48.512  31.539  1.00  0.00    -0.347 OA
BRANCH  26  27
HETATM   27  C12 UNL     1      49.721  48.417  31.576  1.00  0.00     0.180 C
BRANCH  27  28
HETATM   28  C13 UNL     1      50.159  47.011  31.908  1.00  0.00     0.014 C
HETATM   29  C14 UNL     1      51.641  46.834  31.701  1.00  0.00     0.033 C
HETATM   30  C15 UNL     1      52.057  45.410  31.540  1.00  0.00     0.168 C
HETATM   31  O4  UNL     1      51.346  44.738  30.554  1.00  0.00    -0.391 OA
HETATM   32  C16 UNL     1      50.398  45.550  29.943  1.00  0.00     0.168 C
HETATM   33  C17 UNL     1      49.438  46.046  31.018  1.00  0.00     0.033 C
ENDBRANCH  27  28
ENDBRANCH  26  27
ENDBRANCH  10  26
TORSDOF 8
ENDMDL