MODEL 5
REMARK VINA RESULT: -7.244712392      3.246      5.079
REMARK  9 active torsions:
REMARK  status: ('A' for Active; 'I' for Inactive)
REMARK    1  A    between atoms: C4_7  and  S1_8
REMARK    2  A    between atoms: S1_8  and  C5_9
REMARK    3  A    between atoms: C5_9  and  N4_18
REMARK    4  A    between atoms: N3_10  and  C6_12
REMARK    5  A    between atoms: C6_12  and  C7_13
REMARK    6  A    between atoms: C7_13  and  C8_14
REMARK    7  A    between atoms: N4_18  and  C9_20
REMARK    8  A    between atoms: C13_24  and  N5_25
REMARK       I    between atoms: N5_25  and  C14_27
REMARK    9  A    between atoms: C14_27  and  C15_29
ROOT
HETATM    1  C1  UNL     1      44.638  51.179  33.609  1.00  0.00     0.072 C
HETATM    2  C2  UNL     1      45.921  51.139  32.824  1.00  0.00     0.051 A
HETATM    3  N1  UNL     1      46.043  51.080  31.489  1.00  0.00    -0.300 N
ATOM      4  H1  UNL     1      45.263  51.055  30.832  1.00  0.00     0.187 HD
HETATM    5  N2  UNL     1      47.319  51.059  31.148  1.00  0.00    -0.287 N
HETATM    6  C3  UNL     1      47.752  50.998  29.763  1.00  0.00     0.178 C
HETATM    7  C4  UNL     1      48.065  51.103  32.256  1.00  0.00     0.123 A
HETATM    8  C13 UNL     1      47.215  51.154  33.332  1.00  0.00     0.094 A
ENDROOT
BRANCH   7   9
HETATM    9  S1  UNL     1      49.836  51.098  32.350  1.00  0.00    -0.033 SA
BRANCH   9  10
HETATM   10  C5  UNL     1      50.462  49.497  32.835  1.00  0.00     0.143 C
HETATM   11  N3  UNL     1      51.676  49.432  33.264  1.00  0.00    -0.370 N
ATOM     12  H3  UNL     1      52.041  48.521  33.543  1.00  0.00     0.161 HD
BRANCH  11  13
HETATM   13  C6  UNL     1      52.546  50.576  33.371  1.00  0.00     0.130 C
BRANCH  13  14
HETATM   14  C7  UNL     1      53.033  50.811  34.772  1.00  0.00     0.137 C
BRANCH  14  15
HETATM   15  C8  UNL     1      52.202  51.891  35.405  1.00  0.00     0.389 C
HETATM   16  F1  UNL     1      51.011  51.331  35.888  1.00  0.00    -0.171 F
HETATM   17  F2  UNL     1      51.930  52.858  34.461  1.00  0.00    -0.171 F
HETATM   18  F3  UNL     1      52.891  52.483  36.450  1.00  0.00    -0.171 F
ENDBRANCH  14  15
ENDBRANCH  13  14
ENDBRANCH  11  13
BRANCH  10  19
HETATM   19  N4  UNL     1      49.688  48.305  32.770  1.00  0.00    -0.363 N
ATOM     20  H4  UNL     1      48.964  48.173  33.476  1.00  0.00     0.162 HD
BRANCH  19  21
HETATM   21  C9  UNL     1      49.850  47.285  31.794  1.00  0.00     0.021 C
HETATM   22  C10 UNL     1      48.875  46.165  32.072  1.00  0.00     0.037 C
HETATM   23  C11 UNL     1      51.237  46.694  31.758  1.00  0.00     0.037 C
HETATM   24  C12 UNL     1      49.487  47.843  30.420  1.00  0.00     0.037 C
ENDBRANCH  19  21
ENDBRANCH  10  19
ENDBRANCH   9  10
ENDBRANCH   7   9
BRANCH   8  25
HETATM   25  N5  UNL     1      47.515  51.211  34.719  1.00  0.00    -0.317 N
HETATM   26  C14 UNL     1      47.723  50.029  35.479  1.00  0.00     0.280 C
HETATM   27  O1  UNL     1      47.638  48.933  34.908  1.00  0.00    -0.265 OA
ATOM     28  H5  UNL     1      47.581  52.119  35.178  1.00  0.00     0.169 HD
BRANCH  26  29
HETATM   29  C15 UNL     1      48.032  50.098  36.916  1.00  0.00     0.142 A
HETATM   30  C16 UNL     1      47.946  51.210  37.698  1.00  0.00     0.045 A
HETATM   31  C17 UNL     1      48.321  50.855  38.984  1.00  0.00     0.027 A
HETATM   32  C18 UNL     1      48.624  49.505  38.909  1.00  0.00     0.143 A
HETATM   33  O2  UNL     1      48.437  49.110  37.671  1.00  0.00    -0.317 OA
ENDBRANCH  26  29
ENDBRANCH   8  25
TORSDOF 9
ENDMDL