MODEL 3
REMARK VINA RESULT: -7.474868506      1.470      1.605
REMARK  5 active torsions:
REMARK  status: ('A' for Active; 'I' for Inactive)
REMARK    1  A    between atoms: N1_2  and  C3_4
REMARK    2  A    between atoms: C6_7  and  C7_8
REMARK    3  A    between atoms: C8_9  and  N2_10
REMARK       I    between atoms: N2_10  and  C9_12
REMARK    4  A    between atoms: C9_12  and  C10_14
REMARK    5  A    between atoms: C10_14  and  C11_15
ROOT
HETATM    1  C7  UNL     1      48.778  51.828  34.580  1.00  0.00     0.045 A
HETATM    2  C8  UNL     1      48.028  50.972  35.327  1.00  0.00     0.093 A
HETATM    3  S1  UNL     1      46.418  51.219  34.736  1.00  0.00    -0.044 SA
HETATM    4  C13 UNL     1      46.777  52.407  33.559  1.00  0.00     0.140 A
HETATM    5  C14 UNL     1      48.130  52.577  33.656  1.00  0.00     0.090 A
HETATM    6  N3  UNL     1      48.637  53.508  32.698  1.00  0.00    -0.322 N
ATOM      7  H3  UNL     1      49.636  53.710  32.675  1.00  0.00     0.169 HD
HETATM    8  C15 UNL     1      47.772  54.158  31.777  1.00  0.00     0.246 C
HETATM    9  O2  UNL     1      48.150  55.217  31.176  1.00  0.00    -0.271 OA
HETATM   10  C16 UNL     1      46.436  53.657  31.479  1.00  0.00     0.279 C
HETATM   11  O3  UNL     1      45.940  53.086  32.674  1.00  0.00    -0.332 OA
ENDROOT
BRANCH   2  12
HETATM   12  N2  UNL     1      48.334  50.066  36.390  1.00  0.00    -0.320 N
HETATM   13  C9  UNL     1      48.384  50.579  37.740  1.00  0.00     0.228 C
HETATM   14  O1  UNL     1      48.168  51.786  37.996  1.00  0.00    -0.273 OA
ATOM     15  H2  UNL     1      48.513  49.079  36.200  1.00  0.00     0.169 HD
BRANCH  13  16
HETATM   16  C10 UNL     1      48.697  49.658  38.828  1.00  0.00     0.181 C
BRANCH  16  17
HETATM   17  C11 UNL     1      48.208  50.189  40.157  1.00  0.00     0.248 C
HETATM   18  C12 UNL     1      48.715  49.218  41.222  1.00  0.00     0.090 C
HETATM   19  F1  UNL     1      46.836  50.228  40.131  1.00  0.00    -0.206 F
HETATM   20  F2  UNL     1      48.707  51.454  40.402  1.00  0.00    -0.206 F
ENDBRANCH  16  17
ENDBRANCH  13  16
ENDBRANCH   2  12
BRANCH   1  21
HETATM   21  C6  UNL     1      50.256  51.834  34.774  1.00  0.00     0.022 A
HETATM   22  C5  UNL     1      51.003  52.327  35.802  1.00  0.00     0.023 A
HETATM   23  C4  UNL     1      52.332  52.134  35.768  1.00  0.00     0.038 A
HETATM   24  C3  UNL     1      52.847  51.456  34.708  1.00  0.00     0.072 A
HETATM   25  S2  UNL     1      51.459  51.107  33.788  1.00  0.00    -0.072 SA
BRANCH  24  26
HETATM   26  N1  UNL     1      54.230  51.124  34.442  1.00  0.00    -0.384 N
HETATM   27  C1  UNL     1      54.746  49.818  34.716  1.00  0.00     0.149 C
HETATM   28  C2  UNL     1      55.063  52.168  33.894  1.00  0.00     0.149 C
ENDBRANCH  24  26
ENDBRANCH   1  21
TORSDOF 5
ENDMDL