MODEL 4
REMARK VINA RESULT: -5.264046860      2.617      3.746
REMARK  5 active torsions:
REMARK  status: ('A' for Active; 'I' for Inactive)
REMARK    1  A    between atoms: S1_2  and  C2_3
REMARK    2  A    between atoms: C3_4  and  O1_5
REMARK    3  A    between atoms: C4_7  and  C5_8
REMARK    4  A    between atoms: C5_8  and  O2_9
REMARK    5  A    between atoms: C5_8  and  O3_11
ROOT
HETATM    1  C2  UNL     1      56.362  50.988  36.976  1.00  0.00     0.085 C
HETATM    2  C3  UNL     1      56.278  50.166  38.272  1.00  0.00     0.142 C
HETATM    3  C4  UNL     1      57.338  51.091  38.774  1.00  0.00     0.080 C
HETATM    4  C6  UNL     1      57.822  51.249  37.385  1.00  0.00    -0.015 C
HETATM    5  C7  UNL     1      58.703  50.234  36.776  1.00  0.00     0.011 C
HETATM    6  C8  UNL     1      60.159  50.708  36.645  1.00  0.00     0.001 C
HETATM    7  C9  UNL     1      60.196  51.880  35.683  1.00  0.00     0.000 C
HETATM    8  C10 UNL     1      59.059  52.827  35.860  1.00  0.00     0.001 C
HETATM    9  C11 UNL     1      58.281  52.653  37.118  1.00  0.00     0.011 C
ENDROOT
BRANCH   3  10
HETATM   10  C5  UNL     1      58.234  50.633  39.845  1.00  0.00     0.261 C
BRANCH  10  11
HETATM   11  O2  UNL     1      58.673  51.771  40.560  1.00  0.00    -0.371 OA
ATOM     12  H2  UNL     1      59.206  51.471  41.287  1.00  0.00     0.212 HD
ENDBRANCH  10  11
BRANCH  10  13
HETATM   13  O3  UNL     1      57.744  49.751  40.750  1.00  0.00    -0.371 OA
ATOM     14  H3  UNL     1      56.890  49.926  41.126  1.00  0.00     0.212 HD
ENDBRANCH  10  13
ENDBRANCH   3  10
BRANCH   2  15
HETATM   15  O1  UNL     1      55.026  50.341  38.870  1.00  0.00    -0.394 OA
ATOM     16  H1  UNL     1      54.857  49.636  39.484  1.00  0.00     0.210 HD
ENDBRANCH   2  15
BRANCH   1  17
HETATM   17  S1  UNL     1      56.157  49.912  35.565  1.00  0.00    -0.165 SA
HETATM   18  C1  UNL     1      54.412  49.496  35.342  1.00  0.00     0.090 C
ENDBRANCH   1  17
TORSDOF 5
ENDMDL