MODEL 1
REMARK VINA RESULT: -7.169230782      0.000      0.000
REMARK  4 active torsions:
REMARK  status: ('A' for Active; 'I' for Inactive)
REMARK    1  A    between atoms: C5_5  and  N1_6
REMARK    2  A    between atoms: C8_11  and  C9_12
REMARK    3  A    between atoms: C9_12  and  O1_13
REMARK    4  A    between atoms: N3_15  and  O2_17
ROOT
HETATM    1  N1  UNL     1      57.092  50.231  36.478  1.00  0.00    -0.365 N
HETATM    2  C6  UNL     1      57.252  50.265  37.872  1.00  0.00     0.083 C
HETATM    3  C7  UNL     1      56.241  51.044  38.647  1.00  0.00     0.160 C
HETATM    4  N2  UNL     1      55.209  51.613  37.832  1.00  0.00    -0.402 N
ATOM      5  H2  UNL     1      54.862  52.561  37.971  1.00  0.00     0.154 HD
HETATM    6  C8  UNL     1      54.701  50.748  36.806  1.00  0.00     0.193 C
HETATM    7  C10 UNL     1      55.797  50.086  36.001  1.00  0.00     0.096 C
ENDROOT
BRANCH   1   8
HETATM    8  C5  UNL     1      58.138  50.770  35.753  1.00  0.00     0.088 C
HETATM    9  C4  UNL     1      59.421  50.694  36.561  1.00  0.00     0.026 C
HETATM   10  C3  UNL     1      60.193  49.489  36.004  1.00  0.00     0.006 C
HETATM   11  C2  UNL     1      60.813  49.907  34.705  1.00  0.00    -0.019 C
HETATM   12  C1  UNL     1      62.011  50.771  35.026  1.00  0.00     0.010 C
HETATM   13  C12 UNL     1      59.757  50.698  33.919  1.00  0.00     0.006 C
HETATM   14  C11 UNL     1      58.382  50.244  34.377  1.00  0.00     0.026 C
ENDBRANCH   1   8
BRANCH   6  15
HETATM   15  C9  UNL     1      53.852  49.719  37.460  1.00  0.00     0.163 C
HETATM   16  N3  UNL     1      52.641  49.956  37.836  1.00  0.00    -0.249 N
ATOM     17  H3  UNL     1      52.260  50.887  37.675  1.00  0.00     0.196 HD
BRANCH  15  18
HETATM   18  O1  UNL     1      54.347  48.438  37.696  1.00  0.00    -0.346 OA
ATOM     19  H1  UNL     1      54.217  48.018  38.538  1.00  0.00     0.219 HD
ENDBRANCH  15  18
BRANCH  16  20
HETATM   20  O2  UNL     1      51.843  49.028  38.438  1.00  0.00    -0.288 OA
ATOM     21  H2  UNL     1      50.987  48.778  38.110  1.00  0.00     0.244 HD
ENDBRANCH  16  20
ENDBRANCH   6  15
TORSDOF 4
ENDMDL