MODEL 2
REMARK VINA RESULT: -6.398563000      1.956      4.562
REMARK  4 active torsions:
REMARK  status: ('A' for Active; 'I' for Inactive)
REMARK    1  A    between atoms: C2_2  and  O1_5
REMARK    2  A    between atoms: O1_5  and  C5_6
REMARK    3  A    between atoms: C5_6  and  N1_7
REMARK    4  A    between atoms: C5_6  and  C6_11
REMARK       I    between atoms: N3_18  and  C12_19
ROOT
HETATM    1  C6  UNL     1      56.277  50.995  36.434  1.00  0.00     0.144 C
HETATM    2  C7  UNL     1      55.422  51.126  37.671  1.00  0.00     0.030 C
HETATM    3  C8  UNL     1      56.158  50.756  38.931  1.00  0.00     0.005 C
HETATM    4  C9  UNL     1      57.443  51.522  39.103  1.00  0.00     0.040 C
HETATM    5  C10 UNL     1      57.906  52.178  37.832  1.00  0.00     0.195 C
HETATM    6  C11 UNL     1      59.303  52.525  37.861  1.00  0.00     0.084 C
HETATM    7  N2  UNL     1      60.436  52.793  37.873  1.00  0.00    -0.195 NA
HETATM    8  N3  UNL     1      57.670  51.202  36.754  1.00  0.00    -0.330 N
HETATM    9  C12 UNL     1      58.747  50.557  36.125  1.00  0.00     0.185 C
HETATM   10  N4  UNL     1      59.021  50.808  34.896  1.00  0.00    -0.374 N
ATOM     11  H41 UNL     1      59.803  50.339  34.439  1.00  0.00     0.158 HD
ATOM     12  H42 UNL     1      58.440  51.483  34.398  1.00  0.00     0.158 HD
HETATM   13  N5  UNL     1      59.552  49.620  36.815  1.00  0.00    -0.064 NA
ENDROOT
BRANCH   1  14
HETATM   14  C5  UNL     1      56.028  49.704  35.698  1.00  0.00     0.342 C
BRANCH  14  15
HETATM   15  O1  UNL     1      55.902  49.987  34.371  1.00  0.00    -0.348 OA
BRANCH  15  16
HETATM   16  C2  UNL     1      56.170  48.977  33.502  1.00  0.00     0.053 C
HETATM   17  C1  UNL     1      57.008  47.903  34.111  1.00  0.00     0.045 C
HETATM   18  C3  UNL     1      56.980  49.572  32.342  1.00  0.00     0.045 C
HETATM   19  C4  UNL     1      54.949  48.344  32.879  1.00  0.00     0.045 C
ENDBRANCH  15  16
ENDBRANCH  14  15
BRANCH  14  20
HETATM   20  N1  UNL     1      54.728  49.192  36.160  1.00  0.00    -0.051 N
ATOM     21  H13 UNL     1      54.641  49.181  37.176  1.00  0.00     0.277 HD
ATOM     22  H12 UNL     1      53.957  49.830  35.969  1.00  0.00     0.277 HD
ATOM     23  H11 UNL     1      54.599  48.272  35.739  1.00  0.00     0.277 HD
ENDBRANCH  14  20
ENDBRANCH   1  14
TORSDOF 4
ENDMDL