MODEL 3
REMARK VINA RESULT: -6.299741016      1.855      6.492
REMARK  2 active torsions:
REMARK  status: ('A' for Active; 'I' for Inactive)
REMARK    1  A    between atoms: C2_2  and  C3_3
REMARK    2  A    between atoms: C3_3  and  N1_4
ROOT
HETATM    1  N1  UNL     1      59.598  51.454  41.699  1.00  0.00    -0.356 N
HETATM    2  C4  UNL     1      59.595  52.276  40.505  1.00  0.00     0.129 C
HETATM    3  C5  UNL     1      58.262  52.045  39.842  1.00  0.00     0.074 C
HETATM    4  C6  UNL     1      58.061  50.579  39.481  1.00  0.00     0.117 C
HETATM    5  C7  UNL     1      59.038  50.254  38.305  1.00  0.00     0.133 C
HETATM    6  C8  UNL     1      58.180  50.190  37.205  1.00  0.00    -0.178 C
HETATM    7  C9  UNL     1      57.379  50.115  36.061  1.00  0.00     0.087 C
HETATM    8  C10 UNL     1      55.962  50.423  36.636  1.00  0.00     0.087 C
HETATM    9  C11 UNL     1      55.827  50.431  38.064  1.00  0.00     0.073 C
HETATM   10  N2  UNL     1      54.562  50.409  38.416  1.00  0.00    -0.389 N
ATOM     11  H21 UNL     1      54.466  50.414  39.432  1.00  0.00     0.157 HD
ATOM     12  H22 UNL     1      53.946  50.397  37.603  1.00  0.00     0.157 HD
HETATM   13  N3  UNL     1      56.683  50.447  39.194  1.00  0.00    -0.353 N
ATOM     14  H3  UNL     1      56.146  50.329  40.053  1.00  0.00     0.163 HD
HETATM   15  N4  UNL     1      58.447  49.703  40.522  1.00  0.00    -0.337 N
ATOM     16  H4  UNL     1      58.166  48.724  40.479  1.00  0.00     0.164 HD
HETATM   17  C12 UNL     1      59.130  50.103  41.502  1.00  0.00     0.188 C
HETATM   18  N5  UNL     1      59.528  49.195  42.554  1.00  0.00    -0.064 NA
ENDROOT
BRANCH   1  19
HETATM   19  C3  UNL     1      60.047  51.927  42.966  1.00  0.00     0.125 C
BRANCH  19  20
HETATM   20  C2  UNL     1      59.017  52.747  43.719  1.00  0.00     0.015 C
HETATM   21  C1  UNL     1      58.501  51.913  44.871  1.00  0.00     0.006 C
ENDBRANCH  19  20
ENDBRANCH   1  19
TORSDOF 2
ENDMDL