MODEL 2
REMARK VINA RESULT: -6.002319753      1.806      5.423
REMARK  5 active torsions:
REMARK  status: ('A' for Active; 'I' for Inactive)
REMARK    1  A    between atoms: O1_1  and  C1_3
REMARK    2  A    between atoms: C1_3  and  C2_4
REMARK    3  A    between atoms: C2_4  and  C3_5
REMARK    4  A    between atoms: C9_12  and  O3_13
REMARK    5  A    between atoms: C10_15  and  O4_16
ROOT
HETATM    1  C3  UNL     1      55.413  50.036  37.730  1.00  0.00    -0.008 C
HETATM    2  C4  UNL     1      55.530  51.211  38.656  1.00  0.00     0.031 C
HETATM    3  C5  UNL     1      56.964  51.267  39.161  1.00  0.00     0.169 C
HETATM    4  O2  UNL     1      57.823  50.534  38.376  1.00  0.00    -0.380 OA
HETATM    5  C6  UNL     1      57.653  50.694  37.005  1.00  0.00     0.064 C
HETATM    6  C7  UNL     1      57.935  52.092  36.567  1.00  0.00     0.041 C
HETATM    7  C8  UNL     1      59.394  52.374  36.344  1.00  0.00     0.037 C
HETATM    8  C9  UNL     1      60.010  51.456  35.322  1.00  0.00     0.147 C
HETATM    9  C10 UNL     1      59.194  50.206  35.087  1.00  0.00     0.149 C
HETATM   10  C11 UNL     1      58.619  49.686  36.379  1.00  0.00     0.072 C
HETATM   11  C12 UNL     1      56.267  50.333  36.520  1.00  0.00     0.043 C
ENDROOT
BRANCH   9  12
HETATM   12  O4  UNL     1      58.231  50.370  34.118  1.00  0.00    -0.393 OA
ATOM     13  H4  UNL     1      57.568  51.007  34.358  1.00  0.00     0.210 HD
ENDBRANCH   9  12
BRANCH   1  14
HETATM   14  C2  UNL     1      54.024  49.647  37.364  1.00  0.00     0.031 C
BRANCH  14  15
HETATM   15  C1  UNL     1      53.052  49.639  38.510  1.00  0.00     0.164 C
BRANCH  15  16
HETATM   16  O1  UNL     1      51.862  49.009  38.247  1.00  0.00    -0.401 OA
ATOM     17  H1  UNL     1      51.685  48.252  38.792  1.00  0.00     0.209 HD
ENDBRANCH  15  16
ENDBRANCH  14  15
ENDBRANCH   1  14
BRANCH   8  18
HETATM   18  O3  UNL     1      61.259  51.070  35.820  1.00  0.00    -0.393 OA
ATOM     19  H3  UNL     1      61.122  50.279  36.328  1.00  0.00     0.210 HD
ENDBRANCH   8  18
TORSDOF 5
ENDMDL