MODEL 4
REMARK VINA RESULT: -6.277661624      2.074      2.466
REMARK  5 active torsions:
REMARK  status: ('A' for Active; 'I' for Inactive)
REMARK    1  A    between atoms: O1_1  and  C1_3
REMARK    2  A    between atoms: C1_3  and  C2_4
REMARK    3  A    between atoms: C3_6  and  O3_7
REMARK    4  A    between atoms: C4_9  and  C5_10
REMARK    5  A    between atoms: C13_18  and  O4_19
ROOT
HETATM    1  C2  UNL     1      54.875  50.545  35.937  1.00  0.00     0.180 C
HETATM    2  O2  UNL     1      56.144  50.872  36.309  1.00  0.00    -0.351 OA
HETATM    3  C3  UNL     1      56.998  49.829  36.551  1.00  0.00     0.265 C
HETATM    4  C4  UNL     1      57.873  49.446  35.418  1.00  0.00     0.067 C
HETATM    5  C11 UNL     1      57.040  49.090  34.249  1.00  0.00    -0.018 C
HETATM    6  C12 UNL     1      55.712  49.014  34.150  1.00  0.00     0.004 C
HETATM    7  C13 UNL     1      54.703  49.271  35.201  1.00  0.00     0.171 C
ENDROOT
BRANCH   4   8
HETATM    8  C5  UNL     1      58.913  50.416  35.008  1.00  0.00    -0.002 C
HETATM    9  C6  UNL     1      58.988  50.675  33.524  1.00  0.00     0.005 C
HETATM   10  C7  UNL     1      59.925  51.882  33.363  1.00  0.00     0.000 C
HETATM   11  C8  UNL     1      61.301  51.409  33.693  1.00  0.00     0.000 C
HETATM   12  C9  UNL     1      61.344  50.114  34.437  1.00  0.00     0.000 C
HETATM   13  C10 UNL     1      60.288  50.148  35.550  1.00  0.00     0.005 C
ENDBRANCH   4   8
BRANCH   3  14
HETATM   14  O3  UNL     1      57.750  49.978  37.723  1.00  0.00    -0.371 OA
ATOM     15  H3  UNL     1      58.316  49.238  37.910  1.00  0.00     0.212 HD
ENDBRANCH   3  14
BRANCH   1  16
HETATM   16  C1  UNL     1      54.003  50.501  37.180  1.00  0.00     0.199 C
BRANCH  16  17
HETATM   17  O1  UNL     1      53.295  49.317  37.289  1.00  0.00    -0.398 OA
ATOM     18  H1  UNL     1      52.926  49.035  36.461  1.00  0.00     0.209 HD
ENDBRANCH  16  17
ENDBRANCH   1  16
BRANCH   7  19
HETATM   19  O4  UNL     1      53.454  49.346  34.535  1.00  0.00    -0.389 OA
ATOM     20  H4  UNL     1      53.380  48.564  34.000  1.00  0.00     0.210 HD
ENDBRANCH   7  19
TORSDOF 5
ENDMDL