MODEL 5
REMARK VINA RESULT: -6.934221467      1.202      1.609
REMARK  3 active torsions:
REMARK  status: ('A' for Active; 'I' for Inactive)
REMARK    1  A    between atoms: N1_1  and  C1_4
REMARK    2  A    between atoms: C2_7  and  C3_8
REMARK    3  A    between atoms: N3_11  and  N4_12
ROOT
HETATM    1  C3  UNL     1      56.546  50.493  38.735  1.00  0.00     0.076 C
HETATM    2  C4  UNL     1      55.462  51.534  38.679  1.00  0.00     0.035 C
HETATM    3  C5  UNL     1      54.731  51.168  37.399  1.00  0.00     0.143 C
HETATM    4  N3  UNL     1      55.627  50.300  36.661  1.00  0.00    -0.327 N
HETATM    5  C11 UNL     1      56.973  50.418  37.273  1.00  0.00     0.154 C
ENDROOT
BRANCH   1   6
HETATM    6  C2  UNL     1      57.661  50.863  39.613  1.00  0.00     0.118 A
HETATM    7  N2  UNL     1      58.136  52.070  39.958  1.00  0.00    -0.178 N
HETATM    8  C1  UNL     1      59.179  51.932  40.791  1.00  0.00     0.691 A
ATOM      9  H2  UNL     1      57.760  52.960  39.634  1.00  0.00     0.185 HD
HETATM   10  N6  UNL     1      59.360  50.616  40.970  1.00  0.00    -0.131 N
HETATM   11  N5  UNL     1      58.448  49.986  40.262  1.00  0.00    -0.274 N
ATOM     12  H6  UNL     1      60.077  50.181  41.552  1.00  0.00     0.205 HD
ATOM     13  H5  UNL     1      58.351  48.971  40.211  1.00  0.00     0.189 HD
BRANCH   8  14
HETATM   14  N1  UNL     1      59.904  52.868  41.342  1.00  0.00    -0.233 N
ATOM     15  H12 UNL     1      60.605  53.426  40.854  1.00  0.00     0.174 HD
ATOM     16  H11 UNL     1      59.895  53.187  42.311  1.00  0.00     0.174 HD
ENDBRANCH   8  14
ENDBRANCH   1   6
BRANCH   4  17
HETATM   17  N4  UNL     1      55.391  49.478  35.591  1.00  0.00    -0.311 N
HETATM   18  C6  UNL     1      56.008  49.258  34.527  1.00  0.00     0.003 C
HETATM   19  C7  UNL     1      55.560  48.304  33.478  1.00  0.00     0.054 C
HETATM   20  C10 UNL     1      57.262  49.833  34.030  1.00  0.00     0.054 C
HETATM   21  C8  UNL     1      56.843  47.692  33.002  1.00  0.00     0.006 C
HETATM   22  C9  UNL     1      57.960  48.581  33.467  1.00  0.00     0.006 C
ATOM     23  H4  UNL     1      54.533  48.933  35.681  1.00  0.00     0.186 HD
ENDBRANCH   4  17
TORSDOF 3
ENDMDL