MODEL 4
REMARK VINA RESULT: -5.856133876      2.384      4.663
REMARK  4 active torsions:
REMARK  status: ('A' for Active; 'I' for Inactive)
REMARK    1  A    between atoms: C2_4  and  C3_5
REMARK    2  A    between atoms: C4_6  and  C5_7
REMARK    3  A    between atoms: C5_7  and  O1_8
REMARK    4  A    between atoms: C8_13  and  O3_14
ROOT
HETATM    1  C3  UNL     1      58.535  51.342  35.552  1.00  0.00     0.065 C
HETATM    2  C4  UNL     1      58.642  50.005  34.898  1.00  0.00     0.155 C
HETATM    3  O2  UNL     1      57.676  49.178  35.421  1.00  0.00    -0.377 OA
HETATM    4  C6  UNL     1      57.043  49.829  36.457  1.00  0.00     0.133 C
HETATM    5  C7  UNL     1      55.747  50.475  36.014  1.00  0.00     0.064 C
HETATM    6  C8  UNL     1      54.701  50.462  37.110  1.00  0.00     0.120 C
HETATM    7  C9  UNL     1      54.994  51.527  38.137  1.00  0.00     0.032 C
HETATM    8  C10 UNL     1      56.391  51.436  38.683  1.00  0.00     0.003 C
HETATM    9  C11 UNL     1      57.330  52.021  37.649  1.00  0.00     0.012 C
HETATM   10  C12 UNL     1      57.982  50.917  36.917  1.00  0.00    -0.007 C
HETATM   11  C13 UNL     1      59.082  50.317  37.736  1.00  0.00     0.018 C
ENDROOT
BRANCH   1  12
HETATM   12  C2  UNL     1      59.771  52.093  35.653  1.00  0.00     0.063 C
HETATM   13  N1  UNL     1      59.851  53.286  35.215  1.00  0.00    -0.406 N
HETATM   14  C1  UNL     1      61.020  54.099  35.270  1.00  0.00     0.145 C
ATOM     15  H1  UNL     1      59.016  53.690  34.792  1.00  0.00     0.158 HD
ENDBRANCH   1  12
BRANCH   2  16
HETATM   16  C5  UNL     1      58.522  50.094  33.383  1.00  0.00     0.196 C
BRANCH  16  17
HETATM   17  O1  UNL     1      57.454  49.338  32.936  1.00  0.00    -0.398 OA
ATOM     18  H1  UNL     1      56.919  49.053  33.668  1.00  0.00     0.209 HD
ENDBRANCH  16  17
ENDBRANCH   2  16
BRANCH   6  19
HETATM   19  O3  UNL     1      53.491  50.854  36.489  1.00  0.00    -0.395 OA
ATOM     20  H3  UNL     1      53.204  51.630  36.955  1.00  0.00     0.210 HD
ENDBRANCH   6  19
TORSDOF 4
ENDMDL