MODEL 5
REMARK VINA RESULT: -5.931504078      2.817      5.025
REMARK  6 active torsions:
REMARK  status: ('A' for Active; 'I' for Inactive)
REMARK    1  A    between atoms: N1_1  and  C1_5
REMARK    2  A    between atoms: N2_8  and  C4_9
REMARK    3  A    between atoms: C4_9  and  O1_10
REMARK    4  A    between atoms: C4_9  and  C5_12
REMARK    5  A    between atoms: C5_12  and  C6_13
REMARK    6  A    between atoms: C6_13  and  O2_14
ROOT
HETATM    1  C4  UNL     1      57.816  49.221  34.978  1.00  0.00     0.218 C
ENDROOT
BRANCH   1   2
HETATM    2  N2  UNL     1      56.565  49.881  35.209  1.00  0.00    -0.387 N
HETATM    3  C3  UNL     1      56.460  50.641  36.400  1.00  0.00     0.121 C
HETATM    4  C2  UNL     1      55.613  49.866  37.401  1.00  0.00     0.052 C
HETATM    5  C1  UNL     1      54.218  49.735  36.828  1.00  0.00     0.186 C
HETATM    6  C13 UNL     1      54.194  49.937  35.324  1.00  0.00     0.052 C
HETATM    7  C12 UNL     1      55.400  49.214  34.755  1.00  0.00     0.121 C
BRANCH   5   8
HETATM    8  N1  UNL     1      53.268  50.602  37.496  1.00  0.00    -0.075 N
ATOM      9  H13 UNL     1      53.305  51.549  37.120  1.00  0.00     0.274 HD
ATOM     10  H12 UNL     1      52.309  50.365  37.243  1.00  0.00     0.274 HD
ATOM     11  H11 UNL     1      53.393  50.602  38.509  1.00  0.00     0.274 HD
ENDBRANCH   5   8
ENDBRANCH   1   2
BRANCH   1  12
HETATM   12  O1  UNL     1      57.527  47.955  34.510  1.00  0.00    -0.377 OA
ATOM     13  H1  UNL     1      58.203  47.374  34.839  1.00  0.00     0.212 HD
ENDBRANCH   1  12
BRANCH   1  14
HETATM   14  C5  UNL     1      58.606  50.050  34.011  1.00  0.00     0.091 C
BRANCH  14  15
HETATM   15  C6  UNL     1      60.019  50.313  34.418  1.00  0.00     0.062 C
HETATM   16  C7  UNL     1      59.935  51.391  35.517  1.00  0.00     0.038 C
HETATM   17  C8  UNL     1      60.985  51.164  36.581  1.00  0.00     0.003 C
HETATM   18  C9  UNL     1      62.323  50.859  35.918  1.00  0.00     0.000 C
HETATM   19  C10 UNL     1      62.197  49.561  35.180  1.00  0.00     0.003 C
HETATM   20  C11 UNL     1      60.735  49.162  35.023  1.00  0.00     0.038 C
BRANCH  15  21
HETATM   21  O2  UNL     1      60.767  50.912  33.399  1.00  0.00    -0.390 OA
ATOM     22  H2  UNL     1      61.066  50.286  32.751  1.00  0.00     0.210 HD
ENDBRANCH  15  21
ENDBRANCH  14  15
ENDBRANCH   1  14
TORSDOF 6
ENDMDL