MODEL 3
REMARK VINA RESULT: -6.844230746      0.293      1.951
REMARK  2 active torsions:
REMARK  status: ('A' for Active; 'I' for Inactive)
REMARK    1  A    between atoms: C5_9  and  C6_10
REMARK    2  A    between atoms: C7_15  and  C8_16
ROOT
HETATM    1  C6  UNL     1      57.173  50.238  36.134  1.00  0.00     0.135 A
HETATM    2  N3  UNL     1      58.232  50.887  35.616  1.00  0.00    -0.283 N
ATOM      3  H3  UNL     1      58.343  51.144  34.635  1.00  0.00     0.188 HD
HETATM    4  N4  UNL     1      59.110  51.139  36.580  1.00  0.00    -0.287 N
ATOM      5  H4  UNL     1      60.001  51.621  36.457  1.00  0.00     0.188 HD
HETATM    6  C7  UNL     1      58.644  50.667  37.727  1.00  0.00     0.103 A
HETATM    7  N6  UNL     1      57.453  50.112  37.456  1.00  0.00    -0.329 N
ATOM      8  H6  UNL     1      56.848  49.661  38.142  1.00  0.00     0.168 HD
ENDROOT
BRANCH   1   9
HETATM    9  C5  UNL     1      55.992  49.782  35.406  1.00  0.00     0.057 A
HETATM   10  C2  UNL     1      54.676  50.064  35.668  1.00  0.00     0.038 A
HETATM   11  C1  UNL     1      54.201  50.926  36.790  1.00  0.00     0.070 C
HETATM   12  N1  UNL     1      53.933  49.434  34.746  1.00  0.00    -0.304 N
HETATM   13  N2  UNL     1      54.696  48.759  33.904  1.00  0.00    -0.304 N
ATOM     14  H1  UNL     1      52.915  49.472  34.701  1.00  0.00     0.186 HD
HETATM   15  C3  UNL     1      55.970  48.952  34.282  1.00  0.00     0.038 A
ATOM     16  H2  UNL     1      54.377  48.197  33.114  1.00  0.00     0.186 HD
HETATM   17  C4  UNL     1      57.222  48.421  33.681  1.00  0.00     0.070 C
ENDBRANCH   1   9
BRANCH   6  18
HETATM   18  C8  UNL     1      59.340  50.756  39.038  1.00  0.00     0.082 C
HETATM   19  C9  UNL     1      59.003  52.023  39.775  1.00  0.00     0.041 C
HETATM   20  C10 UNL     1      59.335  51.632  41.200  1.00  0.00     0.233 C
HETATM   21  N5  UNL     1      59.081  50.225  41.328  1.00  0.00    -0.074 N
HETATM   22  C11 UNL     1      58.841  49.696  40.008  1.00  0.00     0.244 C
ATOM     23  H52 UNL     1      59.825  49.732  41.822  1.00  0.00     0.277 HD
ATOM     24  H51 UNL     1      58.324  50.018  41.979  1.00  0.00     0.277 HD
ENDBRANCH   6  18
TORSDOF 2
ENDMDL