MODEL 3
REMARK VINA RESULT: -11.989419754      0.828      1.077
REMARK  7 active torsions:
REMARK  status: ('A' for Active; 'I' for Inactive)
REMARK    1  A    between atoms: O1_1  and  C1_3
REMARK    2  A    between atoms: C1_3  and  C2_4
REMARK    3  A    between atoms: C1_3  and  N2_25
REMARK    4  A    between atoms: C2_4  and  C3_5
REMARK    5  A    between atoms: C6_8  and  N1_9
REMARK       I    between atoms: N1_9  and  C7_11
REMARK    6  A    between atoms: C7_11  and  C8_13
REMARK    7  A    between atoms: N2_25  and  C20_27
ROOT
HETATM    1  C3  UNL     1      12.653  25.312  33.433  1.00  0.00    -0.051 A
HETATM    2  C4  UNL     1      13.772  25.039  34.166  1.00  0.00     0.010 A
HETATM    3  C5  UNL     1      14.308  23.739  34.254  1.00  0.00     0.030 A
HETATM    4  C6  UNL     1      13.710  22.705  33.596  1.00  0.00     0.035 A
HETATM    5  C18 UNL     1      12.565  23.020  32.854  1.00  0.00     0.030 A
HETATM    6  C19 UNL     1      12.040  24.287  32.767  1.00  0.00     0.010 A
ENDROOT
BRANCH   1   7
HETATM    7  C2  UNL     1      12.091  26.682  33.341  1.00  0.00     0.123 C
BRANCH   7   8
HETATM    8  C1  UNL     1      10.758  26.698  33.964  1.00  0.00     0.135 C
BRANCH   8   9
HETATM    9  O1  UNL     1      10.709  26.394  35.237  1.00  0.00    -0.349 OA
ATOM     10  H1  UNL     1      11.488  25.994  35.605  1.00  0.00     0.219 HD
ENDBRANCH   8   9
BRANCH   8  11
HETATM   11  N2  UNL     1       9.527  26.991  33.399  1.00  0.00    -0.174 N
ATOM     12  H2  UNL     1       9.483  27.803  32.783  1.00  0.00     0.186 HD
BRANCH  11  13
HETATM   13  C20 UNL     1       8.331  26.272  33.594  1.00  0.00     0.685 A
HETATM   14  N3  UNL     1       7.556  25.768  32.576  1.00  0.00    -0.189 N
HETATM   15  C21 UNL     1       6.482  25.132  33.047  1.00  0.00     0.076 A
ATOM     16  H3  UNL     1       7.775  25.869  31.585  1.00  0.00     0.184 HD
HETATM   17  C22 UNL     1       5.418  24.468  32.451  1.00  0.00     0.032 A
HETATM   18  C26 UNL     1       6.557  25.221  34.418  1.00  0.00     0.076 A
HETATM   19  C23 UNL     1       4.443  23.900  33.219  1.00  0.00     0.002 A
HETATM   20  C24 UNL     1       4.491  23.974  34.613  1.00  0.00     0.002 A
HETATM   21  C25 UNL     1       5.560  24.640  35.170  1.00  0.00     0.032 A
HETATM   22  N4  UNL     1       7.700  25.924  34.702  1.00  0.00    -0.189 N
ATOM     23  H4  UNL     1       8.020  26.148  35.644  1.00  0.00     0.184 HD
ENDBRANCH  11  13
ENDBRANCH   8  11
ENDBRANCH   7   8
ENDBRANCH   1   7
BRANCH   4  24
HETATM   24  N1  UNL     1      14.171  21.386  33.596  1.00  0.00    -0.323 N
HETATM   25  C7  UNL     1      13.601  20.335  34.296  1.00  0.00     0.256 C
HETATM   26  O2  UNL     1      12.601  20.433  35.029  1.00  0.00    -0.267 OA
ATOM     27  H1  UNL     1      14.995  21.180  33.033  1.00  0.00     0.169 HD
BRANCH  25  28
HETATM   28  C8  UNL     1      14.185  18.973  34.202  1.00  0.00     0.033 A
HETATM   29  C9  UNL     1      15.555  18.820  34.016  1.00  0.00     0.018 A
HETATM   30  C10 UNL     1      16.126  17.568  33.932  1.00  0.00     0.013 A
HETATM   31  C11 UNL     1      15.379  16.414  34.025  1.00  0.00    -0.026 A
HETATM   32  C12 UNL     1      15.938  15.157  33.942  1.00  0.00     0.012 A
HETATM   33  C16 UNL     1      14.024  16.556  34.210  1.00  0.00    -0.025 A
HETATM   34  C13 UNL     1      15.129  14.037  34.044  1.00  0.00     0.001 A
HETATM   35  C14 UNL     1      13.767  14.150  34.229  1.00  0.00     0.001 A
HETATM   36  C15 UNL     1      13.233  15.415  34.310  1.00  0.00     0.012 A
HETATM   37  C17 UNL     1      13.440  17.827  34.296  1.00  0.00     0.029 A
ENDBRANCH  25  28
ENDBRANCH   4  24
TORSDOF 7
ENDMDL