MODEL 5
REMARK VINA RESULT: -10.603424864      1.552      2.017
REMARK  5 active torsions:
REMARK  status: ('A' for Active; 'I' for Inactive)
REMARK       I    between atoms: C1_2  and  N1_3
REMARK    1  A    between atoms: C1_2  and  C24_30
REMARK    2  A    between atoms: N1_3  and  C2_5
REMARK    3  A    between atoms: C6_9  and  C7_10
REMARK    4  A    between atoms: C10_13  and  C11_14
REMARK    5  A    between atoms: C11_14  and  C12_15
ROOT
HETATM    1  C7  UNL     1      12.973  22.220  33.203  1.00  0.00    -0.026 A
HETATM    2  C8  UNL     1      13.178  23.219  32.279  1.00  0.00     0.013 A
HETATM    3  C9  UNL     1      12.219  24.216  32.099  1.00  0.00     0.008 A
HETATM    4  C10 UNL     1      11.036  24.221  32.851  1.00  0.00    -0.054 A
HETATM    5  C21 UNL     1      10.893  23.213  33.741  1.00  0.00     0.008 A
HETATM    6  C22 UNL     1      11.818  22.209  33.948  1.00  0.00     0.013 A
ENDROOT
BRANCH   1   7
HETATM    7  C6  UNL     1      13.983  21.195  33.367  1.00  0.00    -0.024 A
HETATM    8  C5  UNL     1      15.322  21.500  33.303  1.00  0.00     0.012 A
HETATM    9  C4  UNL     1      16.297  20.524  33.464  1.00  0.00     0.003 A
HETATM   10  C3  UNL     1      15.891  19.239  33.691  1.00  0.00     0.029 A
HETATM   11  C2  UNL     1      14.531  18.861  33.769  1.00  0.00     0.035 A
HETATM   12  C23 UNL     1      13.611  19.862  33.603  1.00  0.00     0.042 A
BRANCH  11  13
HETATM   13  N1  UNL     1      14.239  17.512  34.028  1.00  0.00    -0.323 N
HETATM   14  C1  UNL     1      15.182  16.485  34.074  1.00  0.00     0.259 C
HETATM   15  O1  UNL     1      16.422  16.585  33.901  1.00  0.00    -0.267 OA
ATOM     16  H1  UNL     1      13.264  17.263  34.194  1.00  0.00     0.169 HD
BRANCH  14  17
HETATM   17  C24 UNL     1      14.734  15.092  34.352  1.00  0.00     0.066 A
HETATM   18  C25 UNL     1      13.460  14.680  34.600  1.00  0.00     0.125 A
HETATM   19  N3  UNL     1      13.512  13.351  34.800  1.00  0.00    -0.311 N
HETATM   20  N4  UNL     1      14.756  12.918  34.688  1.00  0.00    -0.311 N
ATOM     21  H3  UNL     1      12.706  12.761  35.008  1.00  0.00     0.186 HD
HETATM   22  C26 UNL     1      15.535  13.975  34.412  1.00  0.00     0.125 A
ATOM     23  H4  UNL     1      15.067  11.953  34.793  1.00  0.00     0.186 HD
ENDBRANCH  14  17
ENDBRANCH  11  13
ENDBRANCH   1   7
BRANCH   4  24
HETATM   24  C11 UNL     1      10.085  25.313  32.560  1.00  0.00     0.078 C
BRANCH  24  25
HETATM   25  C12 UNL     1       9.160  25.627  33.665  1.00  0.00    -0.036 A
HETATM   26  C13 UNL     1       9.720  26.206  34.820  1.00  0.00     0.082 A
HETATM   27  C14 UNL     1       8.894  26.438  35.896  1.00  0.00     0.246 A
HETATM   28  O2  UNL     1       9.452  26.964  36.914  1.00  0.00    -0.268 OA
HETATM   29  N2  UNL     1       7.589  26.133  35.874  1.00  0.00    -0.323 N
HETATM   30  C15 UNL     1       7.064  25.582  34.765  1.00  0.00     0.045 A
ATOM     31  H2  UNL     1       7.003  26.317  36.687  1.00  0.00     0.169 HD
HETATM   32  C16 UNL     1       5.709  25.283  34.730  1.00  0.00     0.030 A
HETATM   33  C20 UNL     1       7.837  25.314  33.626  1.00  0.00    -0.003 A
HETATM   34  C17 UNL     1       5.127  24.735  33.608  1.00  0.00     0.002 A
HETATM   35  C18 UNL     1       5.869  24.466  32.476  1.00  0.00     0.001 A
HETATM   36  C19 UNL     1       7.243  24.774  32.523  1.00  0.00     0.014 A
ENDBRANCH  24  25
ENDBRANCH   4  24
TORSDOF 5
ENDMDL