MODEL 3
REMARK VINA RESULT: -11.367308366      1.754      2.528
REMARK  6 active torsions:
REMARK  status: ('A' for Active; 'I' for Inactive)
REMARK    1  A    between atoms: C3_3  and  O1_4
REMARK    2  A    between atoms: O1_4  and  C4_5
REMARK    3  A    between atoms: C9_10  and  N1_11
REMARK       I    between atoms: N1_11  and  C10_12
REMARK       I    between atoms: C10_12  and  N2_14
REMARK    4  A    between atoms: N2_14  and  C11_16
REMARK    5  A    between atoms: C14_21  and  N4_22
REMARK    6  A    between atoms: N4_22  and  C15_24
ROOT
HETATM    1  C1  UNL     1      15.171  15.130  34.197  1.00  0.00     0.014 C
HETATM    2  C2  UNL     1      15.585  16.203  33.893  1.00  0.00    -0.091 C
HETATM    3  C3  UNL     1      16.092  17.513  33.547  1.00  0.00     0.268 C
ENDROOT
BRANCH   3   4
HETATM    4  O1  UNL     1      15.064  18.332  32.993  1.00  0.00    -0.339 OA
BRANCH   4   5
HETATM    5  C4  UNL     1      14.320  19.187  33.796  1.00  0.00     0.081 A
HETATM    6  C5  UNL     1      13.601  18.749  34.878  1.00  0.00     0.038 A
HETATM    7  C6  UNL     1      12.875  19.632  35.644  1.00  0.00     0.004 A
HETATM    8  C7  UNL     1      12.846  20.985  35.350  1.00  0.00     0.016 A
HETATM    9  C8  UNL     1      13.580  21.416  34.250  1.00  0.00     0.018 A
HETATM   10  C9  UNL     1      13.532  22.810  33.953  1.00  0.00     0.123 A
HETATM   11  C25 UNL     1      14.298  20.538  33.493  1.00  0.00     0.011 A
HETATM   12  C22 UNL     1      14.282  23.182  32.823  1.00  0.00     0.046 A
HETATM   13  C23 UNL     1      15.008  22.303  32.056  1.00  0.00     0.004 A
HETATM   14  C24 UNL     1      15.014  20.980  32.392  1.00  0.00     0.015 A
BRANCH  10  15
HETATM   15  N1  UNL     1      12.897  23.619  34.778  1.00  0.00    -0.351 NA
HETATM   16  C10 UNL     1      12.247  24.429  35.717  1.00  0.00     0.398 C
HETATM   17  O2  UNL     1      12.242  24.202  36.957  1.00  0.00    -0.230 OA
HETATM   18  N2  UNL     1      11.506  25.619  35.370  1.00  0.00    -0.297 N
ATOM     19  H2  UNL     1      11.868  26.519  35.685  1.00  0.00     0.172 HD
BRANCH  18  20
HETATM   20  C11 UNL     1      10.423  25.610  34.690  1.00  0.00     0.042 A
HETATM   21  C12 UNL     1      10.491  25.804  33.331  1.00  0.00     0.046 A
HETATM   22  C13 UNL     1       9.331  25.814  32.560  1.00  0.00     0.092 A
HETATM   23  N3  UNL     1       8.128  25.628  33.182  1.00  0.00    -0.352 N
HETATM   24  C14 UNL     1       7.996  25.434  34.494  1.00  0.00     0.107 A
ATOM     25  H3  UNL     1       7.283  25.638  32.610  1.00  0.00     0.166 HD
HETATM   26  C21 UNL     1       9.189  25.430  35.244  1.00  0.00     0.078 A
BRANCH  24  27
HETATM   27  N4  UNL     1       6.776  25.272  35.152  1.00  0.00    -0.342 N
ATOM     28  H4  UNL     1       6.828  25.228  36.170  1.00  0.00     0.167 HD
BRANCH  27  29
HETATM   29  C15 UNL     1       5.498  25.163  34.611  1.00  0.00     0.033 A
HETATM   30  C16 UNL     1       4.588  26.168  34.483  1.00  0.00     0.029 A
HETATM   31  C17 UNL     1       3.330  25.971  33.962  1.00  0.00     0.002 A
HETATM   32  C18 UNL     1       2.933  24.728  33.541  1.00  0.00     0.000 A
HETATM   33  C19 UNL     1       3.841  23.680  33.657  1.00  0.00     0.002 A
HETATM   34  C20 UNL     1       5.091  23.900  34.180  1.00  0.00     0.029 A
ENDBRANCH  27  29
ENDBRANCH  24  27
ENDBRANCH  18  20
ENDBRANCH  10  15
ENDBRANCH   4   5
ENDBRANCH   3   4
TORSDOF 6
ENDMDL