MODEL 4
REMARK VINA RESULT: -11.794189054      1.421      1.685
REMARK  6 active torsions:
REMARK  status: ('A' for Active; 'I' for Inactive)
REMARK       I    between atoms: C1_2  and  N1_3
REMARK    1  A    between atoms: C1_2  and  C15_20
REMARK    2  A    between atoms: N1_3  and  N2_5
REMARK       I    between atoms: N2_5  and  C2_6
REMARK    3  A    between atoms: C2_6  and  C3_8
REMARK    4  A    between atoms: C6_11  and  C7_12
REMARK    5  A    between atoms: C18_23  and  N3_24
REMARK    6  A    between atoms: N3_24  and  C19_26
ROOT
HETATM    1  O1  UNL     1      11.977  25.680  33.324  1.00  0.00    -0.265 OA
HETATM    2  C1  UNL     1      11.092  24.760  33.128  1.00  0.00     0.280 C
HETATM    3  N1  UNL     1      11.401  23.420  33.260  1.00  0.00    -0.195 N
ATOM      4  H1  UNL     1      10.652  22.753  33.073  1.00  0.00     0.205 HD
ENDROOT
BRANCH   3   5
HETATM    5  N2  UNL     1      12.610  22.904  33.616  1.00  0.00    -0.278 NA
HETATM    6  C2  UNL     1      13.787  22.419  33.960  1.00  0.00     0.345 C
HETATM    7  O2  UNL     1      14.861  23.113  34.183  1.00  0.00    -0.249 OA
BRANCH   6   8
HETATM    8  C3  UNL     1      14.018  20.932  34.108  1.00  0.00     0.048 A
HETATM    9  C4  UNL     1      14.917  20.306  33.242  1.00  0.00     0.019 A
HETATM   10  C5  UNL     1      15.032  18.913  33.269  1.00  0.00     0.013 A
HETATM   11  C6  UNL     1      14.293  18.121  34.120  1.00  0.00    -0.026 A
HETATM   12  C13 UNL     1      13.407  18.784  34.982  1.00  0.00     0.013 A
HETATM   13  C14 UNL     1      13.298  20.159  34.954  1.00  0.00     0.019 A
BRANCH  11  14
HETATM   14  C7  UNL     1      14.296  16.669  34.119  1.00  0.00    -0.026 A
HETATM   15  C8  UNL     1      13.202  15.897  34.223  1.00  0.00     0.012 A
HETATM   16  C9  UNL     1      13.289  14.538  34.276  1.00  0.00     0.001 A
HETATM   17  C10 UNL     1      14.503  13.896  34.228  1.00  0.00     0.000 A
HETATM   18  C11 UNL     1      15.656  14.643  34.122  1.00  0.00     0.001 A
HETATM   19  C12 UNL     1      15.557  16.011  34.065  1.00  0.00     0.012 A
ENDBRANCH  11  14
ENDBRANCH   6   8
ENDBRANCH   3   5
BRANCH   2  20
HETATM   20  C15 UNL     1       9.768  25.214  32.770  1.00  0.00     0.034 A
HETATM   21  C16 UNL     1       8.762  24.294  32.706  1.00  0.00     0.019 A
HETATM   22  C17 UNL     1       7.432  24.729  32.447  1.00  0.00     0.030 A
HETATM   23  C18 UNL     1       7.183  26.053  32.264  1.00  0.00     0.032 A
HETATM   24  C25 UNL     1       8.208  26.944  32.335  1.00  0.00     0.030 A
HETATM   25  C26 UNL     1       9.514  26.553  32.584  1.00  0.00     0.019 A
BRANCH  23  26
HETATM   26  N3  UNL     1       5.838  26.534  32.181  1.00  0.00    -0.356 N
ATOM     27  H3  UNL     1       5.588  27.357  31.632  1.00  0.00     0.166 HD
BRANCH  26  28
HETATM   28  C19 UNL     1       4.869  25.786  32.919  1.00  0.00     0.032 A
HETATM   29  C20 UNL     1       4.456  24.553  32.540  1.00  0.00     0.029 A
HETATM   30  C21 UNL     1       3.567  23.803  33.328  1.00  0.00     0.002 A
HETATM   31  C22 UNL     1       3.081  24.307  34.522  1.00  0.00     0.000 A
HETATM   32  C23 UNL     1       3.511  25.576  34.895  1.00  0.00     0.002 A
HETATM   33  C24 UNL     1       4.394  26.311  34.099  1.00  0.00     0.029 A
ENDBRANCH  26  28
ENDBRANCH  23  26
ENDBRANCH   2  20
TORSDOF 6
ENDMDL