MODEL 5
REMARK VINA RESULT: -12.431481396      1.411      1.904
REMARK  5 active torsions:
REMARK  status: ('A' for Active; 'I' for Inactive)
REMARK       I    between atoms: C1_2  and  N1_3
REMARK    1  A    between atoms: C1_2  and  C8_11
REMARK    2  A    between atoms: N1_3  and  C2_5
REMARK    3  A    between atoms: C11_14  and  C12_15
REMARK    4  A    between atoms: C12_15  and  N2_16
REMARK    5  A    between atoms: N2_16  and  C13_18
ROOT
HETATM    1  N2  UNL     1      13.687  24.345  33.936  1.00  0.00    -0.386 N
ATOM      2  H2  UNL     1      13.700  24.675  34.902  1.00  0.00     0.160 HD
ENDROOT
BRANCH   1   3
HETATM    3  C12 UNL     1      13.259  25.228  32.879  1.00  0.00     0.158 C
BRANCH   3   4
HETATM    4  C11 UNL     1      11.775  25.341  32.842  1.00  0.00    -0.041 A
HETATM    5  C10 UNL     1      11.135  26.529  33.122  1.00  0.00     0.010 A
HETATM    6  C9  UNL     1       9.741  26.656  33.091  1.00  0.00     0.017 A
HETATM    7  C8  UNL     1       8.962  25.577  32.774  1.00  0.00     0.032 A
HETATM    8  C27 UNL     1       9.589  24.377  32.490  1.00  0.00     0.017 A
HETATM    9  C26 UNL     1      10.962  24.269  32.525  1.00  0.00     0.010 A
BRANCH   7  10
HETATM   10  C1  UNL     1       7.476  25.655  32.732  1.00  0.00     0.256 C
HETATM   11  O1  UNL     1       6.945  26.233  31.736  1.00  0.00    -0.267 OA
HETATM   12  N1  UNL     1       6.742  25.092  33.782  1.00  0.00    -0.323 N
ATOM     13  H1  UNL     1       7.259  24.638  34.535  1.00  0.00     0.169 HD
BRANCH  12  14
HETATM   14  C2  UNL     1       5.329  25.109  33.868  1.00  0.00     0.035 A
HETATM   15  C3  UNL     1       4.605  23.965  33.471  1.00  0.00     0.029 A
HETATM   16  C4  UNL     1       3.256  23.893  33.543  1.00  0.00     0.002 A
HETATM   17  C5  UNL     1       2.542  24.990  34.029  1.00  0.00     0.000 A
HETATM   18  C6  UNL     1       3.189  26.123  34.428  1.00  0.00     0.002 A
HETATM   19  C7  UNL     1       4.578  26.146  34.333  1.00  0.00     0.029 A
ENDBRANCH  12  14
ENDBRANCH   7  10
ENDBRANCH   3   4
ENDBRANCH   1   3
BRANCH   1  20
HETATM   20  C13 UNL     1      14.088  23.029  33.635  1.00  0.00     0.029 A
HETATM   21  C14 UNL     1      14.770  22.775  32.446  1.00  0.00     0.031 A
HETATM   22  C15 UNL     1      15.157  21.494  32.152  1.00  0.00     0.033 A
HETATM   23  C16 UNL     1      14.908  20.415  32.977  1.00  0.00     0.047 A
HETATM   24  N3  UNL     1      15.287  19.159  32.688  1.00  0.00    -0.355 N
HETATM   25  C24 UNL     1      14.234  20.660  34.154  1.00  0.00     0.044 A
HETATM   26  C17 UNL     1      15.046  18.108  33.487  1.00  0.00     0.046 A
ATOM     27  H3  UNL     1      15.786  18.995  31.814  1.00  0.00     0.166 HD
HETATM   28  C18 UNL     1      15.451  16.830  33.155  1.00  0.00     0.030 A
HETATM   29  C22 UNL     1      14.370  18.304  34.684  1.00  0.00     0.042 A
HETATM   30  C19 UNL     1      15.219  15.729  33.954  1.00  0.00     0.002 A
HETATM   31  C20 UNL     1      14.540  15.950  35.147  1.00  0.00     0.001 A
HETATM   32  C21 UNL     1      14.127  17.230  35.492  1.00  0.00     0.018 A
HETATM   33  C23 UNL     1      13.972  19.591  34.997  1.00  0.00     0.197 A
HETATM   34  O2  UNL     1      13.357  19.781  36.080  1.00  0.00    -0.286 OA
HETATM   35  C25 UNL     1      13.837  21.953  34.462  1.00  0.00     0.047 A
ENDBRANCH   1  20
TORSDOF 5
ENDMDL