MODEL 5
REMARK VINA RESULT: -11.300729834      2.068     10.612
REMARK  6 active torsions:
REMARK  status: ('A' for Active; 'I' for Inactive)
REMARK       I    between atoms: C1_2  and  N1_3
REMARK    1  A    between atoms: C1_2  and  C20_29
REMARK    2  A    between atoms: N1_3  and  C2_4
REMARK    3  A    between atoms: C6_8  and  C7_9
REMARK       I    between atoms: C7_9  and  N2_11
REMARK    4  A    between atoms: N2_11  and  C8_13
REMARK    5  A    between atoms: C11_16  and  N3_17
REMARK    6  A    between atoms: N3_17  and  C12_19
ROOT
HETATM    1  C7  UNL     1      11.792  24.614  35.274  1.00  0.00     0.256 C
HETATM    2  O2  UNL     1      12.534  24.525  36.260  1.00  0.00    -0.267 OA
HETATM    3  N2  UNL     1      11.917  23.853  34.111  1.00  0.00    -0.323 N
ATOM      4  H2  UNL     1      11.241  24.014  33.365  1.00  0.00     0.169 HD
ENDROOT
BRANCH   1   5
HETATM    5  C6  UNL     1      10.705  25.608  35.356  1.00  0.00     0.035 A
HETATM    6  C5  UNL     1      10.646  26.594  36.302  1.00  0.00     0.017 A
HETATM    7  C4  UNL     1       9.589  27.474  36.346  1.00  0.00     0.004 A
HETATM    8  C3  UNL     1       8.588  27.343  35.416  1.00  0.00     0.045 A
HETATM    9  C2  UNL     1       8.578  26.361  34.418  1.00  0.00     0.112 A
HETATM   10  C19 UNL     1       9.682  25.497  34.426  1.00  0.00     0.061 A
BRANCH   9  11
HETATM   11  N1  UNL     1       7.493  26.268  33.616  1.00  0.00    -0.367 NA
HETATM   12  C1  UNL     1       6.415  26.178  32.814  1.00  0.00     0.326 C
HETATM   13  O1  UNL     1       6.357  26.618  31.610  1.00  0.00    -0.251 OA
BRANCH  12  14
HETATM   14  C20 UNL     1       5.132  25.533  33.257  1.00  0.00     0.046 A
HETATM   15  C21 UNL     1       5.100  24.167  33.387  1.00  0.00     0.018 A
HETATM   16  C22 UNL     1       3.977  23.470  33.804  1.00  0.00     0.001 A
HETATM   17  C23 UNL     1       2.864  24.245  34.090  1.00  0.00     0.000 A
HETATM   18  C24 UNL     1       2.877  25.610  33.966  1.00  0.00     0.001 A
HETATM   19  C25 UNL     1       4.015  26.271  33.547  1.00  0.00     0.018 A
ENDBRANCH  12  14
ENDBRANCH   9  11
ENDBRANCH   1   5
BRANCH   3  20
HETATM   20  C8  UNL     1      12.914  22.874  33.896  1.00  0.00     0.035 A
HETATM   21  C9  UNL     1      12.679  21.570  34.370  1.00  0.00     0.032 A
HETATM   22  C10 UNL     1      13.585  20.548  34.215  1.00  0.00     0.032 A
HETATM   23  C11 UNL     1      14.776  20.782  33.572  1.00  0.00     0.033 A
HETATM   24  C17 UNL     1      15.023  22.055  33.101  1.00  0.00     0.032 A
HETATM   25  C18 UNL     1      14.102  23.098  33.260  1.00  0.00     0.032 A
BRANCH  23  26
HETATM   26  N3  UNL     1      15.738  19.736  33.374  1.00  0.00    -0.343 N
ATOM     27  H3  UNL     1      16.566  19.890  32.798  1.00  0.00     0.167 HD
BRANCH  26  28
HETATM   28  C12 UNL     1      15.533  18.593  33.944  1.00  0.00     0.105 A
HETATM   29  C13 UNL     1      15.436  17.493  33.095  1.00  0.00     0.048 A
HETATM   30  C14 UNL     1      15.217  16.242  33.645  1.00  0.00     0.005 A
HETATM   31  C15 UNL     1      15.100  16.106  34.999  1.00  0.00     0.017 A
HETATM   32  C16 UNL     1      15.204  17.243  35.806  1.00  0.00     0.089 A
HETATM   33  N4  UNL     1      15.414  18.424  35.251  1.00  0.00    -0.352 N
ATOM     34  H4  UNL     1      15.487  19.242  35.856  1.00  0.00     0.166 HD
ENDBRANCH  26  28
ENDBRANCH  23  26
ENDBRANCH   3  20
TORSDOF 6
ENDMDL