MODEL 1
REMARK VINA RESULT: -11.587753963      0.000      0.000
REMARK  6 active torsions:
REMARK  status: ('A' for Active; 'I' for Inactive)
REMARK    1  A    between atoms: C2_5  and  N2_6
REMARK    2  A    between atoms: N2_6  and  C3_8
REMARK    3  A    between atoms: C15_20  and  C16_21
REMARK    4  A    between atoms: C19_26  and  N4_27
REMARK    5  A    between atoms: N4_27  and  C20_29
REMARK    6  A    between atoms: C20_29  and  C21_30
ROOT
HETATM    1  O1  UNL     1      10.038  23.184  31.961  1.00  0.00    -0.267 OA
HETATM    2  C1  UNL     1       9.707  24.084  32.773  1.00  0.00     0.259 A
HETATM    3  N1  UNL     1       8.499  24.700  32.655  1.00  0.00    -0.308 N
ATOM      4  H1  UNL     1       7.875  24.416  31.900  1.00  0.00     0.170 HD
HETATM    5  C2  UNL     1       8.093  25.679  33.505  1.00  0.00     0.119 A
HETATM    6  C9  UNL     1       8.955  26.048  34.519  1.00  0.00     0.019 A
HETATM    7  C10 UNL     1       8.620  27.035  35.416  1.00  0.00     0.016 A
HETATM    8  C11 UNL     1       9.485  27.402  36.423  1.00  0.00     0.001 A
HETATM    9  C12 UNL     1      10.694  26.765  36.519  1.00  0.00     0.001 A
HETATM   10  C13 UNL     1      11.066  25.775  35.642  1.00  0.00     0.013 A
HETATM   11  C14 UNL     1      10.205  25.404  34.634  1.00  0.00    -0.006 A
HETATM   12  C15 UNL     1      10.594  24.416  33.762  1.00  0.00     0.053 A
ENDROOT
BRANCH  12  13
HETATM   13  C16 UNL     1      11.884  23.726  33.863  1.00  0.00    -0.015 A
HETATM   14  C17 UNL     1      13.004  24.304  33.278  1.00  0.00     0.029 A
HETATM   15  C18 UNL     1      14.235  23.696  33.348  1.00  0.00     0.090 A
HETATM   16  N3  UNL     1      14.366  22.507  33.998  1.00  0.00    -0.353 N
HETATM   17  C19 UNL     1      13.315  21.908  34.579  1.00  0.00     0.101 A
ATOM     18  H3  UNL     1      15.283  22.062  34.045  1.00  0.00     0.166 HD
HETATM   19  C27 UNL     1      12.063  22.527  34.509  1.00  0.00     0.060 A
BRANCH  17  20
HETATM   20  N4  UNL     1      13.418  20.797  35.185  1.00  0.00    -0.372 N
ATOM     21  H4  UNL     1      13.975  20.791  36.040  1.00  0.00     0.161 HD
BRANCH  20  22
HETATM   22  C20 UNL     1      12.827  19.543  34.787  1.00  0.00     0.159 C
BRANCH  22  23
HETATM   23  C21 UNL     1      13.863  18.553  34.429  1.00  0.00    -0.041 A
HETATM   24  C22 UNL     1      13.929  17.405  35.228  1.00  0.00     0.009 A
HETATM   25  C23 UNL     1      14.880  16.484  34.921  1.00  0.00     0.001 A
HETATM   26  C24 UNL     1      15.747  16.647  33.881  1.00  0.00     0.000 A
HETATM   27  C25 UNL     1      15.658  17.793  33.107  1.00  0.00     0.001 A
HETATM   28  C26 UNL     1      14.705  18.753  33.387  1.00  0.00     0.009 A
ENDBRANCH  22  23
ENDBRANCH  20  22
ENDBRANCH  17  20
ENDBRANCH  12  13
BRANCH   5  29
HETATM   29  N2  UNL     1       6.822  26.268  33.397  1.00  0.00    -0.342 N
ATOM     30  H2  UNL     1       6.810  27.231  33.060  1.00  0.00     0.167 HD
BRANCH  29  31
HETATM   31  C3  UNL     1       5.569  25.713  33.689  1.00  0.00     0.033 A
HETATM   32  C4  UNL     1       4.434  26.349  33.242  1.00  0.00     0.029 A
HETATM   33  C5  UNL     1       3.164  25.858  33.441  1.00  0.00     0.002 A
HETATM   34  C6  UNL     1       2.992  24.679  34.113  1.00  0.00     0.000 A
HETATM   35  C7  UNL     1       4.107  24.014  34.575  1.00  0.00     0.002 A
HETATM   36  C8  UNL     1       5.393  24.535  34.359  1.00  0.00     0.029 A
ENDBRANCH  29  31
ENDBRANCH   5  29
TORSDOF 6
ENDMDL