MODEL 3
REMARK VINA RESULT: -12.087642595      2.207      9.754
REMARK  6 active torsions:
REMARK  status: ('A' for Active; 'I' for Inactive)
REMARK    1  A    between atoms: N1_1  and  C1_4
REMARK    2  A    between atoms: N3_13  and  C8_14
REMARK    3  A    between atoms: C12_18  and  C13_19
REMARK    4  A    between atoms: C17_23  and  C18_24
REMARK       I    between atoms: C18_24  and  N4_26
REMARK    5  A    between atoms: N4_26  and  C19_28
REMARK    6  A    between atoms: C19_28  and  C20_29
ROOT
HETATM    1  C8  UNL     1       8.435  25.913  34.316  1.00  0.00     0.058 A
HETATM    2  C9  UNL     1       8.402  26.786  35.381  1.00  0.00     0.030 A
HETATM    3  C10 UNL     1       9.450  26.935  36.264  1.00  0.00     0.003 A
HETATM    4  C11 UNL     1      10.604  26.165  36.076  1.00  0.00     0.012 A
HETATM    5  C12 UNL     1      10.662  25.284  35.018  1.00  0.00    -0.024 A
HETATM    6  C27 UNL     1       9.590  25.166  34.158  1.00  0.00     0.043 A
ENDROOT
BRANCH   5   7
HETATM    7  C13 UNL     1      11.854  24.458  34.792  1.00  0.00    -0.025 A
HETATM    8  C14 UNL     1      13.026  25.047  34.346  1.00  0.00     0.012 A
HETATM    9  C15 UNL     1      14.116  24.232  34.143  1.00  0.00     0.002 A
HETATM   10  C16 UNL     1      14.010  22.860  34.388  1.00  0.00     0.017 A
HETATM   11  C17 UNL     1      12.839  22.291  34.831  1.00  0.00     0.032 A
HETATM   12  C26 UNL     1      11.739  23.107  35.037  1.00  0.00     0.029 A
BRANCH  11  13
HETATM   13  C18 UNL     1      12.666  20.875  35.093  1.00  0.00     0.251 C
HETATM   14  O1  UNL     1      11.742  20.211  34.570  1.00  0.00    -0.268 OA
HETATM   15  N4  UNL     1      13.563  20.213  35.962  1.00  0.00    -0.353 N
ATOM     16  H4  UNL     1      14.312  20.766  36.379  1.00  0.00     0.163 HD
BRANCH  15  17
HETATM   17  C19 UNL     1      13.495  18.812  36.302  1.00  0.00     0.161 C
BRANCH  17  18
HETATM   18  C20 UNL     1      14.305  17.989  35.359  1.00  0.00    -0.041 A
HETATM   19  C21 UNL     1      14.044  16.677  35.056  1.00  0.00     0.009 A
HETATM   20  C22 UNL     1      14.847  15.988  34.171  1.00  0.00     0.001 A
HETATM   21  C23 UNL     1      15.941  16.584  33.557  1.00  0.00     0.000 A
HETATM   22  C24 UNL     1      16.194  17.903  33.869  1.00  0.00     0.001 A
HETATM   23  C25 UNL     1      15.390  18.586  34.751  1.00  0.00     0.009 A
ENDBRANCH  17  18
ENDBRANCH  15  17
ENDBRANCH  11  13
ENDBRANCH   5   7
BRANCH   1  24
HETATM   24  N3  UNL     1       7.309  25.814  33.443  1.00  0.00    -0.146 N
HETATM   25  C1  UNL     1       7.185  26.354  32.198  1.00  0.00     0.684 A
HETATM   26  N2  UNL     1       5.979  26.048  31.686  1.00  0.00    -0.189 N
HETATM   27  C2  UNL     1       5.296  25.306  32.582  1.00  0.00     0.077 A
ATOM     28  H2  UNL     1       5.637  26.331  30.768  1.00  0.00     0.184 HD
HETATM   29  C3  UNL     1       4.030  24.722  32.595  1.00  0.00     0.032 A
HETATM   30  C7  UNL     1       6.145  25.179  33.658  1.00  0.00     0.084 A
HETATM   31  C4  UNL     1       3.588  23.999  33.682  1.00  0.00     0.002 A
HETATM   32  C5  UNL     1       4.441  23.875  34.755  1.00  0.00     0.002 A
HETATM   33  C6  UNL     1       5.693  24.455  34.739  1.00  0.00     0.033 A
BRANCH  25  34
HETATM   34  N1  UNL     1       8.142  27.052  31.654  1.00  0.00    -0.234 N
ATOM     35  H12 UNL     1       8.720  26.677  30.902  1.00  0.00     0.174 HD
ATOM     36  H11 UNL     1       8.437  28.003  31.876  1.00  0.00     0.174 HD
ENDBRANCH  25  34
ENDBRANCH   1  24
TORSDOF 6
ENDMDL