MODEL 3
REMARK VINA RESULT: -8.450602763      1.694     11.325
REMARK  5 active torsions:
REMARK  status: ('A' for Active; 'I' for Inactive)
REMARK    1  A    between atoms: C9_10  and  N2_11
REMARK       I    between atoms: N2_11  and  C10_13
REMARK    2  A    between atoms: C10_13  and  C11_15
REMARK    3  A    between atoms: C14_18  and  N3_19
REMARK       I    between atoms: N3_19  and  C15_21
REMARK       I    between atoms: C15_21  and  N4_23
REMARK    4  A    between atoms: N4_23  and  C16_25
REMARK    5  A    between atoms: C16_25  and  C17_26
ROOT
HETATM    1  N1  UNL     1      11.162  14.114  36.128  1.00  0.00    -0.191 NA
HETATM    2  C1  UNL     1      12.227  14.010  35.663  1.00  0.00     0.100 C
HETATM    3  C2  UNL     1      13.551  13.880  35.111  1.00  0.00     0.055 A
HETATM    4  C3  UNL     1      14.173  12.653  35.070  1.00  0.00     0.023 A
HETATM    5  C4  UNL     1      15.454  12.469  34.547  1.00  0.00     0.002 A
HETATM    6  C5  UNL     1      16.106  13.577  34.057  1.00  0.00     0.012 A
HETATM    7  C6  UNL     1      15.506  14.816  34.087  1.00  0.00    -0.024 A
HETATM    8  C7  UNL     1      16.153  15.927  33.598  1.00  0.00     0.014 A
HETATM    9  C8  UNL     1      15.550  17.186  33.625  1.00  0.00     0.030 A
HETATM   10  C9  UNL     1      14.303  17.372  34.133  1.00  0.00     0.035 A
HETATM   11  C25 UNL     1      13.660  16.225  34.626  1.00  0.00     0.043 A
HETATM   12  C26 UNL     1      14.235  14.983  34.608  1.00  0.00    -0.003 A
ENDROOT
BRANCH  10  13
HETATM   13  N2  UNL     1      13.599  18.585  34.188  1.00  0.00    -0.323 N
HETATM   14  C10 UNL     1      14.145  19.872  34.037  1.00  0.00     0.256 C
HETATM   15  O1  UNL     1      15.367  20.056  33.823  1.00  0.00    -0.267 OA
ATOM     16  H2  UNL     1      12.594  18.527  34.354  1.00  0.00     0.169 HD
BRANCH  14  17
HETATM   17  C11 UNL     1      13.329  21.087  34.120  1.00  0.00     0.032 A
HETATM   18  C12 UNL     1      13.836  22.321  33.800  1.00  0.00     0.019 A
HETATM   19  C13 UNL     1      13.036  23.468  33.897  1.00  0.00     0.030 A
HETATM   20  C14 UNL     1      11.733  23.417  34.307  1.00  0.00     0.036 A
HETATM   21  C23 UNL     1      11.253  22.147  34.623  1.00  0.00     0.030 A
HETATM   22  C24 UNL     1      12.036  21.006  34.532  1.00  0.00     0.019 A
BRANCH  20  23
HETATM   23  N3  UNL     1      10.838  24.505  34.423  1.00  0.00    -0.309 N
HETATM   24  C15 UNL     1       9.757  24.822  33.573  1.00  0.00     0.320 C
HETATM   25  O2  UNL     1       9.458  24.133  32.581  1.00  0.00    -0.247 OA
HETATM   26  N4  UNL     1       8.973  25.959  33.842  1.00  0.00    -0.339 N
ATOM     27  H4  UNL     1       9.199  26.538  34.651  1.00  0.00     0.164 HD
ATOM     28  H3  UNL     1      10.992  25.133  35.212  1.00  0.00     0.170 HD
BRANCH  26  29
HETATM   29  C16 UNL     1       7.863  26.326  33.008  1.00  0.00     0.162 C
BRANCH  29  30
HETATM   30  C17 UNL     1       6.676  25.523  33.393  1.00  0.00    -0.040 A
HETATM   31  C18 UNL     1       5.912  24.921  32.388  1.00  0.00     0.009 A
HETATM   32  C19 UNL     1       4.796  24.164  32.662  1.00  0.00     0.001 A
HETATM   33  C20 UNL     1       4.385  23.970  33.964  1.00  0.00     0.000 A
HETATM   34  C21 UNL     1       5.120  24.552  34.974  1.00  0.00     0.001 A
HETATM   35  C22 UNL     1       6.254  25.320  34.687  1.00  0.00     0.009 A
ENDBRANCH  29  30
ENDBRANCH  26  29
ENDBRANCH  20  23
ENDBRANCH  14  17
ENDBRANCH  10  13
TORSDOF 5
ENDMDL