MODEL 2
REMARK VINA RESULT: -9.408621891      0.927      1.717
REMARK  6 active torsions:
REMARK  status: ('A' for Active; 'I' for Inactive)
REMARK       I    between atoms: C1_2  and  N1_3
REMARK    1  A    between atoms: C1_2  and  C15_24
REMARK    2  A    between atoms: N1_3  and  N2_5
REMARK       I    between atoms: N2_5  and  C2_7
REMARK       I    between atoms: C2_7  and  N4_16
REMARK    3  A    between atoms: N3_8  and  C3_10
REMARK    4  A    between atoms: N4_16  and  C9_18
REMARK    5  A    between atoms: C18_27  and  O2_28
REMARK    6  A    between atoms: O2_28  and  C19_29
ROOT
HETATM    1  N2  UNL     1       8.763  24.477  33.993  1.00  0.00    -0.129 N
ATOM      2  H2  UNL     1       7.990  24.030  34.484  1.00  0.00     0.205 HD
HETATM    3  C2  UNL     1       8.642  25.811  33.562  1.00  0.00     0.697 C
HETATM    4  N3  UNL     1       7.511  26.306  33.275  1.00  0.00    -0.190 N
ATOM      5  H3  UNL     1       7.477  27.279  32.969  1.00  0.00     0.184 HD
HETATM    6  N4  UNL     1       9.860  26.572  33.462  1.00  0.00    -0.190 N
ATOM      7  H4  UNL     1      10.420  26.512  32.611  1.00  0.00     0.184 HD
ENDROOT
BRANCH   1   8
HETATM    8  N1  UNL     1       9.935  23.766  33.749  1.00  0.00    -0.251 N
HETATM    9  C1  UNL     1      10.922  23.488  34.742  1.00  0.00     0.270 C
HETATM   10  O1  UNL     1      10.697  23.920  35.923  1.00  0.00    -0.266 OA
ATOM     11  H1  UNL     1      10.098  23.422  32.803  1.00  0.00     0.191 HD
BRANCH   9  12
HETATM   12  C15 UNL     1      12.116  22.754  34.408  1.00  0.00     0.033 A
HETATM   13  C16 UNL     1      13.280  23.405  34.092  1.00  0.00     0.020 A
HETATM   14  C17 UNL     1      14.429  22.660  33.794  1.00  0.00     0.038 A
HETATM   15  C18 UNL     1      14.416  21.298  33.812  1.00  0.00     0.076 A
HETATM   16  C25 UNL     1      13.237  20.645  34.132  1.00  0.00     0.038 A
HETATM   17  C26 UNL     1      12.108  21.370  34.424  1.00  0.00     0.020 A
BRANCH  15  18
HETATM   18  O2  UNL     1      15.497  20.482  33.530  1.00  0.00    -0.311 OA
BRANCH  18  19
HETATM   19  C19 UNL     1      15.420  19.144  33.878  1.00  0.00     0.076 A
HETATM   20  C20 UNL     1      15.335  18.733  35.192  1.00  0.00     0.037 A
HETATM   21  C21 UNL     1      15.260  17.409  35.536  1.00  0.00     0.003 A
HETATM   22  C22 UNL     1      15.267  16.415  34.581  1.00  0.00     0.000 A
HETATM   23  C23 UNL     1      15.351  16.813  33.262  1.00  0.00     0.003 A
HETATM   24  C24 UNL     1      15.427  18.142  32.911  1.00  0.00     0.037 A
ENDBRANCH  18  19
ENDBRANCH  15  18
ENDBRANCH   9  12
ENDBRANCH   1   8
BRANCH   4  25
HETATM   25  C3  UNL     1       6.301  25.595  33.353  1.00  0.00     0.049 A
HETATM   26  C4  UNL     1       5.687  24.959  32.289  1.00  0.00     0.030 A
HETATM   27  C5  UNL     1       4.496  24.267  32.407  1.00  0.00     0.002 A
HETATM   28  C6  UNL     1       3.884  24.199  33.632  1.00  0.00     0.000 A
HETATM   29  C7  UNL     1       4.446  24.813  34.738  1.00  0.00     0.002 A
HETATM   30  C8  UNL     1       5.622  25.486  34.572  1.00  0.00     0.030 A
ENDBRANCH   4  25
BRANCH   6  31
HETATM   31  C9  UNL     1      10.298  27.410  34.529  1.00  0.00     0.049 A
HETATM   32  C10 UNL     1      11.096  28.506  34.277  1.00  0.00     0.030 A
HETATM   33  C11 UNL     1      11.492  29.291  35.333  1.00  0.00     0.002 A
HETATM   34  C12 UNL     1      11.128  29.034  36.633  1.00  0.00     0.000 A
HETATM   35  C13 UNL     1      10.319  27.924  36.898  1.00  0.00     0.002 A
HETATM   36  C14 UNL     1       9.928  27.144  35.840  1.00  0.00     0.030 A
ENDBRANCH   6  31
TORSDOF 6
ENDMDL