MODEL 2
REMARK VINA RESULT: -5.426102249      2.104      3.987
REMARK  2 active torsions:
REMARK  status: ('A' for Active; 'I' for Inactive)
REMARK    1  A    between atoms: O1_1  and  C1_3
REMARK    2  A    between atoms: N1_4  and  O2_5
ROOT
HETATM    1  C1  UNL     1      12.150  17.089  16.911  1.00  0.00     0.226 C
HETATM    2  N1  UNL     1      11.933  17.359  15.512  1.00  0.00    -0.170 NA
HETATM    3  C2  UNL     1      11.550  16.083  14.985  1.00  0.00     0.124 C
HETATM    4  C3  UNL     1      12.294  15.030  15.802  1.00  0.00     0.030 C
HETATM    5  C4  UNL     1      12.879  15.768  16.987  1.00  0.00     0.002 C
HETATM    6  C5  UNL     1      12.579  15.044  18.298  1.00  0.00     0.013 C
HETATM    7  C6  UNL     1      13.751  14.181  18.701  1.00  0.00     0.001 C
HETATM    8  C7  UNL     1      14.905  15.073  19.131  1.00  0.00     0.000 C
HETATM    9  C8  UNL     1      14.851  16.324  18.299  1.00  0.00     0.001 C
HETATM   10  C9  UNL     1      14.371  15.917  16.902  1.00  0.00     0.013 C
ENDROOT
BRANCH   1  11
HETATM   11  O1  UNL     1      10.876  16.866  17.475  1.00  0.00    -0.378 OA
ATOM     12  H1  UNL     1      10.348  17.624  17.254  1.00  0.00     0.211 HD
ENDBRANCH   1  11
BRANCH   2  13
HETATM   13  O2  UNL     1      12.981  17.920  14.898  1.00  0.00    -0.311 OA
ATOM     14  H2  UNL     1      13.079  18.849  15.073  1.00  0.00     0.237 HD
ENDBRANCH   2  13
TORSDOF 2
ENDMDL