MODEL 5
REMARK VINA RESULT: -5.175758356      2.000      3.958
REMARK  2 active torsions:
REMARK  status: ('A' for Active; 'I' for Inactive)
REMARK    1  A    between atoms: N1_7  and  O1_8
REMARK    2  A    between atoms: C9_12  and  O2_13
ROOT
HETATM    1  C1  UNL     1      11.257  15.253  16.423  1.00  0.00     0.012 C
HETATM    2  C2  UNL     1      12.761  15.555  16.362  1.00  0.00     0.012 C
HETATM    3  C3  UNL     1      13.011  16.729  15.502  1.00  0.00     0.008 C
HETATM    4  C4  UNL     1      14.068  17.668  15.974  1.00  0.00     0.022 C
HETATM    5  C5  UNL     1      15.368  16.996  16.307  1.00  0.00     0.082 C
HETATM    6  C6  UNL     1      16.536  17.932  15.990  1.00  0.00     0.029 C
HETATM    7  N1  UNL     1      15.364  16.700  17.714  1.00  0.00    -0.189 NA
HETATM    8  C7  UNL     1      14.741  15.421  17.903  1.00  0.00     0.111 C
HETATM    9  C8  UNL     1      15.001  14.820  19.242  1.00  0.00     0.031 C
HETATM   10  C9  UNL     1      13.239  15.653  17.764  1.00  0.00     0.141 C
ENDROOT
BRANCH   7  11
HETATM   11  O1  UNL     1      16.524  16.861  18.326  1.00  0.00    -0.312 OA
ATOM     12  H1  UNL     1      16.498  17.396  19.110  1.00  0.00     0.237 HD
ENDBRANCH   7  11
BRANCH  10  13
HETATM   13  O2  UNL     1      12.636  14.595  18.488  1.00  0.00    -0.394 OA
ATOM     14  H2  UNL     1      13.253  13.873  18.499  1.00  0.00     0.210 HD
ENDBRANCH  10  13
TORSDOF 2
ENDMDL