MODEL 5
REMARK VINA RESULT: -5.290458908      1.314      2.489
REMARK  1 active torsions:
REMARK  status: ('A' for Active; 'I' for Inactive)
REMARK    1  A    between atoms: N2_13  and  O2_14
ROOT
HETATM    1  N1  UNL     1      14.777  13.772  19.087  1.00  0.00    -0.364 N
ATOM      2  H11 UNL     1      15.776  13.958  19.175  1.00  0.00     0.159 HD
ATOM      3  H12 UNL     1      14.581  12.856  19.490  1.00  0.00     0.159 HD
HETATM    4  C1  UNL     1      13.921  14.595  18.542  1.00  0.00     0.240 C
HETATM    5  O1  UNL     1      12.561  14.342  18.422  1.00  0.00    -0.318 OA
HETATM    6  C2  UNL     1      11.925  15.579  18.062  1.00  0.00     0.212 C
HETATM    7  C3  UNL     1      13.010  16.211  17.215  1.00  0.00     0.085 C
HETATM    8  C4  UNL     1      13.079  15.494  15.911  1.00  0.00     0.036 C
HETATM    9  C5  UNL     1      13.036  16.438  14.754  1.00  0.00     0.003 C
HETATM   10  C6  UNL     1      11.741  17.248  14.896  1.00  0.00     0.000 C
HETATM   11  C7  UNL     1      11.851  18.131  16.101  1.00  0.00     0.003 C
HETATM   12  C8  UNL     1      12.867  17.699  17.097  1.00  0.00     0.036 C
HETATM   13  N2  UNL     1      14.194  15.874  17.979  1.00  0.00    -0.212 N
ENDROOT
BRANCH  13  14
HETATM   14  O2  UNL     1      15.329  16.578  18.150  1.00  0.00    -0.283 OA
ATOM     15  H2  UNL     1      16.146  16.430  17.688  1.00  0.00     0.245 HD
ENDBRANCH  13  14
TORSDOF 1
ENDMDL