MODEL 5
REMARK VINA RESULT: -5.091588345      2.138      3.130
REMARK  0 active torsions:
REMARK  status: ('A' for Active; 'I' for Inactive)
ROOT
HETATM    1  C1  UNL     1      11.578  19.262  14.272  1.00  0.00     0.002 C
HETATM    2  C2  UNL     1      10.197  18.674  14.335  1.00  0.00     0.019 C
HETATM    3  C3  UNL     1       9.805  18.158  15.669  1.00  0.00     0.117 C
HETATM    4  N1  UNL     1      10.858  17.957  16.597  1.00  0.00    -0.390 N
ATOM      5  H1  UNL     1      10.979  18.552  17.417  1.00  0.00     0.156 HD
HETATM    6  C4  UNL     1      11.737  16.870  16.309  1.00  0.00     0.154 C
HETATM    7  C5  UNL     1      12.211  16.906  14.876  1.00  0.00     0.062 C
HETATM    8  C6  UNL     1      12.671  18.280  14.492  1.00  0.00     0.005 C
HETATM    9  C7  UNL     1      12.887  16.910  17.290  1.00  0.00     0.292 C
HETATM   10  N2  UNL     1      12.565  16.186  18.520  1.00  0.00    -0.069 N
ATOM     11  H21 UNL     1      11.761  16.594  18.997  1.00  0.00     0.277 HD
ATOM     12  H22 UNL     1      13.271  16.341  19.241  1.00  0.00     0.277 HD
HETATM   13  C8  UNL     1      12.369  14.769  18.260  1.00  0.00     0.258 C
HETATM   14  C9  UNL     1      12.000  14.623  16.794  1.00  0.00     0.198 C
HETATM   15  O1  UNL     1      11.092  15.638  16.504  1.00  0.00    -0.358 OA
ENDROOT
TORSDOF 0
ENDMDL