MODEL 1
REMARK VINA RESULT: -5.335956819      0.000      0.000
REMARK  2 active torsions:
REMARK  status: ('A' for Active; 'I' for Inactive)
REMARK    1  A    between atoms: C3_3  and  O1_4
REMARK    2  A    between atoms: C5_7  and  O2_8
ROOT
HETATM    1  C1  UNL     1      15.064  16.177  16.876  1.00  0.00     0.013 C
HETATM    2  C2  UNL     1      13.832  16.865  17.320  1.00  0.00     0.022 C
HETATM    3  C3  UNL     1      12.949  16.067  18.230  1.00  0.00     0.126 C
HETATM    4  C4  UNL     1      11.971  15.353  17.318  1.00  0.00     0.086 C
HETATM    5  C5  UNL     1      12.083  16.013  15.981  1.00  0.00     0.155 C
HETATM    6  C6  UNL     1      10.792  16.349  15.395  1.00  0.00     0.098 C
HETATM    7  N1  UNL     1       9.758  16.607  14.921  1.00  0.00    -0.194 NA
HETATM    8  C7  UNL     1      12.896  17.253  16.220  1.00  0.00     0.003 C
HETATM    9  C8  UNL     1      12.055  18.415  16.717  1.00  0.00     0.019 C
HETATM   10  C9  UNL     1      13.565  17.670  14.957  1.00  0.00     0.019 C
ENDROOT
BRANCH   5  11
HETATM   11  O2  UNL     1      12.731  15.162  15.089  1.00  0.00    -0.374 OA
ATOM     12  H2  UNL     1      12.135  14.914  14.391  1.00  0.00     0.212 HD
ENDBRANCH   5  11
BRANCH   3  13
HETATM   13  O1  UNL     1      13.617  15.211  19.067  1.00  0.00    -0.395 OA
ATOM     14  H1  UNL     1      14.447  15.542  19.390  1.00  0.00     0.210 HD
ENDBRANCH   3  13
TORSDOF 2
ENDMDL