MODEL 1
REMARK VINA RESULT: -5.434566896      0.000      0.000
REMARK  1 active torsions:
REMARK  status: ('A' for Active; 'I' for Inactive)
REMARK    1  A    between atoms: O1_1  and  C1_3
ROOT
HETATM    1  C1  UNL     1      12.718  16.879  17.346  1.00  0.00     0.089 C
HETATM    2  C2  UNL     1      12.393  18.335  17.054  1.00  0.00     0.073 C
HETATM    3  C3  UNL     1      11.148  18.234  16.251  1.00  0.00     0.198 C
HETATM    4  C4  UNL     1      11.352  18.187  14.776  1.00  0.00     0.107 C
HETATM    5  S1  UNL     1      13.115  17.955  14.449  1.00  0.00    -0.162 SA
HETATM    6  C5  UNL     1      13.745  16.444  15.187  1.00  0.00     0.050 C
HETATM    7  C6  UNL     1      12.861  15.265  14.947  1.00  0.00     0.017 C
HETATM    8  C7  UNL     1      11.729  15.092  15.868  1.00  0.00     0.037 C
HETATM    9  C8  UNL     1      11.562  16.057  16.966  1.00  0.00     0.220 C
HETATM   10  N1  UNL     1      10.507  17.049  16.699  1.00  0.00    -0.063 N
ATOM     11  H11 UNL     1       9.795  16.711  16.052  1.00  0.00     0.278 HD
ATOM     12  H12 UNL     1       9.895  17.205  17.499  1.00  0.00     0.278 HD
HETATM   13  C9  UNL     1      14.006  16.558  16.660  1.00  0.00     0.055 C
ENDROOT
BRANCH   1  14
HETATM   14  O1  UNL     1      12.937  16.798  18.733  1.00  0.00    -0.388 OA
ATOM     15  H1  UNL     1      13.836  16.512  18.842  1.00  0.00     0.210 HD
ENDBRANCH   1  14
TORSDOF 1
ENDMDL