MODEL 3
REMARK VINA RESULT: -5.083732948      2.459      3.595
REMARK  2 active torsions:
REMARK  status: ('A' for Active; 'I' for Inactive)
REMARK    1  A    between atoms: C5_5  and  O1_6
REMARK    2  A    between atoms: C7_9  and  O2_10
ROOT
HETATM    1  C1  UNL     1      13.731  15.444  14.306  1.00  0.00     0.015 C
HETATM    2  C2  UNL     1      13.842  16.602  15.314  1.00  0.00    -0.042 C
HETATM    3  C3  UNL     1      15.305  17.044  15.393  1.00  0.00     0.015 C
HETATM    4  C4  UNL     1      13.435  16.056  16.625  1.00  0.00     0.040 C
HETATM    5  C5  UNL     1      12.845  16.986  17.597  1.00  0.00     0.122 C
HETATM    6  C6  UNL     1      12.069  18.123  17.043  1.00  0.00     0.085 C
HETATM    7  C7  UNL     1      11.828  18.081  15.576  1.00  0.00     0.149 C
HETATM    8  C8  UNL     1      10.696  17.227  15.216  1.00  0.00     0.097 C
HETATM    9  N1  UNL     1       9.797  16.552  14.915  1.00  0.00    -0.194 NA
HETATM   10  C9  UNL     1      13.053  17.731  14.781  1.00  0.00     0.062 C
ENDROOT
BRANCH   7  11
HETATM   11  O2  UNL     1      11.458  19.389  15.180  1.00  0.00    -0.375 OA
ATOM     12  H2  UNL     1      10.653  19.310  14.682  1.00  0.00     0.211 HD
ENDBRANCH   7  11
BRANCH   5  13
HETATM   13  O1  UNL     1      11.982  16.266  18.457  1.00  0.00    -0.395 OA
ATOM     14  H1  UNL     1      12.475  15.974  19.215  1.00  0.00     0.210 HD
ENDBRANCH   5  13
TORSDOF 2
ENDMDL