MODEL 1
REMARK VINA RESULT: -5.073632720      0.000      0.000
REMARK  0 active torsions:
REMARK  status: ('A' for Active; 'I' for Inactive)
ROOT
HETATM    1  C1  UNL     1      16.217  16.535  19.176  1.00  0.00     0.002 C
HETATM    2  C2  UNL     1      15.413  15.367  19.657  1.00  0.00     0.002 C
HETATM    3  C3  UNL     1      14.430  15.002  18.601  1.00  0.00     0.033 C
HETATM    4  C4  UNL     1      14.576  16.018  17.475  1.00  0.00     0.054 C
HETATM    5  C5  UNL     1      15.831  16.791  17.750  1.00  0.00     0.033 C
HETATM    6  C6  UNL     1      13.421  17.008  17.496  1.00  0.00     0.106 C
HETATM    7  S1  UNL     1      11.894  16.052  17.512  1.00  0.00    -0.161 SA
HETATM    8  C7  UNL     1      11.940  14.899  16.118  1.00  0.00     0.120 C
HETATM    9  C8  UNL     1      12.691  15.445  14.940  1.00  0.00     0.089 C
HETATM   10  N1  UNL     1      14.030  15.808  15.181  1.00  0.00    -0.319 N
ATOM     11  H1  UNL     1      14.513  16.441  14.542  1.00  0.00     0.185 HD
HETATM   12  N2  UNL     1      14.666  15.317  16.250  1.00  0.00    -0.326 N
ATOM     13  H2  UNL     1      15.205  14.454  16.184  1.00  0.00     0.181 HD
ENDROOT
TORSDOF 0
ENDMDL