MODEL 4
REMARK VINA RESULT: -5.131368809      3.217      4.484
REMARK  1 active torsions:
REMARK  status: ('A' for Active; 'I' for Inactive)
REMARK    1  A    between atoms: O1_1  and  C1_3
ROOT
HETATM    1  C1  UNL     1      13.860  14.893  18.626  1.00  0.00     0.142 C
HETATM    2  C2  UNL     1      15.122  15.496  17.985  1.00  0.00     0.034 C
HETATM    3  C3  UNL     1      14.640  16.445  16.969  1.00  0.00     0.004 C
HETATM    4  C4  UNL     1      15.636  17.426  16.391  1.00  0.00     0.019 C
HETATM    5  C5  UNL     1      14.777  18.157  15.332  1.00  0.00     0.113 C
HETATM    6  N1  UNL     1      13.424  18.297  15.765  1.00  0.00    -0.421 N
ATOM      7  H1  UNL     1      13.177  18.873  16.569  1.00  0.00     0.153 HD
HETATM    8  C6  UNL     1      12.432  17.589  15.016  1.00  0.00     0.115 C
HETATM    9  C7  UNL     1      11.205  17.231  15.804  1.00  0.00     0.045 C
HETATM   10  C8  UNL     1      11.179  15.859  16.382  1.00  0.00     0.169 C
HETATM   11  O2  UNL     1      11.823  15.740  17.612  1.00  0.00    -0.389 OA
HETATM   12  C9  UNL     1      12.741  14.690  17.661  1.00  0.00     0.199 C
ENDROOT
BRANCH   1  13
HETATM   13  O1  UNL     1      14.262  13.621  19.082  1.00  0.00    -0.393 OA
ATOM     14  H1  UNL     1      13.961  13.018  18.413  1.00  0.00     0.210 HD
ENDBRANCH   1  13
TORSDOF 1
ENDMDL