MODEL 4
REMARK VINA RESULT: -5.290748806      1.735      3.010
REMARK  1 active torsions:
REMARK  status: ('A' for Active; 'I' for Inactive)
REMARK    1  A    between atoms: O1_1  and  C1_3
ROOT
HETATM    1  C1  UNL     1      13.629  15.160  18.225  1.00  0.00     0.123 C
HETATM    2  C2  UNL     1      12.191  14.950  17.852  1.00  0.00     0.033 C
HETATM    3  C3  UNL     1      12.069  15.226  16.369  1.00  0.00     0.014 C
HETATM    4  C4  UNL     1      13.292  15.990  16.034  1.00  0.00    -0.006 C
HETATM    5  C5  UNL     1      13.850  15.690  14.660  1.00  0.00     0.042 C
HETATM    6  C6  UNL     1      14.031  17.049  14.041  1.00  0.00     0.273 C
HETATM    7  N1  UNL     1      14.269  17.884  15.232  1.00  0.00     0.089 N
HETATM    8  C7  UNL     1      15.491  17.507  15.903  1.00  0.00     0.273 C
HETATM    9  C8  UNL     1      15.221  16.841  17.249  1.00  0.00     0.038 C
HETATM   10  C9  UNL     1      14.366  15.632  17.030  1.00  0.00     0.026 C
HETATM   11  C10 UNL     1      13.092  17.494  16.025  1.00  0.00     0.282 C
ENDROOT
BRANCH   1  12
HETATM   12  O1  UNL     1      14.136  13.909  18.641  1.00  0.00    -0.395 OA
ATOM     13  H1  UNL     1      14.511  13.492  17.875  1.00  0.00     0.210 HD
ENDBRANCH   1  12
TORSDOF 1
ENDMDL