MODEL 1
REMARK VINA RESULT: -5.053225012      0.000      0.000
REMARK  3 active torsions:
REMARK  status: ('A' for Active; 'I' for Inactive)
REMARK    1  A    between atoms: C2_2  and  N1_4
REMARK    2  A    between atoms: C7_8  and  O1_9
REMARK    3  A    between atoms: C8_11  and  O2_12
ROOT
HETATM    1  N1  UNL     1      13.760  15.515  18.002  1.00  0.00    -0.361 N
HETATM    2  C4  UNL     1      14.619  15.881  16.949  1.00  0.00     0.061 C
HETATM    3  C5  UNL     1      15.384  17.107  17.418  1.00  0.00     0.047 C
HETATM    4  C6  UNL     1      16.245  16.683  18.554  1.00  0.00     0.041 C
HETATM    5  C7  UNL     1      15.675  15.738  19.532  1.00  0.00     0.167 C
HETATM    6  C8  UNL     1      14.431  15.020  19.135  1.00  0.00     0.248 C
ENDROOT
BRANCH   1   7
HETATM    7  C2  UNL     1      12.438  15.195  17.778  1.00  0.00     0.078 C
HETATM    8  C1  UNL     1      12.158  14.922  16.295  1.00  0.00     0.032 C
HETATM    9  C3  UNL     1      11.415  16.201  18.224  1.00  0.00     0.032 C
ENDBRANCH   1   7
BRANCH   6  10
HETATM   10  O2  UNL     1      14.731  13.661  18.874  1.00  0.00    -0.374 OA
ATOM     11  H2  UNL     1      15.215  13.336  19.625  1.00  0.00     0.212 HD
ENDBRANCH   6  10
BRANCH   5  12
HETATM   12  O1  UNL     1      15.495  16.420  20.755  1.00  0.00    -0.391 OA
ATOM     13  H1  UNL     1      16.323  16.417  21.222  1.00  0.00     0.210 HD
ENDBRANCH   5  12
TORSDOF 3
ENDMDL