MODEL 1
REMARK VINA RESULT: -5.158809647      0.000      0.000
REMARK  2 active torsions:
REMARK  status: ('A' for Active; 'I' for Inactive)
REMARK    1  A    between atoms: O1_1  and  C1_3
REMARK    2  A    between atoms: C3_5  and  O2_6
ROOT
HETATM    1  C1  UNL     1      16.480  16.918  19.444  1.00  0.00     0.155 C
HETATM    2  C2  UNL     1      17.914  16.989  18.922  1.00  0.00     0.098 C
HETATM    3  C3  UNL     1      18.668  17.562  20.119  1.00  0.00     0.359 C
HETATM    4  N1  UNL     1      17.730  17.712  21.178  1.00  0.00     0.124 N
HETATM    5  C4  UNL     1      18.261  17.584  22.496  1.00  0.00     0.276 C
HETATM    6  C5  UNL     1      17.098  17.831  23.464  1.00  0.00     0.030 C
HETATM    7  C6  UNL     1      15.981  16.829  23.222  1.00  0.00     0.004 C
HETATM    8  C7  UNL     1      15.527  16.866  21.760  1.00  0.00     0.038 C
HETATM    9  C8  UNL     1      16.741  16.663  20.917  1.00  0.00     0.255 C
ENDROOT
BRANCH   1  10
HETATM   10  O1  UNL     1      15.742  15.936  18.841  1.00  0.00    -0.393 OA
ATOM     11  H1  UNL     1      14.835  15.928  19.125  1.00  0.00     0.210 HD
ENDBRANCH   1  10
BRANCH   3  12
HETATM   12  O2  UNL     1      19.777  16.805  20.447  1.00  0.00    -0.368 OA
ATOM     13  H2  UNL     1      20.081  16.978  21.331  1.00  0.00     0.212 HD
ENDBRANCH   3  12
TORSDOF 2
ENDMDL