MODEL 5
REMARK VINA RESULT: -4.704898177      1.560      3.375
REMARK  2 active torsions:
REMARK  status: ('A' for Active; 'I' for Inactive)
REMARK    1  A    between atoms: C2_2  and  O1_3
REMARK    2  A    between atoms: C8_11  and  O3_12
ROOT
HETATM    1  C1  UNL     1      13.349  17.926  14.186  1.00  0.00     0.045 C
HETATM    2  C2  UNL     1      13.768  16.952  15.293  1.00  0.00     0.057 C
HETATM    3  C3  UNL     1      13.208  15.615  14.931  1.00  0.00     0.040 C
HETATM    4  C4  UNL     1      12.001  15.245  15.785  1.00  0.00     0.037 C
HETATM    5  C5  UNL     1      12.473  14.953  17.180  1.00  0.00     0.153 C
HETATM    6  O2  UNL     1      13.785  15.320  17.410  1.00  0.00    -0.375 OA
HETATM    7  C6  UNL     1      13.346  16.594  17.745  1.00  0.00     0.156 C
HETATM    8  C7  UNL     1      13.206  17.510  16.578  1.00  0.00     0.072 C
HETATM    9  C8  UNL     1      12.009  16.029  18.122  1.00  0.00     0.176 C
ENDROOT
BRANCH   2  10
HETATM   10  O1  UNL     1      15.149  16.910  15.430  1.00  0.00    -0.390 OA
ATOM     11  H1  UNL     1      15.408  16.307  16.116  1.00  0.00     0.210 HD
ENDBRANCH   2  10
BRANCH   9  12
HETATM   12  O3  UNL     1      10.916  16.761  17.692  1.00  0.00    -0.390 OA
ATOM     13  H3  UNL     1      10.656  17.475  18.261  1.00  0.00     0.210 HD
ENDBRANCH   9  12
TORSDOF 2
ENDMDL