MODEL 3
REMARK VINA RESULT: -4.728124687      3.259      4.408
REMARK  3 active torsions:
REMARK  status: ('A' for Active; 'I' for Inactive)
REMARK    1  A    between atoms: O1_2  and  C2_3
REMARK    2  A    between atoms: C2_3  and  O2_4
REMARK    3  A    between atoms: C7_10  and  O3_11
ROOT
HETATM    1  C2  UNL     1      15.543  16.224  19.338  1.00  0.00     0.163 C
HETATM    2  C3  UNL     1      16.448  17.219  18.656  1.00  0.00     0.068 C
HETATM    3  C4  UNL     1      17.901  16.920  18.830  1.00  0.00     0.005 C
HETATM    4  C5  UNL     1      18.535  17.650  19.988  1.00  0.00     0.003 C
HETATM    5  C6  UNL     1      18.071  16.931  21.244  1.00  0.00     0.032 C
HETATM    6  C7  UNL     1      16.595  17.210  21.390  1.00  0.00     0.123 C
HETATM    7  C8  UNL     1      15.746  16.115  20.801  1.00  0.00     0.100 C
ENDROOT
BRANCH   1   8
HETATM    8  O1  UNL     1      15.639  15.014  18.653  1.00  0.00    -0.360 OA
HETATM    9  C1  UNL     1      14.549  14.207  18.983  1.00  0.00     0.205 C
ENDBRANCH   1   8
BRANCH   1  10
HETATM   10  O2  UNL     1      14.222  16.680  19.119  1.00  0.00    -0.365 OA
ATOM     11  H2  UNL     1      14.040  17.286  19.829  1.00  0.00     0.213 HD
ENDBRANCH   1  10
BRANCH   6  12
HETATM   12  O3  UNL     1      16.311  17.285  22.752  1.00  0.00    -0.395 OA
ATOM     13  H3  UNL     1      17.064  17.674  23.183  1.00  0.00     0.210 HD
ENDBRANCH   6  12
TORSDOF 3
ENDMDL