MODEL 4
REMARK VINA RESULT: -4.638445328      1.641      1.804
REMARK  2 active torsions:
REMARK  status: ('A' for Active; 'I' for Inactive)
REMARK    1  A    between atoms: C2_2  and  O1_3
REMARK    2  A    between atoms: C8_11  and  O3_12
ROOT
HETATM    1  C1  UNL     1      15.364  16.093  19.747  1.00  0.00     0.049 C
HETATM    2  C2  UNL     1      14.633  15.509  18.532  1.00  0.00     0.082 C
HETATM    3  C3  UNL     1      14.307  16.568  17.549  1.00  0.00     0.072 C
HETATM    4  C4  UNL     1      12.872  16.966  17.486  1.00  0.00     0.130 C
HETATM    5  O2  UNL     1      12.307  17.515  18.606  1.00  0.00    -0.385 OA
HETATM    6  C5  UNL     1      11.200  16.657  18.493  1.00  0.00     0.175 C
HETATM    7  C6  UNL     1      11.901  15.846  17.454  1.00  0.00     0.041 C
HETATM    8  C7  UNL     1      12.493  14.546  17.892  1.00  0.00     0.044 C
HETATM    9  C8  UNL     1      13.473  14.712  19.024  1.00  0.00     0.152 C
ENDROOT
BRANCH   2  10
HETATM   10  O1  UNL     1      15.577  14.643  17.929  1.00  0.00    -0.388 OA
ATOM     11  H1  UNL     1      15.747  15.029  17.077  1.00  0.00     0.210 HD
ENDBRANCH   2  10
BRANCH   9  12
HETATM   12  O3  UNL     1      13.883  13.438  19.415  1.00  0.00    -0.393 OA
ATOM     13  H3  UNL     1      13.292  13.082  20.069  1.00  0.00     0.210 HD
ENDBRANCH   9  12
TORSDOF 2
ENDMDL