MODEL 3
REMARK VINA RESULT: -4.888579321      4.727      6.359
REMARK  1 active torsions:
REMARK  status: ('A' for Active; 'I' for Inactive)
REMARK    1  A    between atoms: O1_1  and  C1_3
ROOT
HETATM    1  C1  UNL     1      14.486  14.939  18.846  1.00  0.00     0.214 C
HETATM    2  S1  UNL     1      15.761  16.262  18.897  1.00  0.00    -0.105 SA
HETATM    3  C2  UNL     1      15.286  17.050  17.303  1.00  0.00     0.349 C
HETATM    4  N1  UNL     1      13.914  16.581  17.222  1.00  0.00     0.105 N
HETATM    5  C3  UNL     1      13.368  16.908  15.967  1.00  0.00     0.274 C
HETATM    6  C4  UNL     1      12.160  16.181  15.526  1.00  0.00     0.030 C
HETATM    7  C5  UNL     1      11.943  14.835  16.110  1.00  0.00     0.004 C
HETATM    8  C6  UNL     1      12.430  14.768  17.518  1.00  0.00     0.039 C
HETATM    9  C7  UNL     1      13.901  15.177  17.478  1.00  0.00     0.262 C
ENDROOT
BRANCH   1  10
HETATM   10  O1  UNL     1      15.180  13.735  18.798  1.00  0.00    -0.383 OA
ATOM     11  H1  UNL     1      14.935  13.321  17.979  1.00  0.00     0.211 HD
ENDBRANCH   1  10
TORSDOF 1
ENDMDL