MODEL 4
REMARK VINA RESULT: -4.456786520      1.574      3.656
REMARK  2 active torsions:
REMARK  status: ('A' for Active; 'I' for Inactive)
REMARK    1  A    between atoms: C6_7  and  O2_8
REMARK    2  A    between atoms: C8_11  and  O3_12
ROOT
HETATM    1  C1  UNL     1      12.803  18.253  14.258  1.00  0.00     0.042 C
HETATM    2  C2  UNL     1      13.306  17.312  15.315  1.00  0.00     0.147 C
HETATM    3  O1  UNL     1      12.357  17.203  16.312  1.00  0.00    -0.371 OA
HETATM    4  C3  UNL     1      12.602  16.167  17.190  1.00  0.00     0.080 C
HETATM    5  C4  UNL     1      11.590  16.339  18.332  1.00  0.00     0.048 C
HETATM    6  C5  UNL     1      12.187  14.880  16.481  1.00  0.00     0.048 C
HETATM    7  C6  UNL     1      13.974  16.112  17.737  1.00  0.00     0.154 C
HETATM    8  C7  UNL     1      15.025  16.841  17.012  1.00  0.00     0.069 C
HETATM    9  C8  UNL     1      14.573  17.802  15.968  1.00  0.00     0.149 C
ENDROOT
BRANCH   7  10
HETATM   10  O2  UNL     1      14.356  14.754  17.850  1.00  0.00    -0.392 OA
ATOM     11  H2  UNL     1      14.362  14.519  18.771  1.00  0.00     0.210 HD
ENDBRANCH   7  10
BRANCH   9  12
HETATM   12  O3  UNL     1      15.594  17.952  15.014  1.00  0.00    -0.393 OA
ATOM     13  H3  UNL     1      16.447  17.883  15.425  1.00  0.00     0.210 HD
ENDBRANCH   9  12
TORSDOF 2
ENDMDL