MODEL 4
REMARK VINA RESULT: -4.186415658      1.748      1.914
REMARK  1 active torsions:
REMARK  status: ('A' for Active; 'I' for Inactive)
REMARK    1  A    between atoms: C4_4  and  O1_5
ROOT
HETATM    1  C1  UNL     1      16.648  16.933  18.740  1.00  0.00     0.014 C
HETATM    2  C2  UNL     1      15.182  16.542  18.657  1.00  0.00     0.038 A
HETATM    3  C3  UNL     1      14.767  15.509  17.671  1.00  0.00     0.068 A
HETATM    4  C4  UNL     1      13.547  14.669  17.876  1.00  0.00     0.128 C
HETATM    5  C5  UNL     1      12.388  15.384  18.457  1.00  0.00     0.058 C
HETATM    6  C6  UNL     1      12.458  16.877  18.378  1.00  0.00     0.172 C
HETATM    7  O2  UNL     1      13.219  17.328  17.312  1.00  0.00    -0.368 OA
HETATM    8  C7  UNL     1      14.529  16.922  17.364  1.00  0.00     0.129 A
HETATM    9  S1  UNL     1      15.568  17.658  16.048  1.00  0.00    -0.055 SA
ENDROOT
BRANCH   4  10
HETATM   10  O1  UNL     1      13.846  13.577  18.711  1.00  0.00    -0.395 OA
ATOM     11  H1  UNL     1      14.011  12.801  18.187  1.00  0.00     0.210 HD
ENDBRANCH   4  10
TORSDOF 1
ENDMDL