MODEL 2
REMARK VINA RESULT: -4.750562714      2.139      3.615
REMARK  2 active torsions:
REMARK  status: ('A' for Active; 'I' for Inactive)
REMARK    1  A    between atoms: C6_6  and  O1_7
REMARK    2  A    between atoms: C8_11  and  O3_12
ROOT
HETATM    1  C1  UNL     1      14.938  15.641  13.997  1.00  0.00     0.012 C
HETATM    2  C2  UNL     1      14.044  16.003  15.175  1.00  0.00     0.012 C
HETATM    3  C3  UNL     1      12.617  15.674  14.890  1.00  0.00     0.007 C
HETATM    4  C4  UNL     1      11.980  14.799  15.899  1.00  0.00     0.005 C
HETATM    5  C5  UNL     1      12.452  14.934  17.298  1.00  0.00     0.060 C
HETATM    6  C6  UNL     1      12.629  16.290  17.835  1.00  0.00     0.256 C
HETATM    7  O2  UNL     1      12.394  17.329  16.969  1.00  0.00    -0.359 OA
HETATM    8  C7  UNL     1      13.527  18.020  16.596  1.00  0.00     0.203 C
HETATM    9  C8  UNL     1      14.294  17.449  15.478  1.00  0.00     0.145 C
ENDROOT
BRANCH   6  10
HETATM   10  O1  UNL     1      11.814  16.523  18.971  1.00  0.00    -0.371 OA
ATOM     11  H1  UNL     1      10.968  16.886  18.736  1.00  0.00     0.212 HD
ENDBRANCH   6  10
BRANCH   9  12
HETATM   12  O3  UNL     1      15.667  17.569  15.758  1.00  0.00    -0.393 OA
ATOM     13  H3  UNL     1      15.812  17.137  16.591  1.00  0.00     0.210 HD
ENDBRANCH   9  12
TORSDOF 2
ENDMDL