MODEL 4
REMARK VINA RESULT: -4.824514259      1.747      2.700
REMARK  2 active torsions:
REMARK  status: ('A' for Active; 'I' for Inactive)
REMARK    1  A    between atoms: O1_1  and  C1_3
REMARK    2  A    between atoms: C9_11  and  O2_12
ROOT
HETATM    1  C1  UNL     1      13.034  14.709  17.940  1.00  0.00     0.152 C
HETATM    2  C2  UNL     1      12.342  15.367  16.743  1.00  0.00     0.035 C
HETATM    3  C3  UNL     1      13.397  16.293  16.138  1.00  0.00     0.010 C
HETATM    4  C4  UNL     1      14.613  16.099  16.991  1.00  0.00     0.023 C
HETATM    5  C5  UNL     1      15.444  17.324  17.174  1.00  0.00     0.007 C
HETATM    6  C6  UNL     1      16.554  16.931  18.145  1.00  0.00     0.001 C
HETATM    7  C7  UNL     1      15.996  16.527  19.489  1.00  0.00     0.003 C
HETATM    8  C8  UNL     1      14.954  15.446  19.389  1.00  0.00     0.041 C
HETATM    9  C9  UNL     1      13.954  15.808  18.342  1.00  0.00     0.087 C
ENDROOT
BRANCH   1  10
HETATM   10  O1  UNL     1      12.153  14.296  18.895  1.00  0.00    -0.393 OA
ATOM     11  H1  UNL     1      12.254  14.766  19.714  1.00  0.00     0.210 HD
ENDBRANCH   1  10
BRANCH   9  12
HETATM   12  O2  UNL     1      13.205  16.927  18.652  1.00  0.00    -0.387 OA
ATOM     13  H2  UNL     1      13.769  17.572  19.061  1.00  0.00     0.210 HD
ENDBRANCH   9  12
TORSDOF 2
ENDMDL