MODEL 2
REMARK VINA RESULT: -6.868470668      3.168      5.937
REMARK  13 active torsions:
REMARK  status: ('A' for Active; 'I' for Inactive)
REMARK    1  A    between atoms: N1_1  and  C1_4
REMARK    2  A    between atoms: C1_4  and  C2_5
REMARK    3  A    between atoms: N2_10  and  N3_11
REMARK    4  A    between atoms: N3_11  and  O3_13
REMARK    5  A    between atoms: C6_20  and  O5_21
REMARK    6  A    between atoms: C7_23  and  C8_24
REMARK    7  A    between atoms: C8_24  and  C9_25
REMARK    8  A    between atoms: C9_25  and  C10_26
REMARK    9  A    between atoms: C10_26  and  N6_27
REMARK   10  A    between atoms: N7_31  and  N8_33
REMARK   11  A    between atoms: N8_33  and  C11_35
REMARK   12  A    between atoms: C11_35  and  O6_36
REMARK   13  A    between atoms: N9_38  and  O7_40
ROOT
HETATM    1  C2  UNL     1       0.421 -19.513   4.343  1.00  0.00     0.112 A
HETATM    2  C3  UNL     1      -0.560 -18.986   5.207  1.00  0.00     0.264 A
HETATM    3  O1  UNL     1      -1.019 -17.858   5.020  1.00  0.00    -0.281 OA
HETATM    4  C4  UNL     1      -1.012 -19.737   6.267  1.00  0.00     0.335 A
HETATM    5  O2  UNL     1      -1.885 -19.320   7.068  1.00  0.00    -0.260 OA
HETATM    6  N2  UNL     1      -0.467 -20.953   6.407  1.00  0.00    -0.122 N
HETATM    7  N4  UNL     1       0.446 -21.472   5.610  1.00  0.00    -0.177 N
HETATM    8  C5  UNL     1       0.972 -22.666   5.905  1.00  0.00     0.349 A
HETATM    9  O4  UNL     1       0.531 -23.306   6.916  1.00  0.00    -0.244 OA
HETATM   10  N5  UNL     1       1.929 -23.167   5.162  1.00  0.00    -0.287 N
ATOM     11  H5  UNL     1       2.328 -24.074   5.405  1.00  0.00     0.172 HD
HETATM   12  C6  UNL     1       2.397 -22.501   4.074  1.00  0.00     0.158 A
HETATM   13  C7  UNL     1       1.891 -21.241   3.684  1.00  0.00     0.070 A
HETATM   14  C12 UNL     1       0.915 -20.749   4.519  1.00  0.00     0.104 A
ENDROOT
BRANCH  13  15
HETATM   15  C8  UNL     1       2.052 -20.811   2.305  1.00  0.00     0.044 C
HETATM   16  N7  UNL     1       1.404 -20.676   1.326  1.00  0.00    -0.301 N
ATOM     17  H7  UNL     1       0.457 -20.953   1.585  1.00  0.00     0.186 HD
BRANCH  15  18
HETATM   18  C9  UNL     1       3.522 -20.454   2.043  1.00  0.00     0.087 C
BRANCH  18  19
HETATM   19  C10 UNL     1       4.276 -19.907   3.199  1.00  0.00     0.235 C
BRANCH  19  20
HETATM   20  N6  UNL     1       5.022 -18.766   2.528  1.00  0.00    -0.079 N
ATOM     21  H63 UNL     1       5.947 -18.561   2.907  1.00  0.00     0.274 HD
ATOM     22  H62 UNL     1       5.357 -18.953   1.583  1.00  0.00     0.274 HD
ATOM     23  H61 UNL     1       4.334 -18.019   2.612  1.00  0.00     0.274 HD
ENDBRANCH  19  20
ENDBRANCH  18  19
ENDBRANCH  15  18
BRANCH  16  24
HETATM   24  N8  UNL     1       1.334 -20.327   0.030  1.00  0.00    -0.264 N
ATOM     25  H8  UNL     1       2.200 -19.922  -0.326  1.00  0.00     0.190 HD
BRANCH  24  26
HETATM   26  C11 UNL     1       0.312 -20.405  -0.940  1.00  0.00     0.256 C
HETATM   27  N9  UNL     1      -0.544 -21.359  -0.895  1.00  0.00    -0.232 N
ATOM     28  H9  UNL     1      -0.454 -22.043  -0.143  1.00  0.00     0.198 HD
BRANCH  26  29
HETATM   29  O6  UNL     1       0.173 -19.483  -1.972  1.00  0.00    -0.330 OA
ATOM     30  H6  UNL     1       0.224 -18.544  -1.839  1.00  0.00     0.221 HD
ENDBRANCH  26  29
BRANCH  27  31
HETATM   31  O7  UNL     1      -1.563 -21.523  -1.779  1.00  0.00    -0.287 OA
ATOM     32  H7  UNL     1      -2.379 -21.037  -1.758  1.00  0.00     0.244 HD
ENDBRANCH  27  31
ENDBRANCH  24  26
ENDBRANCH  16  24
ENDBRANCH  13  15
BRANCH  12  33
HETATM   33  O5  UNL     1       3.396 -23.147   3.408  1.00  0.00    -0.345 OA
ATOM     34  H5  UNL     1       3.596 -22.780   2.555  1.00  0.00     0.219 HD
ENDBRANCH  12  33
BRANCH   1  35
HETATM   35  C1  UNL     1       1.233 -18.467   3.704  1.00  0.00    -0.030 C
BRANCH  35  36
HETATM   36  N1  UNL     1       1.804 -17.499   3.280  1.00  0.00    -0.365 N
ATOM     37  H12 UNL     1       1.143 -17.529   2.503  1.00  0.00     0.165 HD
ATOM     38  H11 UNL     1       2.375 -16.689   3.039  1.00  0.00     0.165 HD
ENDBRANCH  35  36
ENDBRANCH   1  35
BRANCH   6  39
HETATM   39  N3  UNL     1      -0.895 -21.762   7.496  1.00  0.00    -0.185 N
ATOM     40  H3  UNL     1      -1.235 -22.708   7.323  1.00  0.00     0.218 HD
BRANCH  39  41
HETATM   41  O3  UNL     1      -0.855 -21.316   8.672  1.00  0.00    -0.273 OA
ATOM     42  H3  UNL     1      -0.490 -21.844   9.372  1.00  0.00     0.246 HD
ENDBRANCH  39  41
ENDBRANCH   6  39
TORSDOF 13
ENDMDL