MODEL 1
REMARK VINA RESULT: -8.044663607      0.000      0.000
REMARK  8 active torsions:
REMARK  status: ('A' for Active; 'I' for Inactive)
REMARK    1  A    between atoms: C2_5  and  C3_6
REMARK    2  A    between atoms: C2_5  and  C6_14
REMARK    3  A    between atoms: C3_6  and  N3_7
REMARK    4  A    between atoms: C6_14  and  N6_15
REMARK    5  A    between atoms: C8_21  and  N9_22
REMARK    6  A    between atoms: C9_27  and  N11_28
REMARK    7  A    between atoms: C11_32  and  C12_33
REMARK    8  A    between atoms: C13_42  and  N16_43
ROOT
HETATM    1  N1  UNL     1      -0.914 -23.893   6.028  1.00  0.00    -0.172 NA
HETATM    2  C1  UNL     1      -0.741 -22.996   6.720  1.00  0.00     0.181 C
HETATM    3  N2  UNL     1      -0.541 -21.918   7.572  1.00  0.00    -0.298 N
ATOM      4  H2  UNL     1      -0.221 -22.108   8.521  1.00  0.00     0.177 HD
HETATM    5  C2  UNL     1      -0.736 -20.689   7.232  1.00  0.00     0.036 C
ENDROOT
BRANCH   5   6
HETATM    6  C3  UNL     1      -1.202 -20.425   5.848  1.00  0.00     0.204 C
BRANCH   6   7
HETATM    7  N3  UNL     1      -0.174 -19.862   4.998  1.00  0.00    -0.282 N
HETATM    8  C4  UNL     1       0.781 -20.636   4.402  1.00  0.00     0.130 A
HETATM    9  C5  UNL     1       1.613 -19.826   3.660  1.00  0.00     0.127 A
HETATM   10  N4  UNL     1       1.138 -18.573   3.828  1.00  0.00    -0.296 N
HETATM   11  N5  UNL     1       0.102 -18.653   4.613  1.00  0.00    -0.241 N
ATOM     12  H4  UNL     1       1.519 -17.722   3.417  1.00  0.00     0.187 HD
ATOM     13  H5  UNL     1      -0.444 -17.840   4.898  1.00  0.00     0.208 HD
ENDBRANCH   6   7
ENDBRANCH   5   6
BRANCH   5  14
HETATM   14  C6  UNL     1      -0.508 -19.599   8.175  1.00  0.00     0.205 C
BRANCH  14  15
HETATM   15  N6  UNL     1      -1.629 -18.683   8.320  1.00  0.00    -0.269 N
HETATM   16  N7  UNL     1      -2.803 -19.027   8.829  1.00  0.00    -0.280 N
HETATM   17  C7  UNL     1      -3.826 -18.180   8.956  1.00  0.00     0.150 A
ATOM     18  H7  UNL     1      -2.931 -19.991   9.139  1.00  0.00     0.189 HD
HETATM   19  N8  UNL     1      -5.002 -18.552   9.474  1.00  0.00    -0.175 N
HETATM   20  C10 UNL     1      -3.702 -16.848   8.544  1.00  0.00     0.072 A
HETATM   21  C8  UNL     1      -6.055 -17.758   9.626  1.00  0.00     0.679 A
ATOM     22  H8  UNL     1      -5.097 -19.522   9.776  1.00  0.00     0.186 HD
HETATM   23  N10 UNL     1      -5.932 -16.483   9.230  1.00  0.00    -0.176 N
HETATM   24  C9  UNL     1      -4.791 -16.021   8.700  1.00  0.00     0.130 A
ATOM     25  H10 UNL     1      -6.725 -15.851   9.334  1.00  0.00     0.186 HD
HETATM   26  C11 UNL     1      -2.510 -16.451   8.015  1.00  0.00     0.073 A
HETATM   27  C13 UNL     1      -1.501 -17.426   7.927  1.00  0.00     0.131 A
BRANCH  21  28
HETATM   28  N9  UNL     1      -7.177 -18.151  10.130  1.00  0.00    -0.234 N
ATOM     29  H92 UNL     1      -7.237 -19.087  10.531  1.00  0.00     0.174 HD
ATOM     30  H91 UNL     1      -8.017 -17.573  10.152  1.00  0.00     0.174 HD
ENDBRANCH  21  28
BRANCH  24  31
HETATM   31  N11 UNL     1      -4.732 -14.798   8.341  1.00  0.00    -0.384 N
ATOM     32 2H11 UNL     1      -5.296 -14.091   8.812  1.00  0.00     0.157 HD
ATOM     33 1H11 UNL     1      -4.109 -14.541   7.574  1.00  0.00     0.157 HD
ENDBRANCH  24  31
BRANCH  26  34
HETATM   34  C12 UNL     1      -2.263 -15.110   7.559  1.00  0.00     0.152 A
HETATM   35  N12 UNL     1      -1.513 -14.175   8.156  1.00  0.00    -0.268 N
HETATM   36  N13 UNL     1      -1.508 -13.079   7.383  1.00  0.00    -0.227 N
ATOM     37  H12 UNL     1      -1.028 -14.279   9.047  1.00  0.00     0.190 HD
HETATM   38  N14 UNL     1      -2.243 -13.309   6.312  1.00  0.00    -0.227 N
ATOM     39  H13 UNL     1      -1.017 -12.209   7.590  1.00  0.00     0.210 HD
HETATM   40  N15 UNL     1      -2.707 -14.562   6.423  1.00  0.00    -0.268 N
ATOM     41  H14 UNL     1      -2.423 -12.659   5.546  1.00  0.00     0.210 HD
ATOM     42  H15 UNL     1      -3.309 -15.027   5.744  1.00  0.00     0.190 HD
ENDBRANCH  26  34
BRANCH  27  43
HETATM   43  N16 UNL     1      -0.382 -17.037   7.424  1.00  0.00    -0.383 N
ATOM     44 2H16 UNL     1       0.256 -17.775   7.127  1.00  0.00     0.157 HD
ATOM     45 1H16 UNL     1      -0.191 -16.038   7.349  1.00  0.00     0.157 HD
ENDBRANCH  27  43
ENDBRANCH  14  15
ENDBRANCH   5  14
TORSDOF 8
ENDMDL