MODEL 4
REMARK VINA RESULT: -8.807945894      1.492      1.752
REMARK  8 active torsions:
REMARK  status: ('A' for Active; 'I' for Inactive)
REMARK    1  A    between atoms: C2_5  and  S1_6
REMARK    2  A    between atoms: S1_6  and  N3_9
REMARK    3  A    between atoms: C4_11  and  C5_12
REMARK    4  A    between atoms: C5_12  and  S2_13
REMARK    5  A    between atoms: S2_13  and  C6_14
REMARK    6  A    between atoms: N5_17  and  N6_18
REMARK    7  A    between atoms: C8_21  and  N7_22
REMARK    8  A    between atoms: N8_25  and  N9_26
ROOT
HETATM    1  N3  UNL     1       1.307 -19.093   5.050  1.00  0.00    -0.193 N
HETATM    2  C3  UNL     1      -0.025 -19.278   5.171  1.00  0.00     0.140 A
HETATM    3  C4  UNL     1      -0.334 -19.700   6.422  1.00  0.00     0.040 A
HETATM    4  N10 UNL     1       0.876 -19.767   7.072  1.00  0.00    -0.309 N
ATOM      5  H10 UNL     1       1.018 -20.051   8.041  1.00  0.00     0.170 HD
HETATM    6  C9  UNL     1       1.823 -19.401   6.229  1.00  0.00     0.340 A
HETATM    7  O3  UNL     1       3.055 -19.344   6.488  1.00  0.00    -0.245 OA
ENDROOT
BRANCH   3   8
HETATM    8  C5  UNL     1      -1.639 -20.044   7.042  1.00  0.00     0.139 C
BRANCH   8   9
HETATM    9  S2  UNL     1      -1.944 -19.116   8.481  1.00  0.00    -0.100 SA
BRANCH   9  10
HETATM   10  C6  UNL     1      -2.874 -17.665   8.449  1.00  0.00     0.154 A
HETATM   11  C7  UNL     1      -2.738 -16.458   7.835  1.00  0.00     0.191 A
HETATM   12  N4  UNL     1      -1.629 -16.040   7.068  1.00  0.00    -0.077 NA
HETATM   13  N5  UNL     1      -3.800 -15.639   8.081  1.00  0.00    -0.074 N
HETATM   14  C8  UNL     1      -4.599 -16.378   8.872  1.00  0.00     0.720 A
HETATM   15  N8  UNL     1      -4.087 -17.571   9.107  1.00  0.00    -0.081 N
BRANCH  13  16
HETATM   16  N6  UNL     1      -3.983 -14.343   7.610  1.00  0.00    -0.323 N
ATOM     17  H62 UNL     1      -3.288 -13.670   7.290  1.00  0.00     0.178 HD
ATOM     18  H61 UNL     1      -4.868 -13.849   7.505  1.00  0.00     0.178 HD
ENDBRANCH  13  16
BRANCH  14  19
HETATM   19  N7  UNL     1      -5.723 -15.915   9.315  1.00  0.00    -0.231 N
ATOM     20  H72 UNL     1      -6.268 -15.149   8.918  1.00  0.00     0.174 HD
ATOM     21  H71 UNL     1      -6.170 -16.308  10.143  1.00  0.00     0.174 HD
ENDBRANCH  14  19
BRANCH  15  22
HETATM   22  N9  UNL     1      -4.695 -18.544   9.893  1.00  0.00    -0.323 N
ATOM     23  H92 UNL     1      -4.312 -19.475  10.055  1.00  0.00     0.178 HD
ATOM     24  H91 UNL     1      -5.578 -18.465  10.398  1.00  0.00     0.178 HD
ENDBRANCH  15  22
ENDBRANCH   9  10
ENDBRANCH   8   9
ENDBRANCH   3   8
BRANCH   1  25
HETATM   25  S1  UNL     1       2.093 -18.558   3.634  1.00  0.00     0.307 S
HETATM   26  O1  UNL     1       1.468 -17.291   3.123  1.00  0.00    -0.196 OA
HETATM   27  O2  UNL     1       3.525 -18.250   3.970  1.00  0.00    -0.196 OA
BRANCH  25  28
HETATM   28  C2  UNL     1       2.014 -19.752   2.352  1.00  0.00     0.256 A
HETATM   29  N2  UNL     1       2.909 -20.563   1.754  1.00  0.00    -0.257 N
HETATM   30  N1  UNL     1       1.999 -21.082   0.950  1.00  0.00    -0.234 N
ATOM     31  H2  UNL     1       3.909 -20.717   1.876  1.00  0.00     0.191 HD
HETATM   32  C1  UNL     1       1.940 -22.090  -0.123  1.00  0.00     0.200 C
HETATM   33  N11 UNL     1       1.104 -20.293   1.526  1.00  0.00    -0.257 N
ATOM     34  H11 UNL     1       0.102 -20.150   1.393  1.00  0.00     0.191 HD
ENDBRANCH  25  28
ENDBRANCH   1  25
TORSDOF 8
ENDMDL