MODEL 4
REMARK VINA RESULT: -8.117446407      1.173      2.012
REMARK  11 active torsions:
REMARK  status: ('A' for Active; 'I' for Inactive)
REMARK    1  A    between atoms: S1_2  and  C2_3
REMARK    2  A    between atoms: C2_3  and  C3_4
REMARK    3  A    between atoms: C4_6  and  N1_7
REMARK       I    between atoms: N1_7  and  C5_9
REMARK       I    between atoms: C5_9  and  N3_11
REMARK    4  A    between atoms: N3_11  and  N4_13
REMARK    5  A    between atoms: N4_13  and  C6_15
REMARK    6  A    between atoms: C6_15  and  C8_17
REMARK    7  A    between atoms: N7_22  and  N8_23
REMARK    8  A    between atoms: N8_23  and  N9_24
REMARK    9  A    between atoms: N8_23  and  N10_27
REMARK   10  A    between atoms: N10_27  and  N11_28
REMARK   11  A    between atoms: C9_35  and  O1_36
ROOT
HETATM    1  N4  UNL     1      -0.440 -20.004   6.303  1.00  0.00    -0.299 N
ATOM      2  H4  UNL     1      -0.990 -20.124   5.452  1.00  0.00     0.186 HD
ENDROOT
BRANCH   1   3
HETATM    3  N3  UNL     1       0.870 -19.753   6.271  1.00  0.00    -0.273 N
HETATM    4  C5  UNL     1       1.774 -19.257   5.616  1.00  0.00     0.209 C
HETATM    5  N1  UNL     1       1.737 -18.632   4.352  1.00  0.00    -0.309 N
HETATM    6  N2  UNL     1       3.130 -19.346   6.178  1.00  0.00    -0.062 NA
ATOM      7  H1  UNL     1       1.349 -17.695   4.237  1.00  0.00     0.170 HD
ATOM      8  H3  UNL     1       1.276 -20.120   7.132  1.00  0.00     0.189 HD
BRANCH   5   9
HETATM    9  C4  UNL     1       2.218 -19.298   3.325  1.00  0.00     0.153 A
HETATM   10  S2  UNL     1       1.373 -20.253   2.174  1.00  0.00    -0.053 SA
HETATM   11  C3  UNL     1       2.726 -20.745   1.241  1.00  0.00     0.046 A
HETATM   12  C9  UNL     1       3.766 -20.137   1.884  1.00  0.00     0.156 A
HETATM   13  N13 UNL     1       3.497 -19.417   2.925  1.00  0.00    -0.316 N
ATOM     14  H13 UNL     1       4.244 -18.945   3.435  1.00  0.00     0.170 HD
BRANCH  11  15
HETATM   15  C2  UNL     1       2.846 -21.685   0.055  1.00  0.00     0.124 C
BRANCH  15  16
HETATM   16  S1  UNL     1       2.201 -23.299   0.599  1.00  0.00    -0.168 SA
HETATM   17  C1  UNL     1       2.941 -23.819   2.146  1.00  0.00     0.090 C
ENDBRANCH  15  16
ENDBRANCH  11  15
BRANCH  12  18
HETATM   18  O1  UNL     1       5.088 -20.309   1.387  1.00  0.00    -0.345 OA
ATOM     19  H1  UNL     1       5.796 -20.474   1.998  1.00  0.00     0.219 HD
ENDBRANCH  12  18
ENDBRANCH   5   9
ENDBRANCH   1   3
BRANCH   1  20
HETATM   20  C6  UNL     1      -0.977 -20.087   7.501  1.00  0.00     0.068 C
HETATM   21  C7  UNL     1      -0.853 -21.300   8.334  1.00  0.00     0.074 C
BRANCH  20  22
HETATM   22  C8  UNL     1      -1.762 -18.983   8.006  1.00  0.00     0.163 A
HETATM   23  N5  UNL     1      -2.386 -18.807   9.149  1.00  0.00    -0.265 N
HETATM   24  N6  UNL     1      -2.870 -17.571   9.212  1.00  0.00    -0.202 N
ATOM     25  H5  UNL     1      -2.484 -19.513   9.879  1.00  0.00     0.190 HD
HETATM   26  N7  UNL     1      -2.560 -16.918   8.114  1.00  0.00    -0.079 N
ATOM     27  H6  UNL     1      -3.401 -17.186   9.993  1.00  0.00     0.212 HD
HETATM   28  N12 UNL     1      -1.877 -17.768   7.342  1.00  0.00    -0.242 N
ATOM     29  H12 UNL     1      -1.502 -17.559   6.417  1.00  0.00     0.192 HD
BRANCH  26  30
HETATM   30  N8  UNL     1      -2.832 -15.566   7.775  1.00  0.00    -0.084 N
BRANCH  30  31
HETATM   31  N9  UNL     1      -4.030 -15.010   8.159  1.00  0.00    -0.307 N
ATOM     32  H92 UNL     1      -4.252 -14.912   9.150  1.00  0.00     0.180 HD
ATOM     33  H91 UNL     1      -4.714 -14.764   7.443  1.00  0.00     0.180 HD
ENDBRANCH  30  31
BRANCH  30  34
HETATM   34  N10 UNL     1      -1.865 -14.776   7.144  1.00  0.00     0.013 NA
BRANCH  34  35
HETATM   35  N11 UNL     1      -1.170 -13.990   8.022  1.00  0.00    -0.326 N
ATOM     36 2H11 UNL     1      -1.435 -13.889   9.002  1.00  0.00     0.174 HD
ATOM     37 1H11 UNL     1      -0.371 -13.526   7.589  1.00  0.00     0.174 HD
ENDBRANCH  34  35
ENDBRANCH  30  34
ENDBRANCH  26  30
ENDBRANCH  20  22
ENDBRANCH   1  20
TORSDOF 11
ENDMDL