MODEL 5
REMARK VINA RESULT: -7.137203294      2.631      7.707
REMARK  11 active torsions:
REMARK  status: ('A' for Active; 'I' for Inactive)
REMARK    1  A    between atoms: N1_2  and  C2_4
REMARK    2  A    between atoms: C3_7  and  N3_8
REMARK    3  A    between atoms: N3_8  and  N4_10
REMARK    4  A    between atoms: C6_14  and  N6_15
REMARK    5  A    between atoms: N6_15  and  C7_17
REMARK    6  A    between atoms: C7_17  and  O1_18
REMARK    7  A    between atoms: C7_17  and  C8_20
REMARK    8  A    between atoms: C9_21  and  O2_22
REMARK    9  A    between atoms: N8_28  and  O4_29
REMARK   10  A    between atoms: C12_31  and  N9_32
REMARK   11  A    between atoms: N9_32  and  O5_34
ROOT
HETATM    1  C7  UNL     1      -0.123 -20.201   7.421  1.00  0.00     0.277 C
ENDROOT
BRANCH   1   2
HETATM    2  N6  UNL     1      -1.494 -19.882   7.100  1.00  0.00    -0.194 N
ATOM      3  H6  UNL     1      -1.935 -20.327   6.294  1.00  0.00     0.180 HD
BRANCH   2   4
HETATM    4  C6  UNL     1      -2.183 -19.036   7.819  1.00  0.00     0.709 A
HETATM    5  N5  UNL     1      -2.382 -17.761   7.459  1.00  0.00    -0.020 N
HETATM    6  C3  UNL     1      -3.088 -16.890   8.195  1.00  0.00     0.724 A
ATOM      7  H5  UNL     1      -1.976 -17.436   6.581  1.00  0.00     0.203 HD
HETATM    8  N2  UNL     1      -3.628 -17.304   9.355  1.00  0.00    -0.020 N
HETATM    9  C2  UNL     1      -3.452 -18.568   9.751  1.00  0.00     0.706 A
ATOM     10  H2  UNL     1      -4.168 -16.657   9.929  1.00  0.00     0.203 HD
HETATM   11  N10 UNL     1      -2.740 -19.404   8.985  1.00  0.00    -0.021 N
ATOM     12  H10 UNL     1      -2.615 -20.366   9.301  1.00  0.00     0.203 HD
BRANCH   6  13
HETATM   13  N3  UNL     1      -3.271 -15.524   7.756  1.00  0.00    -0.132 N
HETATM   14  C4  UNL     1      -4.538 -14.895   8.058  1.00  0.00     0.192 C
BRANCH  13  15
HETATM   15  N4  UNL     1      -2.269 -14.872   7.083  1.00  0.00    -0.129 NA
HETATM   16  C5  UNL     1      -2.725 -13.815   6.222  1.00  0.00     0.159 C
ENDBRANCH  13  15
ENDBRANCH   6  13
BRANCH   9  17
HETATM   17  N1  UNL     1      -3.969 -18.961  10.862  1.00  0.00    -0.229 N
HETATM   18  C1  UNL     1      -3.765 -20.309  11.297  1.00  0.00     0.165 C
ATOM     19  H1  UNL     1      -4.521 -18.317  11.428  1.00  0.00     0.177 HD
ENDBRANCH   9  17
ENDBRANCH   2   4
ENDBRANCH   1   2
BRANCH   1  20
HETATM   20  O1  UNL     1       0.354 -19.188   8.250  1.00  0.00    -0.372 OA
ATOM     21  H1  UNL     1      -0.159 -18.410   8.070  1.00  0.00     0.212 HD
ENDBRANCH   1  20
BRANCH   1  22
HETATM   22  C8  UNL     1       0.636 -20.249   6.134  1.00  0.00     0.089 A
HETATM   23  C9  UNL     1       0.930 -19.108   5.420  1.00  0.00     0.160 A
HETATM   24  N7  UNL     1       1.612 -19.129   4.259  1.00  0.00    -0.282 N
HETATM   25  C10 UNL     1       1.907 -17.907   3.528  1.00  0.00     0.163 C
HETATM   26  C11 UNL     1       2.010 -20.328   3.802  1.00  0.00     0.356 A
HETATM   27  O3  UNL     1       2.657 -20.368   2.704  1.00  0.00    -0.244 OA
HETATM   28  N8  UNL     1       1.741 -21.461   4.473  1.00  0.00    -0.153 N
HETATM   29  C12 UNL     1       1.057 -21.463   5.640  1.00  0.00     0.172 A
BRANCH  23  30
HETATM   30  O2  UNL     1       0.520 -17.884   5.894  1.00  0.00    -0.345 OA
ATOM     31  H2  UNL     1       0.209 -17.225   5.285  1.00  0.00     0.219 HD
ENDBRANCH  23  30
BRANCH  28  32
HETATM   32  O4  UNL     1       2.153 -22.676   3.992  1.00  0.00    -0.277 OA
ATOM     33  H4  UNL     1       3.006 -23.025   4.222  1.00  0.00     0.245 HD
ENDBRANCH  28  32
BRANCH  29  34
HETATM   34  N9  UNL     1       0.800 -22.547   6.281  1.00  0.00    -0.248 N
ATOM     35  H9  UNL     1      -0.162 -22.736   6.563  1.00  0.00     0.196 HD
BRANCH  34  36
HETATM   36  O5  UNL     1       1.764 -23.451   6.598  1.00  0.00    -0.284 OA
HETATM   37  C13 UNL     1       1.450 -24.652   7.306  1.00  0.00     0.237 C
ENDBRANCH  34  36
ENDBRANCH  29  34
ENDBRANCH   1  22
TORSDOF 11
ENDMDL