MODEL 2
REMARK VINA RESULT: -9.060703015      0.927      1.528
REMARK  11 active torsions:
REMARK  status: ('A' for Active; 'I' for Inactive)
REMARK    1  A    between atoms: C3_3  and  N1_4
REMARK    2  A    between atoms: N1_4  and  N2_6
REMARK    3  A    between atoms: N2_6  and  N3_8
REMARK    4  A    between atoms: N3_8  and  C4_10
REMARK    5  A    between atoms: C5_13  and  N5_14
REMARK    6  A    between atoms: N5_14  and  N6_15
REMARK    7  A    between atoms: N5_14  and  O1_18
REMARK    8  A    between atoms: C6_20  and  C7_21
REMARK    9  A    between atoms: N7_22  and  N8_24
REMARK   10  A    between atoms: N8_24  and  C8_26
REMARK   11  A    between atoms: N13_40  and  O4_41
ROOT
HETATM    1  C4  UNL     1      -1.407 -18.391   8.238  1.00  0.00     0.702 A
HETATM    2  N4  UNL     1      -1.256 -17.132   7.810  1.00  0.00    -0.170 N
ATOM      3  H4  UNL     1      -0.340 -16.862   7.452  1.00  0.00     0.186 HD
HETATM    4  C5  UNL     1      -2.227 -16.191   7.816  1.00  0.00     0.183 A
HETATM    5  C6  UNL     1      -3.470 -16.521   8.289  1.00  0.00     0.098 A
HETATM    6  C11 UNL     1      -3.607 -17.842   8.731  1.00  0.00     0.275 A
HETATM    7  O2  UNL     1      -4.722 -18.193   9.171  1.00  0.00    -0.267 OA
HETATM    8  N11 UNL     1      -2.616 -18.735   8.705  1.00  0.00    -0.154 N
ATOM      9  H11 UNL     1      -2.779 -19.684   9.042  1.00  0.00     0.187 HD
ENDROOT
BRANCH   1  10
HETATM   10  N3  UNL     1      -0.417 -19.242   8.198  1.00  0.00    -0.117 N
ATOM     11  H3  UNL     1       0.463 -18.957   8.627  1.00  0.00     0.207 HD
BRANCH  10  12
HETATM   12  N2  UNL     1      -0.464 -20.489   7.626  1.00  0.00    -0.227 N
ATOM     13  H2  UNL     1      -1.182 -21.140   7.943  1.00  0.00     0.209 HD
BRANCH  12  14
HETATM   14  N1  UNL     1       0.352 -20.875   6.711  1.00  0.00    -0.267 N
ATOM     15  H1  UNL     1       0.517 -21.869   6.547  1.00  0.00     0.190 HD
BRANCH  14  16
HETATM   16  C3  UNL     1       1.018 -19.895   5.934  1.00  0.00     0.170 A
HETATM   17  C2  UNL     1       0.535 -19.102   4.920  1.00  0.00     0.111 A
HETATM   18  C1  UNL     1      -0.862 -19.139   4.428  1.00  0.00     0.077 C
HETATM   19  N13 UNL     1       1.576 -18.336   4.512  1.00  0.00    -0.103 N
HETATM   20  O3  UNL     1       2.609 -18.646   5.228  1.00  0.00    -0.127 OA
HETATM   21  N12 UNL     1       2.329 -19.568   6.088  1.00  0.00    -0.220 N
ATOM     22  H12 UNL     1       2.975 -19.978   6.762  1.00  0.00     0.198 HD
BRANCH  19  23
HETATM   23  O4  UNL     1       1.461 -17.412   3.500  1.00  0.00    -0.261 OA
ATOM     24  H4  UNL     1       0.687 -16.872   3.387  1.00  0.00     0.247 HD
ENDBRANCH  19  23
ENDBRANCH  14  16
ENDBRANCH  12  14
ENDBRANCH  10  12
ENDBRANCH   1  10
BRANCH   4  25
HETATM   25  N5  UNL     1      -1.962 -14.880   7.339  1.00  0.00    -0.151 N
BRANCH  25  26
HETATM   26  N6  UNL     1      -1.258 -14.093   8.071  1.00  0.00    -0.317 N
ATOM     27  H62 UNL     1      -1.425 -13.093   7.962  1.00  0.00     0.179 HD
ATOM     28  H61 UNL     1      -0.568 -14.504   8.701  1.00  0.00     0.179 HD
ENDBRANCH  25  26
BRANCH  25  29
HETATM   29  O1  UNL     1      -2.383 -14.387   6.133  1.00  0.00    -0.267 OA
ATOM     30  H1  UNL     1      -3.155 -13.849   6.007  1.00  0.00     0.247 HD
ENDBRANCH  25  29
ENDBRANCH   4  25
BRANCH   5  31
HETATM   31  C7  UNL     1      -4.590 -15.608   8.340  1.00  0.00     0.128 C
HETATM   32  N7  UNL     1      -5.167 -15.330   9.442  1.00  0.00    -0.308 N
ATOM     33  H7  UNL     1      -4.840 -15.756  10.309  1.00  0.00     0.186 HD
BRANCH  32  34
HETATM   34  N8  UNL     1      -6.243 -14.448   9.462  1.00  0.00    -0.272 N
ATOM     35  H8  UNL     1      -6.230 -13.616   8.873  1.00  0.00     0.190 HD
BRANCH  34  36
HETATM   36  C8  UNL     1      -7.359 -14.706  10.303  1.00  0.00     0.190 C
HETATM   37  N9  UNL     1      -7.709 -15.804  10.857  1.00  0.00    -0.360 N
HETATM   38  C9  UNL     1      -8.916 -15.661  11.646  1.00  0.00     0.142 C
ATOM     39  H9  UNL     1      -7.198 -16.682  10.755  1.00  0.00     0.162 HD
HETATM   40  C10 UNL     1      -9.429 -14.314  11.255  1.00  0.00     0.142 C
HETATM   41  N10 UNL     1      -8.293 -13.674  10.651  1.00  0.00    -0.360 N
ATOM     42  H10 UNL     1      -8.173 -12.672  10.498  1.00  0.00     0.162 HD
ENDBRANCH  34  36
ENDBRANCH  32  34
ENDBRANCH   5  31
TORSDOF 11
ENDMDL