MODEL 5
REMARK VINA RESULT: -8.453985238      1.580      2.500
REMARK  10 active torsions:
REMARK  status: ('A' for Active; 'I' for Inactive)
REMARK    1  A    between atoms: N2_5  and  O2_6
REMARK    2  A    between atoms: N3_10  and  C4_11
REMARK    3  A    between atoms: C4_11  and  C5_12
REMARK    4  A    between atoms: C5_12  and  N4_13
REMARK    5  A    between atoms: C5_12  and  O7_36
REMARK       I    between atoms: N5_15  and  C6_17
REMARK    6  A    between atoms: C6_17  and  C7_19
REMARK    7  A    between atoms: C8_20  and  N6_21
REMARK    8  A    between atoms: C9_24  and  N7_25
REMARK    9  A    between atoms: C10_32  and  N10_33
REMARK   10  A    between atoms: O7_36  and  N11_37
ROOT
HETATM    1  N4  UNL     1      -0.333 -18.390   6.650  1.00  0.00    -0.301 N
ATOM      2  H4  UNL     1       0.471 -17.880   7.016  1.00  0.00     0.183 HD
HETATM    3  N5  UNL     1      -1.455 -17.874   6.790  1.00  0.00    -0.268 N
ATOM      4  H5  UNL     1      -2.275 -18.363   6.432  1.00  0.00     0.190 HD
HETATM    5  C6  UNL     1      -1.621 -16.631   7.430  1.00  0.00     0.276 C
HETATM    6  O4  UNL     1      -0.617 -15.948   7.672  1.00  0.00    -0.266 OA
ENDROOT
BRANCH   1   7
HETATM    7  C5  UNL     1      -0.084 -19.662   6.007  1.00  0.00     0.284 C
BRANCH   7   8
HETATM    8  C4  UNL     1       0.089 -19.399   4.536  1.00  0.00     0.212 C
BRANCH   8   9
HETATM    9  N3  UNL     1       1.474 -19.402   4.133  1.00  0.00    -0.230 N
HETATM   10  N1  UNL     1       2.297 -20.428   4.142  1.00  0.00    -0.239 N
HETATM   11  C1  UNL     1       2.034 -21.804   4.553  1.00  0.00     0.183 C
HETATM   12  C2  UNL     1       3.489 -19.954   3.678  1.00  0.00     0.371 A
HETATM   13  O1  UNL     1       4.518 -20.666   3.549  1.00  0.00    -0.242 OA
HETATM   14  N2  UNL     1       3.374 -18.646   3.395  1.00  0.00    -0.116 N
HETATM   15  C3  UNL     1       2.118 -18.316   3.682  1.00  0.00     0.372 A
HETATM   16  O3  UNL     1       1.665 -17.132   3.528  1.00  0.00    -0.242 OA
BRANCH  14  17
HETATM   17  O2  UNL     1       4.354 -17.822   2.908  1.00  0.00    -0.275 OA
ATOM     18  H2  UNL     1       4.282 -16.891   2.737  1.00  0.00     0.245 HD
ENDBRANCH  14  17
ENDBRANCH   8   9
ENDBRANCH   7   8
BRANCH   7  19
HETATM   19  O7  UNL     1      -1.032 -20.615   6.288  1.00  0.00    -0.258 OA
BRANCH  19  20
HETATM   20  N11 UNL     1      -0.835 -21.236   7.469  1.00  0.00    -0.309 N
ATOM     21 2H11 UNL     1      -0.429 -20.762   8.275  1.00  0.00     0.184 HD
ATOM     22 1H11 UNL     1      -1.131 -22.213   7.469  1.00  0.00     0.184 HD
ENDBRANCH  19  20
ENDBRANCH   7  19
ENDBRANCH   1   7
BRANCH   5  23
HETATM   23  C7  UNL     1      -2.945 -16.169   7.791  1.00  0.00     0.115 A
HETATM   24  C8  UNL     1      -3.774 -16.995   8.541  1.00  0.00     0.167 A
HETATM   25  C9  UNL     1      -5.083 -16.586   8.873  1.00  0.00     0.148 A
HETATM   26  N8  UNL     1      -5.476 -15.384   8.439  1.00  0.00    -0.282 N
HETATM   27  N9  UNL     1      -4.706 -14.596   7.733  1.00  0.00    -0.283 N
ATOM     28  H8  UNL     1      -6.418 -15.068   8.667  1.00  0.00     0.188 HD
HETATM   29  C10 UNL     1      -3.416 -14.924   7.367  1.00  0.00     0.132 A
ATOM     30  H9  UNL     1      -5.078 -13.693   7.438  1.00  0.00     0.188 HD
BRANCH  24  31
HETATM   31  N6  UNL     1      -3.390 -18.269   9.029  1.00  0.00    -0.111 N
HETATM   32  O5  UNL     1      -3.278 -19.227   8.243  1.00  0.00    -0.532 OA
HETATM   33  O6  UNL     1      -3.090 -18.438  10.346  1.00  0.00    -0.532 OA
ENDBRANCH  24  31
BRANCH  25  34
HETATM   34  N7  UNL     1      -5.846 -17.387   9.559  1.00  0.00    -0.382 N
ATOM     35  H72 UNL     1      -5.489 -18.154  10.129  1.00  0.00     0.157 HD
ATOM     36  H71 UNL     1      -6.856 -17.244   9.549  1.00  0.00     0.157 HD
ENDBRANCH  25  34
BRANCH  29  37
HETATM   37  N10 UNL     1      -2.745 -14.116   6.691  1.00  0.00    -0.384 N
ATOM     38 2H10 UNL     1      -1.993 -13.591   7.138  1.00  0.00     0.157 HD
ATOM     39 1H10 UNL     1      -2.897 -13.938   5.698  1.00  0.00     0.157 HD
ENDBRANCH  29  37
ENDBRANCH   5  23
TORSDOF 10
ENDMDL