MODEL 3
REMARK VINA RESULT: -7.017891885      2.960      7.550
REMARK  8 active torsions:
REMARK  status: ('A' for Active; 'I' for Inactive)
REMARK    1  A    between atoms: S1_2  and  C2_5
REMARK    2  A    between atoms: N3_10  and  C3_11
REMARK    3  A    between atoms: C4_14  and  N5_15
REMARK    4  A    between atoms: C5_18  and  C6_19
REMARK    5  A    between atoms: C6_19  and  N6_20
REMARK    6  A    between atoms: C6_19  and  O3_24
REMARK    7  A    between atoms: C7_26  and  N7_27
REMARK    8  A    between atoms: N8_30  and  O4_31
ROOT
HETATM    1  C3  UNL     1      -1.143 -19.873   7.244  1.00  0.00     0.723 A
HETATM    2  N4  UNL     1      -1.455 -20.648   8.284  1.00  0.00    -0.173 N
ATOM      3  H4  UNL     1      -1.061 -21.588   8.325  1.00  0.00     0.186 HD
HETATM    4  C4  UNL     1      -2.281 -20.241   9.300  1.00  0.00     0.129 A
HETATM    5  C5  UNL     1      -2.797 -18.933   9.193  1.00  0.00     0.086 A
HETATM    6  C7  UNL     1      -2.479 -18.149   8.137  1.00  0.00     0.134 A
HETATM    7  N9  UNL     1      -1.644 -18.630   7.156  1.00  0.00    -0.173 N
ATOM      8  H9  UNL     1      -1.404 -18.040   6.359  1.00  0.00     0.186 HD
ENDROOT
BRANCH   1   9
HETATM    9  N3  UNL     1      -0.267 -20.385   6.224  1.00  0.00    -0.003 N
HETATM   10  N2  UNL     1       0.282 -21.577   6.154  1.00  0.00    -0.204 N
HETATM   11  N1  UNL     1       1.013 -21.627   5.057  1.00  0.00    -0.258 N
ATOM     12  H2  UNL     1       0.163 -22.332   6.831  1.00  0.00     0.211 HD
HETATM   13  C2  UNL     1       0.912 -20.436   4.434  1.00  0.00     0.235 A
ATOM     14  H1  UNL     1       1.558 -22.427   4.737  1.00  0.00     0.191 HD
HETATM   15  N10 UNL     1       0.108 -19.681   5.185  1.00  0.00    -0.237 N
ATOM     16  H10 UNL     1      -0.168 -18.720   4.984  1.00  0.00     0.192 HD
BRANCH  13  17
HETATM   17  S1  UNL     1       1.732 -20.082   2.936  1.00  0.00     0.206 S
HETATM   18  C1  UNL     1       3.358 -20.775   2.938  1.00  0.00     0.170 C
HETATM   19  O1  UNL     1       1.830 -18.580   2.714  1.00  0.00    -0.220 OA
HETATM   20  O2  UNL     1       0.964 -20.641   1.770  1.00  0.00    -0.220 OA
ENDBRANCH  13  17
ENDBRANCH   1   9
BRANCH   4  21
HETATM   21  N5  UNL     1      -2.539 -21.044  10.222  1.00  0.00    -0.384 N
ATOM     22  H52 UNL     1      -2.544 -20.814  11.216  1.00  0.00     0.157 HD
ATOM     23  H51 UNL     1      -2.784 -22.004   9.983  1.00  0.00     0.157 HD
ENDBRANCH   4  21
BRANCH   6  24
HETATM   24  N7  UNL     1      -2.986 -16.819   7.989  1.00  0.00    -0.360 N
HETATM   25  C8  UNL     1      -4.321 -16.495   8.367  1.00  0.00     0.147 C
HETATM   26  C9  UNL     1      -4.678 -15.064   8.381  1.00  0.00     0.174 C
HETATM   27  N8  UNL     1      -3.913 -14.253   7.479  1.00  0.00    -0.273 N
HETATM   28  C10 UNL     1      -2.523 -14.476   7.534  1.00  0.00     0.109 C
HETATM   29  C11 UNL     1      -2.101 -15.886   7.389  1.00  0.00     0.171 C
BRANCH  27  30
HETATM   30  O4  UNL     1      -4.437 -14.078   6.278  1.00  0.00    -0.288 OA
ATOM     31  H4  UNL     1      -3.846 -14.210   5.545  1.00  0.00     0.244 HD
ENDBRANCH  27  30
ENDBRANCH   6  24
BRANCH   5  32
HETATM   32  C6  UNL     1      -3.634 -18.505  10.295  1.00  0.00     0.358 C
BRANCH  32  33
HETATM   33  N6  UNL     1      -5.049 -18.890  10.165  1.00  0.00    -0.049 N
ATOM     34  H63 UNL     1      -5.129 -19.819   9.753  1.00  0.00     0.277 HD
ATOM     35  H62 UNL     1      -5.455 -19.070  11.082  1.00  0.00     0.277 HD
ATOM     36  H61 UNL     1      -5.618 -18.220   9.647  1.00  0.00     0.277 HD
ENDBRANCH  32  33
BRANCH  32  37
HETATM   37  O3  UNL     1      -3.279 -18.763  11.568  1.00  0.00    -0.366 OA
ATOM     38  H3  UNL     1      -2.401 -19.061  11.775  1.00  0.00     0.212 HD
ENDBRANCH  32  37
ENDBRANCH   5  32
TORSDOF 8
ENDMDL