MODEL 2
REMARK VINA RESULT: -8.192255833      2.855      3.682
REMARK  8 active torsions:
REMARK  status: ('A' for Active; 'I' for Inactive)
REMARK    1  A    between atoms: O1_2  and  C2_3
REMARK    2  A    between atoms: C2_3  and  C3_5
REMARK       I    between atoms: C3_5  and  N1_7
REMARK    3  A    between atoms: N1_7  and  N2_9
REMARK    4  A    between atoms: C4_11  and  C5_12
REMARK    5  A    between atoms: C7_19  and  S1_20
REMARK    6  A    between atoms: S1_20  and  C8_21
REMARK    7  A    between atoms: C10_27  and  N8_28
REMARK    8  A    between atoms: N9_30  and  N10_32
ROOT
HETATM    1  C5  UNL     1       0.525 -23.093   6.787  1.00  0.00     0.058 A
HETATM    2  C6  UNL     1       0.360 -24.155   7.667  1.00  0.00     0.145 A
HETATM    3  N3  UNL     1      -0.701 -24.267   8.608  1.00  0.00    -0.080 NA
HETATM    4  N4  UNL     1       1.378 -25.004   7.437  1.00  0.00    -0.286 N
ATOM      5  H4  UNL     1       1.521 -25.882   7.936  1.00  0.00     0.188 HD
HETATM    6  N5  UNL     1       2.167 -24.550   6.478  1.00  0.00    -0.292 N
ATOM      7  H5  UNL     1       3.005 -25.007   6.119  1.00  0.00     0.187 HD
HETATM    8  C7  UNL     1       1.665 -23.383   6.064  1.00  0.00     0.103 A
ENDROOT
BRANCH   8   9
HETATM    9  S1  UNL     1       2.321 -22.303   4.772  1.00  0.00    -0.080 SA
BRANCH   9  10
HETATM   10  C8  UNL     1       2.420 -23.207   3.237  1.00  0.00     0.088 C
HETATM   11  C9  UNL     1       2.188 -22.658   2.076  1.00  0.00     0.123 A
HETATM   12  N6  UNL     1       1.836 -21.276   1.995  1.00  0.00    -0.281 N
HETATM   13  C11 UNL     1       2.278 -23.426   0.845  1.00  0.00     0.288 A
HETATM   14  N7  UNL     1       1.600 -20.743   0.732  1.00  0.00    -0.130 N
ATOM     15  H6  UNL     1       1.762 -20.701   2.833  1.00  0.00     0.188 HD
HETATM   16  C10 UNL     1       1.671 -21.398  -0.376  1.00  0.00     0.715 A
ATOM     17  H7  UNL     1       1.349 -19.756   0.679  1.00  0.00     0.205 HD
HETATM   18  N11 UNL     1       2.015 -22.774  -0.382  1.00  0.00    -0.151 N
ATOM     19  H11 UNL     1       2.071 -23.288  -1.262  1.00  0.00     0.188 HD
HETATM   20  O4  UNL     1       2.587 -24.662   0.847  1.00  0.00    -0.265 OA
BRANCH  16  21
HETATM   21  N8  UNL     1       1.398 -20.711  -1.617  1.00  0.00    -0.117 N
HETATM   22  N9  UNL     1       0.203 -20.633  -2.019  1.00  0.00    -0.235 N
ATOM     23  H9  UNL     1       0.019 -20.146  -2.896  1.00  0.00     0.208 HD
ATOM     24  H8  UNL     1       2.156 -20.297  -2.159  1.00  0.00     0.207 HD
BRANCH  22  25
HETATM   25  N10 UNL     1      -0.879 -21.180  -1.324  1.00  0.00    -0.330 N
ATOM     26 2H10 UNL     1      -1.227 -20.661  -0.517  1.00  0.00     0.178 HD
ATOM     27 1H10 UNL     1      -1.327 -22.058  -1.584  1.00  0.00     0.178 HD
ENDBRANCH  22  25
ENDBRANCH  16  21
ENDBRANCH   9  10
ENDBRANCH   8   9
BRANCH   1  28
HETATM   28  C4  UNL     1      -0.328 -21.925   6.658  1.00  0.00     0.125 C
HETATM   29  N2  UNL     1      -0.724 -21.223   7.652  1.00  0.00    -0.308 N
ATOM     30  H2  UNL     1      -0.417 -21.510   8.582  1.00  0.00     0.186 HD
BRANCH  29  31
HETATM   31  N1  UNL     1      -1.531 -20.112   7.565  1.00  0.00    -0.262 N
HETATM   32  C3  UNL     1      -0.969 -18.805   7.699  1.00  0.00     0.335 C
HETATM   33  O3  UNL     1       0.266 -18.637   7.898  1.00  0.00    -0.260 OA
ATOM     34  H1  UNL     1      -2.532 -20.222   7.405  1.00  0.00     0.190 HD
BRANCH  32  35
HETATM   35  C2  UNL     1      -1.806 -17.626   7.611  1.00  0.00     0.352 C
HETATM   36  O2  UNL     1      -3.048 -17.734   7.895  1.00  0.00    -0.254 OA
BRANCH  35  37
HETATM   37  O1  UNL     1      -1.280 -16.403   7.227  1.00  0.00    -0.319 OA
HETATM   38  C1  UNL     1      -1.949 -15.230   7.641  1.00  0.00     0.213 C
ENDBRANCH  35  37
ENDBRANCH  32  35
ENDBRANCH  29  31
ENDBRANCH   1  28
TORSDOF 8
ENDMDL