MODEL 1
REMARK VINA RESULT: -9.083333293      0.000      0.000
REMARK  10 active torsions:
REMARK  status: ('A' for Active; 'I' for Inactive)
REMARK    1  A    between atoms: C2_2  and  C11_28
REMARK    2  A    between atoms: N1_3  and  O1_5
REMARK    3  A    between atoms: O1_5  and  C3_6
REMARK    4  A    between atoms: C3_6  and  C4_8
REMARK    5  A    between atoms: N2_9  and  N3_11
REMARK    6  A    between atoms: N3_11  and  C5_13
REMARK    7  A    between atoms: C5_13  and  O3_14
REMARK    8  A    between atoms: C5_13  and  C6_16
REMARK    9  A    between atoms: C7_17  and  O4_18
REMARK   10  A    between atoms: C13_34  and  O9_35
ROOT
HETATM    1  C4  UNL     1      -0.979 -19.004   5.715  1.00  0.00     0.190 C
HETATM    2  N2  UNL     1      -0.469 -19.042   4.539  1.00  0.00    -0.308 N
ATOM      3  H2  UNL     1      -1.001 -19.521   3.814  1.00  0.00     0.185 HD
ENDROOT
BRANCH   2   4
HETATM    4  N3  UNL     1       0.750 -18.483   4.173  1.00  0.00    -0.303 N
ATOM      5  H3  UNL     1       1.061 -17.590   4.555  1.00  0.00     0.183 HD
BRANCH   4   6
HETATM    6  C5  UNL     1       1.568 -19.228   3.218  1.00  0.00     0.277 C
BRANCH   6   7
HETATM    7  O3  UNL     1       0.811 -20.274   2.744  1.00  0.00    -0.371 OA
ATOM      8  H3  UNL     1       1.328 -21.067   2.828  1.00  0.00     0.212 HD
ENDBRANCH   6   7
BRANCH   6   9
HETATM    9  C6  UNL     1       2.811 -19.725   3.901  1.00  0.00     0.110 A
HETATM   10  C7  UNL     1       3.994 -19.093   3.575  1.00  0.00     0.162 A
HETATM   11  N4  UNL     1       5.134 -19.513   4.170  1.00  0.00    -0.284 N
HETATM   12  C8  UNL     1       6.387 -18.859   3.839  1.00  0.00     0.163 C
HETATM   13  C9  UNL     1       5.088 -20.514   5.046  1.00  0.00     0.331 A
HETATM   14  O5  UNL     1       6.156 -20.900   5.598  1.00  0.00    -0.246 OA
HETATM   15  N5  UNL     1       3.948 -21.146   5.380  1.00  0.00    -0.275 N
HETATM   16  C10 UNL     1       2.795 -20.752   4.805  1.00  0.00     0.264 A
ATOM     17  H5  UNL     1       3.957 -21.909   6.056  1.00  0.00     0.173 HD
HETATM   18  O6  UNL     1       1.705 -21.314   5.087  1.00  0.00    -0.267 OA
BRANCH  10  19
HETATM   19  O4  UNL     1       4.038 -18.056   2.667  1.00  0.00    -0.345 OA
ATOM     20  H4  UNL     1       4.858 -17.745   2.301  1.00  0.00     0.219 HD
ENDBRANCH  10  19
ENDBRANCH   6   9
ENDBRANCH   4   6
ENDBRANCH   2   4
BRANCH   1  21
HETATM   21  C3  UNL     1      -0.314 -18.354   6.830  1.00  0.00     0.321 C
HETATM   22  O2  UNL     1       0.621 -18.959   7.407  1.00  0.00    -0.257 OA
BRANCH  21  23
HETATM   23  O1  UNL     1      -0.714 -17.088   7.237  1.00  0.00    -0.194 OA
BRANCH  23  24
HETATM   24  N1  UNL     1      -1.938 -16.931   7.806  1.00  0.00    -0.260 N
HETATM   25  C2  UNL     1      -2.634 -15.852   7.727  1.00  0.00     0.060 C
HETATM   26  C1  UNL     1      -2.169 -14.650   7.001  1.00  0.00     0.072 C
ATOM     27  H1  UNL     1      -2.329 -17.716   8.326  1.00  0.00     0.194 HD
BRANCH  25  28
HETATM   28  C11 UNL     1      -3.932 -15.826   8.388  1.00  0.00     0.120 A
HETATM   29  N6  UNL     1      -4.628 -14.754   8.798  1.00  0.00    -0.296 N
HETATM   30  C12 UNL     1      -5.784 -15.139   9.364  1.00  0.00     0.372 A
ATOM     31  H6  UNL     1      -4.323 -13.786   8.694  1.00  0.00     0.171 HD
HETATM   32  O7  UNL     1      -6.681 -14.374   9.860  1.00  0.00    -0.238 OA
HETATM   33  O8  UNL     1      -5.812 -16.449   9.310  1.00  0.00    -0.235 OA
HETATM   34  C13 UNL     1      -4.730 -16.916   8.736  1.00  0.00     0.217 A
BRANCH  34  35
HETATM   35  O9  UNL     1      -4.375 -18.230   8.487  1.00  0.00    -0.339 OA
ATOM     36  H9  UNL     1      -4.637 -18.955   9.041  1.00  0.00     0.220 HD
ENDBRANCH  34  35
ENDBRANCH  25  28
ENDBRANCH  23  24
ENDBRANCH  21  23
ENDBRANCH   1  21
TORSDOF 10
ENDMDL