MODEL 1
REMARK VINA RESULT: -6.206921202      0.000      0.000
REMARK  5 active torsions:
REMARK  status: ('A' for Active; 'I' for Inactive)
REMARK    1  A    between atoms: C2_2  and  N1_3
REMARK    2  A    between atoms: C2_2  and  C3_6
REMARK    3  A    between atoms: N1_3  and  O1_4
REMARK    4  A    between atoms: C3_6  and  N2_7
REMARK    5  A    between atoms: C3_6  and  C4_11
ROOT
HETATM    1  C4  UNL     1      84.371 -15.398  64.532  1.00  0.00     0.174 A
HETATM    2  N3  UNL     1      83.137 -15.862  64.795  1.00  0.00    -0.278 N
ATOM      3  H3  UNL     1      82.573 -15.598  65.603  1.00  0.00     0.189 HD
HETATM    4  N4  UNL     1      82.758 -16.714  63.851  1.00  0.00    -0.263 N
ATOM      5  H4  UNL     1      81.871 -17.215  63.798  1.00  0.00     0.190 HD
HETATM    6  C5  UNL     1      83.768 -16.784  62.986  1.00  0.00     0.238 A
HETATM    7  N5  UNL     1      83.747 -17.530  61.925  1.00  0.00    -0.364 N
ATOM      8  H51 UNL     1      84.520 -17.583  61.262  1.00  0.00     0.159 HD
ATOM      9  H52 UNL     1      82.995 -18.142  61.608  1.00  0.00     0.159 HD
HETATM   10  O2  UNL     1      84.743 -15.989  63.398  1.00  0.00    -0.262 OA
ENDROOT
BRANCH   1  11
HETATM   11  C3  UNL     1      85.179 -14.433  65.315  1.00  0.00     0.280 C
BRANCH  11  12
HETATM   12  C2  UNL     1      84.331 -13.361  65.964  1.00  0.00     0.140 C
HETATM   13  C1  UNL     1      84.924 -13.065  67.311  1.00  0.00     0.033 C
BRANCH  12  14
HETATM   14  N1  UNL     1      84.223 -12.177  65.145  1.00  0.00    -0.097 NA
BRANCH  14  15
HETATM   15  O1  UNL     1      84.922 -11.198  65.775  1.00  0.00    -0.296 OA
ATOM     16  H1  UNL     1      85.457 -10.774  65.115  1.00  0.00     0.238 HD
ENDBRANCH  14  15
ENDBRANCH  12  14
ENDBRANCH  11  12
BRANCH  11  17
HETATM   17  N2  UNL     1      85.889 -15.090  66.407  1.00  0.00    -0.066 N
ATOM     18  H23 UNL     1      85.905 -14.546  67.269  1.00  0.00     0.275 HD
ATOM     19  H22 UNL     1      85.399 -15.901  66.784  1.00  0.00     0.275 HD
ATOM     20  H21 UNL     1      86.817 -15.305  66.043  1.00  0.00     0.275 HD
ENDBRANCH  11  17
ENDBRANCH   1  11
TORSDOF 5
ENDMDL