MODEL 4
REMARK VINA RESULT: -5.480338418      1.014      1.410
REMARK  5 active torsions:
REMARK  status: ('A' for Active; 'I' for Inactive)
REMARK    1  A    between atoms: C3_3  and  N1_4
REMARK    2  A    between atoms: C3_3  and  N2_8
REMARK    3  A    between atoms: N2_8  and  C4_11
REMARK    4  A    between atoms: C4_11  and  N3_12
REMARK    5  A    between atoms: C6_16  and  N5_17
ROOT
HETATM    1  C1  UNL     1      81.278 -19.329  63.863  1.00  0.00     0.016 C
HETATM    2  C2  UNL     1      81.948 -18.362  63.591  1.00  0.00    -0.056 C
HETATM    3  C3  UNL     1      82.745 -17.180  63.258  1.00  0.00     0.460 C
ENDROOT
BRANCH   3   4
HETATM    4  N1  UNL     1      83.988 -17.659  62.655  1.00  0.00    -0.039 N
ATOM      5  H13 UNL     1      84.351 -18.502  63.101  1.00  0.00     0.277 HD
ATOM      6  H12 UNL     1      83.856 -18.052  61.722  1.00  0.00     0.277 HD
ATOM      7  H11 UNL     1      84.647 -16.881  62.673  1.00  0.00     0.277 HD
ENDBRANCH   3   4
BRANCH   3   8
HETATM    8  N2  UNL     1      83.075 -16.390  64.412  1.00  0.00    -0.018 N
ATOM      9  H22 UNL     1      82.370 -15.670  64.570  1.00  0.00     0.282 HD
ATOM     10  H21 UNL     1      82.958 -16.933  65.267  1.00  0.00     0.282 HD
BRANCH   8  11
HETATM   11  C4  UNL     1      84.387 -15.811  64.353  1.00  0.00     0.385 C
BRANCH  11  12
HETATM   12  N3  UNL     1      84.415 -14.485  64.953  1.00  0.00    -0.247 N
HETATM   13  C5  UNL     1      84.071 -13.341  64.394  1.00  0.00     0.220 A
HETATM   14  N4  UNL     1      84.254 -12.350  65.301  1.00  0.00    -0.185 N
HETATM   15  C6  UNL     1      84.716 -12.906  66.425  1.00  0.00     0.691 A
ATOM     16  H4  UNL     1      84.071 -11.357  65.152  1.00  0.00     0.185 HD
HETATM   17  N6  UNL     1      84.810 -14.224  66.189  1.00  0.00    -0.128 N
ATOM     18  H6  UNL     1      85.135 -14.919  66.861  1.00  0.00     0.206 HD
BRANCH  15  19
HETATM   19  N5  UNL     1      85.026 -12.298  67.544  1.00  0.00    -0.233 N
ATOM     20  H52 UNL     1      84.412 -11.692  68.088  1.00  0.00     0.174 HD
ATOM     21  H51 UNL     1      85.915 -12.334  68.043  1.00  0.00     0.174 HD
ENDBRANCH  15  19
ENDBRANCH  11  12
ENDBRANCH   8  11
ENDBRANCH   3   8
TORSDOF 5
ENDMDL