MODEL 1
REMARK VINA RESULT: -6.228321598      0.000      0.000
REMARK  3 active torsions:
REMARK  status: ('A' for Active; 'I' for Inactive)
REMARK    1  A    between atoms: N1_2  and  N2_3
REMARK    2  A    between atoms: N1_2  and  C2_8
REMARK    3  A    between atoms: N2_3  and  N3_5
ROOT
HETATM    1  C2  UNL     1      84.007 -15.418  64.389  1.00  0.00     0.703 A
HETATM    2  N4  UNL     1      83.843 -14.112  64.051  1.00  0.00    -0.171 N
ATOM      3  H4  UNL     1      83.453 -13.772  63.172  1.00  0.00     0.186 HD
HETATM    4  C3  UNL     1      84.275 -13.348  65.058  1.00  0.00     0.167 A
HETATM    5  N5  UNL     1      84.454 -12.103  65.527  1.00  0.00    -0.335 N
ATOM      6  H5  UNL     1      84.224 -11.241  65.031  1.00  0.00     0.168 HD
HETATM    7  C4  UNL     1      84.987 -12.181  66.758  1.00  0.00     0.183 A
HETATM    8  N6  UNL     1      85.153 -13.481  67.088  1.00  0.00    -0.335 N
ATOM      9  H6  UNL     1      85.536 -13.850  67.959  1.00  0.00     0.168 HD
HETATM   10  C5  UNL     1      84.712 -14.188  66.037  1.00  0.00     0.167 A
HETATM   11  N7  UNL     1      84.544 -15.440  65.617  1.00  0.00    -0.171 N
ATOM     12  H7  UNL     1      84.785 -16.279  66.144  1.00  0.00     0.186 HD
ENDROOT
BRANCH   1  13
HETATM   13  N1  UNL     1      83.648 -16.537  63.594  1.00  0.00    -0.114 N
HETATM   14  C1  UNL     1      82.443 -17.240  63.971  1.00  0.00     0.199 C
BRANCH  13  15
HETATM   15  N2  UNL     1      84.423 -16.913  62.535  1.00  0.00    -0.233 N
ATOM     16  H2  UNL     1      85.442 -16.941  62.595  1.00  0.00     0.208 HD
BRANCH  15  17
HETATM   17  N3  UNL     1      83.746 -17.256  61.371  1.00  0.00    -0.330 N
ATOM     18  H32 UNL     1      82.820 -17.682  61.408  1.00  0.00     0.178 HD
ATOM     19  H31 UNL     1      84.229 -17.057  60.495  1.00  0.00     0.178 HD
ENDBRANCH  15  17
ENDBRANCH  13  15
ENDBRANCH   1  13
TORSDOF 3
ENDMDL