MODEL 5
REMARK VINA RESULT: -5.099697890      1.417      1.896
REMARK  2 active torsions:
REMARK  status: ('A' for Active; 'I' for Inactive)
REMARK       I    between atoms: N1_1  and  C1_5
REMARK       I    between atoms: C1_5  and  N2_6
REMARK       I    between atoms: C1_5  and  N3_10
REMARK    1  A    between atoms: N3_10  and  N4_12
REMARK    2  A    between atoms: C2_14  and  C3_15
ROOT
HETATM    1  N1  UNL     1      87.033 -15.079  65.676  1.00  0.00    -0.032 N
ATOM      2  H11 UNL     1      86.944 -15.207  64.668  1.00  0.00     0.279 HD
ATOM      3  H12 UNL     1      87.198 -15.949  66.182  1.00  0.00     0.279 HD
ATOM      4  H13 UNL     1      87.896 -14.610  65.951  1.00  0.00     0.279 HD
HETATM    5  C1  UNL     1      85.826 -14.375  66.106  1.00  0.00     0.494 C
HETATM    6  N2  UNL     1      85.953 -14.194  67.541  1.00  0.00    -0.032 N
ATOM      7  H21 UNL     1      85.111 -13.703  67.840  1.00  0.00     0.279 HD
ATOM      8  H22 UNL     1      86.815 -13.725  67.815  1.00  0.00     0.279 HD
ATOM      9  H23 UNL     1      86.117 -15.064  68.047  1.00  0.00     0.279 HD
HETATM   10  N3  UNL     1      84.637 -15.145  65.857  1.00  0.00    -0.284 N
ATOM     11  H3  UNL     1      84.046 -15.401  66.648  1.00  0.00     0.184 HD
ENDROOT
BRANCH  10  12
HETATM   12  N4  UNL     1      84.256 -15.559  64.570  1.00  0.00    -0.309 N
HETATM   13  C2  UNL     1      83.141 -16.188  64.395  1.00  0.00     0.155 C
ATOM     14  H4  UNL     1      84.861 -15.363  63.772  1.00  0.00     0.185 HD
BRANCH  13  15
HETATM   15  C3  UNL     1      82.758 -16.613  63.050  1.00  0.00     0.122 A
HETATM   16  N5  UNL     1      83.610 -17.190  62.168  1.00  0.00    -0.350 N
HETATM   17  C4  UNL     1      82.963 -17.465  61.022  1.00  0.00     0.106 A
ATOM     18  H5  UNL     1      84.595 -17.385  62.346  1.00  0.00     0.166 HD
HETATM   19  C5  UNL     1      81.670 -17.037  61.227  1.00  0.00     0.106 A
HETATM   20  N6  UNL     1      81.546 -16.517  62.466  1.00  0.00    -0.350 N
ATOM     21  H6  UNL     1      80.699 -16.127  62.880  1.00  0.00     0.166 HD
ENDBRANCH  13  15
ENDBRANCH  10  12
TORSDOF 2
ENDMDL