MODEL 5
REMARK VINA RESULT: -4.982889015      1.366      1.550
REMARK  3 active torsions:
REMARK  status: ('A' for Active; 'I' for Inactive)
REMARK    1  A    between atoms: N1_2  and  C2_5
REMARK    2  A    between atoms: C2_5  and  N2_6
REMARK    3  A    between atoms: N2_6  and  C3_8
ROOT
HETATM    1  C3  UNL     1      84.665 -14.910  64.175  1.00  0.00     0.206 C
HETATM    2  C4  UNL     1      85.097 -16.194  63.610  1.00  0.00     0.036 C
HETATM    3  C5  UNL     1      84.321 -16.907  62.868  1.00  0.00     0.090 C
HETATM    4  N3  UNL     1      82.980 -16.538  62.522  1.00  0.00    -0.341 N
ATOM      5  H3  UNL     1      82.397 -17.144  61.946  1.00  0.00     0.167 HD
HETATM    6  C6  UNL     1      82.530 -15.390  62.977  1.00  0.00     0.189 C
HETATM    7  N4  UNL     1      81.236 -14.927  62.738  1.00  0.00    -0.063 NA
HETATM    8  N5  UNL     1      83.408 -14.493  63.689  1.00  0.00    -0.340 N
ATOM      9  H5  UNL     1      83.111 -13.530  63.846  1.00  0.00     0.164 HD
ENDROOT
BRANCH   1  10
HETATM   10  N2  UNL     1      84.656 -15.090  65.646  1.00  0.00    -0.376 N
ATOM     11  H2  UNL     1      83.907 -15.585  66.130  1.00  0.00     0.157 HD
BRANCH  10  12
HETATM   12  C2  UNL     1      85.771 -14.521  66.342  1.00  0.00     0.351 C
BRANCH  12  13
HETATM   13  N1  UNL     1      85.256 -13.665  67.385  1.00  0.00    -0.064 N
HETATM   14  C1  UNL     1      84.674 -12.501  66.812  1.00  0.00     0.269 C
ATOM     15  H12 UNL     1      85.967 -13.436  68.079  1.00  0.00     0.278 HD
ATOM     16  H11 UNL     1      84.605 -14.157  67.998  1.00  0.00     0.278 HD
ENDBRANCH  12  13
ENDBRANCH  10  12
ENDBRANCH   1  10
TORSDOF 3
ENDMDL