MODEL 2
REMARK VINA RESULT: -5.325941474      1.288      1.313
REMARK  4 active torsions:
REMARK  status: ('A' for Active; 'I' for Inactive)
REMARK    1  A    between atoms: N1_1  and  C1_5
REMARK    2  A    between atoms: C1_5  and  C2_6
REMARK    3  A    between atoms: C2_6  and  C3_8
REMARK    4  A    between atoms: C3_8  and  N2_9
ROOT
HETATM    1  C2  UNL     1      82.881 -15.565  64.124  1.00  0.00     0.103 C
HETATM    2  S1  UNL     1      82.685 -17.368  63.799  1.00  0.00    -0.089 SA
ENDROOT
BRANCH   1   3
HETATM    3  C1  UNL     1      82.348 -14.881  62.894  1.00  0.00     0.247 C
BRANCH   3   4
HETATM    4  N1  UNL     1      81.085 -15.542  62.517  1.00  0.00    -0.078 N
ATOM      5  H13 UNL     1      81.208 -16.528  62.290  1.00  0.00     0.274 HD
ATOM      6  H12 UNL     1      80.451 -15.662  63.307  1.00  0.00     0.274 HD
ATOM      7  H11 UNL     1      80.668 -15.010  61.753  1.00  0.00     0.274 HD
ENDBRANCH   3   4
ENDBRANCH   1   3
BRANCH   1   8
HETATM    8  C3  UNL     1      84.320 -15.348  64.409  1.00  0.00     0.164 C
BRANCH   8   9
HETATM    9  N2  UNL     1      84.656 -14.398  65.412  1.00  0.00    -0.271 N
HETATM   10  C4  UNL     1      85.809 -14.371  66.239  1.00  0.00     0.212 C
HETATM   11  N3  UNL     1      85.554 -13.588  67.258  1.00  0.00    -0.281 N
HETATM   12  N4  UNL     1      84.263 -13.085  67.143  1.00  0.00    -0.008 NA
ATOM     13  H3  UNL     1      86.202 -13.379  68.018  1.00  0.00     0.184 HD
HETATM   14  N5  UNL     1      83.910 -13.250  65.804  1.00  0.00    -0.005 NA
ENDBRANCH   8   9
ENDBRANCH   1   8
TORSDOF 4
ENDMDL