MODEL 5
REMARK VINA RESULT: -5.500034328      1.928      2.613
REMARK  4 active torsions:
REMARK  status: ('A' for Active; 'I' for Inactive)
REMARK    1  A    between atoms: C4_6  and  N2_7
REMARK    2  A    between atoms: N2_7  and  N3_9
REMARK    3  A    between atoms: N3_9  and  N4_10
REMARK    4  A    between atoms: N5_14  and  O1_15
ROOT
HETATM    1  C1  UNL     1      82.291 -18.023  63.218  1.00  0.00     0.091 C
HETATM    2  C2  UNL     1      83.154 -16.916  63.760  1.00  0.00     0.105 A
HETATM    3  N1  UNL     1      82.608 -16.006  64.586  1.00  0.00    -0.352 N
ATOM      4  H1  UNL     1      81.623 -16.066  64.843  1.00  0.00     0.166 HD
HETATM    5  C3  UNL     1      83.377 -15.021  65.067  1.00  0.00     0.121 A
HETATM    6  C4  UNL     1      84.725 -14.893  64.750  1.00  0.00     0.079 A
HETATM    7  C5  UNL     1      85.249 -15.846  63.901  1.00  0.00     0.156 A
HETATM    8  N5  UNL     1      84.452 -16.830  63.429  1.00  0.00    -0.222 N
ENDROOT
BRANCH   6   9
HETATM    9  N2  UNL     1      85.520 -13.840  65.273  1.00  0.00    -0.282 N
ATOM     10  H2  UNL     1      85.477 -12.904  64.869  1.00  0.00     0.184 HD
BRANCH   9  11
HETATM   11  N3  UNL     1      86.359 -14.111  66.344  1.00  0.00    -0.029 NA
BRANCH  11  12
HETATM   12  N4  UNL     1      85.728 -14.011  67.582  1.00  0.00    -0.329 N
ATOM     13  H42 UNL     1      86.137 -14.393  68.436  1.00  0.00     0.174 HD
ATOM     14  H41 UNL     1      84.832 -13.526  67.545  1.00  0.00     0.174 HD
ENDBRANCH  11  12
ENDBRANCH   9  11
ENDBRANCH   6   9
BRANCH   8  15
HETATM   15  O1  UNL     1      84.958 -17.780  62.586  1.00  0.00    -0.282 OA
ATOM     16  H1  UNL     1      85.890 -17.759  62.404  1.00  0.00     0.245 HD
ENDBRANCH   8  15
TORSDOF 4
ENDMDL