MODEL 3
REMARK VINA RESULT: -5.189116456      1.247      4.456
REMARK  2 active torsions:
REMARK  status: ('A' for Active; 'I' for Inactive)
REMARK       I    between atoms: N1_1  and  C1_5
REMARK       I    between atoms: C1_5  and  N2_6
REMARK       I    between atoms: C1_5  and  N3_10
REMARK    1  A    between atoms: N3_10  and  N4_12
REMARK    2  A    between atoms: C2_14  and  C3_15
ROOT
HETATM    1  N1  UNL     1      82.888 -16.613  61.670  1.00  0.00    -0.032 N
ATOM      2  H11 UNL     1      83.877 -16.582  61.422  1.00  0.00     0.279 HD
ATOM      3  H12 UNL     1      82.269 -16.494  60.867  1.00  0.00     0.279 HD
ATOM      4  H13 UNL     1      82.571 -17.545  61.941  1.00  0.00     0.279 HD
HETATM    5  C1  UNL     1      82.676 -15.609  62.712  1.00  0.00     0.494 C
HETATM    6  N2  UNL     1      81.280 -15.652  63.062  1.00  0.00    -0.032 N
ATOM      7  H21 UNL     1      81.132 -14.952  63.788  1.00  0.00     0.279 HD
ATOM      8  H22 UNL     1      80.963 -16.584  63.333  1.00  0.00     0.279 HD
ATOM      9  H23 UNL     1      80.661 -15.533  62.259  1.00  0.00     0.279 HD
HETATM   10  N3  UNL     1      83.542 -15.958  63.814  1.00  0.00    -0.284 N
ATOM     11  H3  UNL     1      83.152 -16.163  64.734  1.00  0.00     0.184 HD
ENDROOT
BRANCH  10  12
HETATM   12  N4  UNL     1      84.902 -16.010  63.604  1.00  0.00    -0.311 N
HETATM   13  C2  UNL     1      85.789 -15.379  64.254  1.00  0.00     0.137 C
ATOM     14  H4  UNL     1      85.229 -16.616  62.851  1.00  0.00     0.185 HD
BRANCH  13  15
HETATM   15  C3  UNL     1      85.471 -14.479  65.349  1.00  0.00     0.065 A
HETATM   16  C4  UNL     1      85.866 -14.540  66.661  1.00  0.00     0.119 A
HETATM   17  N5  UNL     1      85.335 -13.499  67.324  1.00  0.00    -0.360 N
HETATM   18  C5  UNL     1      84.614 -12.783  66.455  1.00  0.00     0.180 A
ATOM     19  H5  UNL     1      85.460 -13.291  68.315  1.00  0.00     0.166 HD
HETATM   20  N6  UNL     1      84.695 -13.371  65.269  1.00  0.00    -0.350 N
ATOM     21  H6  UNL     1      84.239 -13.037  64.419  1.00  0.00     0.166 HD
ENDBRANCH  13  15
ENDBRANCH  10  12
TORSDOF 2
ENDMDL