MODEL 1
REMARK VINA RESULT: -5.608680304      0.000      0.000
REMARK  6 active torsions:
REMARK  status: ('A' for Active; 'I' for Inactive)
REMARK    1  A    between atoms: N1_1  and  C1_4
REMARK    2  A    between atoms: C2_7  and  C3_8
REMARK    3  A    between atoms: C3_8  and  C4_9
REMARK    4  A    between atoms: C3_8  and  C5_14
REMARK    5  A    between atoms: C4_9  and  N3_10
REMARK    6  A    between atoms: C5_14  and  N4_15
ROOT
HETATM    1  C3  UNL     1      83.499 -15.520  63.961  1.00  0.00     0.114 C
ENDROOT
BRANCH   1   2
HETATM    2  C2  UNL     1      83.896 -14.310  64.743  1.00  0.00     0.170 A
HETATM    3  N2  UNL     1      84.393 -14.288  65.993  1.00  0.00    -0.170 N
HETATM    4  C1  UNL     1      84.614 -13.004  66.322  1.00  0.00     0.697 A
ATOM      5  H2  UNL     1      84.571 -15.100  66.585  1.00  0.00     0.186 HD
HETATM    6  N5  UNL     1      84.251 -12.246  65.275  1.00  0.00    -0.090 N
HETATM    7  O1  UNL     1      83.833 -13.056  64.364  1.00  0.00    -0.209 OA
ATOM      8  H5  UNL     1      84.298 -11.229  65.213  1.00  0.00     0.213 HD
BRANCH   4   9
HETATM    9  N1  UNL     1      85.088 -12.552  67.435  1.00  0.00    -0.233 N
ATOM     10  H12 UNL     1      84.817 -12.879  68.362  1.00  0.00     0.174 HD
ATOM     11  H11 UNL     1      85.785 -11.818  67.556  1.00  0.00     0.174 HD
ENDBRANCH   4   9
ENDBRANCH   1   2
BRANCH   1  12
HETATM   12  C4  UNL     1      82.541 -15.082  62.882  1.00  0.00     0.244 C
BRANCH  12  13
HETATM   13  N3  UNL     1      81.240 -15.664  63.024  1.00  0.00    -0.079 N
ATOM     14  H33 UNL     1      80.977 -16.181  62.185  1.00  0.00     0.274 HD
ATOM     15  H32 UNL     1      81.256 -16.432  63.694  1.00  0.00     0.274 HD
ATOM     16  H31 UNL     1      80.525 -14.979  63.270  1.00  0.00     0.274 HD
ENDBRANCH  12  13
ENDBRANCH   1  12
BRANCH   1  17
HETATM   17  C5  UNL     1      84.694 -16.177  63.323  1.00  0.00     0.244 C
BRANCH  17  18
HETATM   18  N4  UNL     1      84.364 -17.320  62.536  1.00  0.00    -0.079 N
ATOM     19  H43 UNL     1      83.355 -17.386  62.402  1.00  0.00     0.274 HD
ATOM     20  H42 UNL     1      84.655 -17.187  61.567  1.00  0.00     0.274 HD
ATOM     21  H41 UNL     1      84.738 -18.193  62.908  1.00  0.00     0.274 HD
ENDBRANCH  17  18
ENDBRANCH   1  17
TORSDOF 6
ENDMDL