MODEL 2
REMARK VINA RESULT: -8.379539659      0.877      1.027
REMARK  9 active torsions:
REMARK  status: ('A' for Active; 'I' for Inactive)
REMARK    1  A    between atoms: C2_2  and  C3_3
REMARK    2  A    between atoms: C3_3  and  C4_4
REMARK    3  A    between atoms: C4_4  and  C5_5
REMARK    4  A    between atoms: C5_5  and  C6_6
REMARK    5  A    between atoms: C10_12  and  C11_13
REMARK    6  A    between atoms: C11_13  and  C12_14
REMARK    7  A    between atoms: C16_20  and  C17_21
REMARK    8  A    between atoms: C17_21  and  C18_22
REMARK    9  A    between atoms: C22_29  and  C23_30
ROOT
HETATM    1  C6  UNL     1      13.299 -12.971  16.559  1.00  0.00     0.078 C
HETATM    2  C7  UNL     1      13.520 -14.272  17.288  1.00  0.00     0.024 C
HETATM    3  C8  UNL     1      14.615 -15.106  16.673  1.00  0.00     0.112 C
HETATM    4  C9  UNL     1      14.487 -15.325  15.229  1.00  0.00     0.259 C
HETATM    5  O1  UNL     1      15.126 -14.548  14.466  1.00  0.00    -0.265 OA
HETATM    6  O2  UNL     1      13.746 -16.285  14.607  1.00  0.00    -0.306 OA
HETATM    7  C10 UNL     1      13.666 -17.667  15.005  1.00  0.00     0.231 C
HETATM    8  C15 UNL     1      12.372 -18.170  14.480  1.00  0.00     0.289 C
HETATM    9  O3  UNL     1      12.170 -19.400  14.698  1.00  0.00    -0.262 OA
HETATM   10  O4  UNL     1      11.426 -17.472  13.822  1.00  0.00    -0.304 OA
HETATM   11  C16 UNL     1      11.360 -16.739  12.663  1.00  0.00     0.224 C
HETATM   12  C21 UNL     1       9.958 -16.819  12.141  1.00  0.00     0.248 C
HETATM   13  O5  UNL     1       9.439 -17.986  12.267  1.00  0.00    -0.271 OA
HETATM   14  N1  UNL     1       9.227 -15.782  11.563  1.00  0.00    -0.347 N
ATOM     15  H1  UNL     1       8.789 -15.993  10.667  1.00  0.00     0.163 HD
HETATM   16  C22 UNL     1       9.011 -14.448  12.071  1.00  0.00     0.158 C
HETATM   17  C26 UNL     1       9.087 -14.366  13.553  1.00  0.00     0.166 C
HETATM   18  O6  UNL     1       8.783 -15.371  14.174  1.00  0.00    -0.295 OA
HETATM   19  C27 UNL     1       9.504 -13.150  14.297  1.00  0.00     0.192 C
HETATM   20  C28 UNL     1       8.515 -12.734  15.358  1.00  0.00     0.234 C
HETATM   21  O7  UNL     1       7.652 -11.852  15.538  1.00  0.00    -0.273 OA
HETATM   22  N2  UNL     1       9.012 -13.850  16.119  1.00  0.00    -0.338 N
ATOM     23  H2  UNL     1       8.634 -14.533  16.776  1.00  0.00     0.164 HD
HETATM   24  C29 UNL     1      10.317 -13.547  15.509  1.00  0.00     0.207 C
HETATM   25  N3  UNL     1      10.841 -12.358  16.160  1.00  0.00    -0.338 N
ATOM     26  H3  UNL     1      10.318 -11.489  16.050  1.00  0.00     0.164 HD
HETATM   27  C30 UNL     1      12.029 -12.319  16.940  1.00  0.00     0.223 C
HETATM   28  O8  UNL     1      12.007 -11.688  18.032  1.00  0.00    -0.273 OA
ENDROOT
BRANCH   1  29
HETATM   29  C5  UNL     1      14.502 -12.083  16.877  1.00  0.00     0.014 C
BRANCH  29  30
HETATM   30  C4  UNL     1      15.166 -11.751  15.568  1.00  0.00     0.001 C
BRANCH  30  31
HETATM   31  C3  UNL     1      14.218 -11.051  14.616  1.00  0.00    -0.000 C
BRANCH  31  32
HETATM   32  C2  UNL     1      15.006  -9.895  13.996  1.00  0.00    -0.005 C
HETATM   33  C1  UNL     1      16.466 -10.279  14.096  1.00  0.00     0.005 C
ENDBRANCH  31  32
ENDBRANCH  30  31
ENDBRANCH  29  30
ENDBRANCH   1  29
BRANCH   7  34
HETATM   34  C11 UNL     1      14.876 -18.331  14.491  1.00  0.00     0.046 C
BRANCH  34  35
HETATM   35  C12 UNL     1      15.926 -18.749  15.421  1.00  0.00    -0.020 C
HETATM   36  C13 UNL     1      17.111 -17.767  15.323  1.00  0.00     0.009 C
HETATM   37  C14 UNL     1      15.586 -18.926  16.845  1.00  0.00     0.009 C
ENDBRANCH  34  35
ENDBRANCH   7  34
BRANCH  16  38
HETATM   38  C23 UNL     1       7.692 -13.939  11.542  1.00  0.00     0.007 C
HETATM   39  C24 UNL     1       6.608 -14.951  11.475  1.00  0.00     0.012 C
HETATM   40  C25 UNL     1       7.837 -13.254  10.208  1.00  0.00     0.012 C
ENDBRANCH  16  38
BRANCH  11  41
HETATM   41  C17 UNL     1      12.280 -17.232  11.581  1.00  0.00     0.046 C
BRANCH  41  42
HETATM   42  C18 UNL     1      11.984 -18.638  11.147  1.00  0.00    -0.020 C
HETATM   43  C19 UNL     1      11.571 -18.749   9.709  1.00  0.00     0.009 C
HETATM   44  C20 UNL     1      13.300 -19.419  11.283  1.00  0.00     0.009 C
ENDBRANCH  41  42
ENDBRANCH  11  41
TORSDOF 9
ENDMDL