MODEL 4
REMARK VINA RESULT: -7.544294932      1.304      3.667
REMARK  13 active torsions:
REMARK  status: ('A' for Active; 'I' for Inactive)
REMARK    1  A    between atoms: C3_3  and  C4_4
REMARK    2  A    between atoms: C5_5  and  C7_7
REMARK    3  A    between atoms: C7_7  and  C8_8
REMARK    4  A    between atoms: C8_8  and  C9_9
REMARK    5  A    between atoms: C8_8  and  C13_13
REMARK    6  A    between atoms: C9_9  and  C10_10
REMARK    7  A    between atoms: C13_13  and  O1_14
REMARK    8  A    between atoms: C13_13  and  C14_16
REMARK    9  A    between atoms: C14_16  and  C15_17
REMARK   10  A    between atoms: C16_18  and  O2_19
REMARK   11  A    between atoms: C21_25  and  O3_26
REMARK   12  A    between atoms: C25_33  and  C26_34
REMARK   13  A    between atoms: C26_34  and  C27_35
ROOT
HETATM    1  C1  UNL     1      11.257 -12.456  23.221  1.00  0.00     0.112 C
HETATM    2  C2  UNL     1      11.770 -12.870  21.912  1.00  0.00    -0.106 C
HETATM    3  C3  UNL     1      12.207 -13.226  20.847  1.00  0.00    -0.079 C
ENDROOT
BRANCH   3   4
HETATM    4  C4  UNL     1      12.753 -13.636  19.552  1.00  0.00     0.067 C
HETATM    5  C5  UNL     1      12.323 -13.135  18.425  1.00  0.00    -0.075 C
HETATM    6  C6  UNL     1      11.211 -12.102  18.589  1.00  0.00     0.044 C
BRANCH   5   7
HETATM    7  C7  UNL     1      12.810 -13.426  17.081  1.00  0.00     0.041 C
BRANCH   7   8
HETATM    8  C8  UNL     1      14.271 -13.618  16.964  1.00  0.00     0.019 C
BRANCH   8   9
HETATM    9  C9  UNL     1      15.005 -12.563  16.220  1.00  0.00     0.011 C
BRANCH   9  10
HETATM   10  C10 UNL     1      14.890 -12.668  14.717  1.00  0.00    -0.022 C
HETATM   11  C11 UNL     1      16.200 -12.852  14.026  1.00  0.00     0.009 C
HETATM   12  C12 UNL     1      14.245 -11.378  14.223  1.00  0.00     0.009 C
ENDBRANCH   9  10
ENDBRANCH   8   9
BRANCH   8  13
HETATM   13  C13 UNL     1      14.624 -15.041  16.511  1.00  0.00     0.127 C
BRANCH  13  14
HETATM   14  O1  UNL     1      15.430 -15.550  17.524  1.00  0.00    -0.395 OA
ATOM     15  H1  UNL     1      16.234 -15.810  17.090  1.00  0.00     0.210 HD
ENDBRANCH  13  14
BRANCH  13  16
HETATM   16  C14 UNL     1      13.410 -15.889  16.353  1.00  0.00     0.079 C
BRANCH  16  17
HETATM   17  C15 UNL     1      13.603 -16.964  15.268  1.00  0.00     0.045 C
HETATM   18  C16 UNL     1      13.155 -18.293  15.670  1.00  0.00     0.077 C
HETATM   19  C17 UNL     1      11.869 -18.851  15.966  1.00  0.00     0.037 C
HETATM   20  C18 UNL     1      10.807 -19.158  15.251  1.00  0.00     0.003 C
HETATM   21  C19 UNL     1      10.483 -19.058  13.813  1.00  0.00     0.003 C
HETATM   22  C20 UNL     1      10.978 -19.431  12.673  1.00  0.00     0.035 C
HETATM   23  C21 UNL     1      10.648 -19.327  11.254  1.00  0.00     0.072 C
HETATM   24  C22 UNL     1      10.263 -18.202  10.404  1.00  0.00     0.184 C
HETATM   25  C23 UNL     1      10.230 -18.559   8.972  1.00  0.00     0.047 C
HETATM   26  O4  UNL     1      11.019 -17.032  10.551  1.00  0.00    -0.308 OA
HETATM   27  C24 UNL     1      10.567 -15.750  10.784  1.00  0.00     0.282 C
HETATM   28  O5  UNL     1      11.203 -14.789  10.278  1.00  0.00    -0.263 OA
HETATM   29  C25 UNL     1       9.387 -15.378  11.584  1.00  0.00     0.185 C
HETATM   30  N1  UNL     1       9.503 -15.515  12.997  1.00  0.00    -0.343 N
HETATM   31  C30 UNL     1      10.358 -14.906  13.921  1.00  0.00     0.257 C
ATOM     32  H1  UNL     1       8.844 -16.176  13.409  1.00  0.00     0.163 HD
HETATM   33  O6  UNL     1       9.811 -14.688  15.073  1.00  0.00    -0.267 OA
HETATM   34  C31 UNL     1      11.737 -14.480  13.804  1.00  0.00     0.165 C
HETATM   35  N2  UNL     1      12.752 -15.357  13.383  1.00  0.00    -0.328 N
HETATM   36  C32 UNL     1      13.361 -16.487  13.914  1.00  0.00     0.254 C
ATOM     37  H2  UNL     1      13.130 -15.104  12.471  1.00  0.00     0.168 HD
HETATM   38  O7  UNL     1      13.828 -17.314  13.030  1.00  0.00    -0.268 OA
BRANCH  18  39
HETATM   39  O2  UNL     1      14.158 -19.132  15.775  1.00  0.00    -0.360 OA
ATOM     40  H2  UNL     1      14.522 -19.137  16.653  1.00  0.00     0.217 HD
ENDBRANCH  18  39
BRANCH  23  41
HETATM   41  O3  UNL     1      10.715 -20.471  10.622  1.00  0.00    -0.362 OA
ATOM     42  H3  UNL     1      10.448 -20.413   9.711  1.00  0.00     0.217 HD
ENDBRANCH  23  41
BRANCH  29  43
HETATM   43  C26 UNL     1       8.826 -14.006  11.284  1.00  0.00     0.039 C
BRANCH  43  44
HETATM   44  C27 UNL     1       7.708 -14.031  10.304  1.00  0.00    -0.020 C
HETATM   45  C28 UNL     1       7.879 -12.851   9.361  1.00  0.00     0.009 C
HETATM   46  C29 UNL     1       6.350 -13.881  10.961  1.00  0.00     0.009 C
ENDBRANCH  43  44
ENDBRANCH  29  43
ENDBRANCH  16  17
ENDBRANCH  13  16
ENDBRANCH   8  13
ENDBRANCH   7   8
ENDBRANCH   5   7
ENDBRANCH   3   4
TORSDOF 13
ENDMDL