MODEL 5
REMARK VINA RESULT: -8.960974928      2.628      5.387
REMARK  10 active torsions:
REMARK  status: ('A' for Active; 'I' for Inactive)
REMARK    1  A    between atoms: C2_2  and  O1_3
REMARK    2  A    between atoms: O1_3  and  C3_4
REMARK    3  A    between atoms: C6_7  and  C7_8
REMARK    4  A    between atoms: C8_9  and  C9_10
REMARK    5  A    between atoms: C14_16  and  N2_17
REMARK    6  A    between atoms: C23_30  and  C24_31
REMARK    7  A    between atoms: C24_31  and  C25_32
REMARK    8  A    between atoms: C25_32  and  N4_33
REMARK       I    between atoms: N4_33  and  C26_35
REMARK       I    between atoms: C26_35  and  N5_37
REMARK    9  A    between atoms: N5_37  and  C27_39
REMARK   10  A    between atoms: N6_42  and  C30_43
ROOT
HETATM    1  C3  UNL     1       9.694 -14.743  13.174  1.00  0.00     0.075 A
HETATM    2  C4  UNL     1       9.862 -13.389  13.378  1.00  0.00     0.038 A
HETATM    3  C5  UNL     1      10.276 -12.873  14.614  1.00  0.00     0.015 A
HETATM    4  C6  UNL     1      10.535 -13.681  15.676  1.00  0.00    -0.019 A
HETATM    5  C22 UNL     1      10.368 -15.036  15.471  1.00  0.00     0.022 A
HETATM    6  C23 UNL     1       9.955 -15.578  14.241  1.00  0.00    -0.022 A
ENDROOT
BRANCH   4   7
HETATM    7  C7  UNL     1      10.937 -13.197  17.008  1.00  0.00     0.059 A
HETATM    8  C8  UNL     1      12.119 -13.121  17.513  1.00  0.00     0.061 A
HETATM    9  C20 UNL     1      11.944 -12.574  18.895  1.00  0.00     0.260 A
HETATM   10  O2  UNL     1      12.874 -12.358  19.703  1.00  0.00    -0.267 OA
HETATM   11  N3  UNL     1      10.577 -12.340  19.146  1.00  0.00    -0.289 N
HETATM   12  C21 UNL     1       9.903 -12.721  17.978  1.00  0.00     0.260 A
ATOM     13  H3  UNL     1      10.164 -11.970  20.001  1.00  0.00     0.172 HD
HETATM   14  O3  UNL     1       8.666 -12.686  17.742  1.00  0.00    -0.267 OA
BRANCH   8  15
HETATM   15  C9  UNL     1      13.437 -13.471  16.972  1.00  0.00     0.009 A
HETATM   16  C10 UNL     1      14.322 -14.473  17.219  1.00  0.00     0.104 A
HETATM   17  N1  UNL     1      15.399 -14.369  16.409  1.00  0.00    -0.359 N
HETATM   18  C11 UNL     1      16.521 -15.282  16.422  1.00  0.00     0.156 C
HETATM   19  C12 UNL     1      15.262 -13.299  15.603  1.00  0.00     0.047 A
HETATM   20  C13 UNL     1      16.061 -12.753  14.601  1.00  0.00     0.059 A
HETATM   21  C19 UNL     1      14.053 -12.732  15.939  1.00  0.00     0.004 A
HETATM   22  C14 UNL     1      15.678 -11.628  13.906  1.00  0.00     0.031 A
HETATM   23  C17 UNL     1      14.469 -11.061  14.242  1.00  0.00     0.030 A
HETATM   24  C18 UNL     1      13.678 -11.604  15.235  1.00  0.00     0.017 A
BRANCH  22  25
HETATM   25  N2  UNL     1      16.505 -11.067  12.873  1.00  0.00    -0.389 N
HETATM   26  C15 UNL     1      16.396  -9.658  12.547  1.00  0.00     0.149 C
HETATM   27  C16 UNL     1      17.456 -11.894  12.148  1.00  0.00     0.149 C
ENDBRANCH  22  25
ENDBRANCH   8  15
ENDBRANCH   4   7
BRANCH   6  28
HETATM   28  C24 UNL     1       9.877 -17.040  14.139  1.00  0.00     0.061 C
BRANCH  28  29
HETATM   29  C25 UNL     1      10.835 -17.716  13.271  1.00  0.00     0.129 C
BRANCH  29  30
HETATM   30  N4  UNL     1      12.238 -17.432  13.354  1.00  0.00    -0.343 N
HETATM   31  C26 UNL     1      13.107 -18.426  13.945  1.00  0.00     0.321 C
HETATM   32  O4  UNL     1      12.604 -19.481  14.355  1.00  0.00    -0.247 OA
HETATM   33  N5  UNL     1      14.480 -18.169  14.036  1.00  0.00    -0.294 N
ATOM     34  H5  UNL     1      14.925 -17.722  13.234  1.00  0.00     0.172 HD
ATOM     35  H4  UNL     1      12.614 -16.550  13.006  1.00  0.00     0.164 HD
BRANCH  33  36
HETATM   36  C27 UNL     1      15.227 -18.446  15.042  1.00  0.00     0.125 A
HETATM   37  C28 UNL     1      16.570 -18.743  14.952  1.00  0.00     0.069 A
HETATM   38  C29 UNL     1      17.064 -18.990  16.215  1.00  0.00     0.114 A
HETATM   39  N6  UNL     1      16.001 -18.835  17.049  1.00  0.00    -0.302 N
HETATM   40  N7  UNL     1      14.941 -18.520  16.352  1.00  0.00    -0.284 N
ATOM     41  H7  UNL     1      14.018 -18.352  16.752  1.00  0.00     0.188 HD
BRANCH  39  42
HETATM   42  C30 UNL     1      16.139 -19.019  18.495  1.00  0.00     0.143 C
HETATM   43  C31 UNL     1      15.912 -17.756  19.259  1.00  0.00     0.028 C
ENDBRANCH  39  42
ENDBRANCH  33  36
ENDBRANCH  29  30
ENDBRANCH  28  29
ENDBRANCH   6  28
BRANCH   1  44
HETATM   44  O1  UNL     1       9.280 -15.266  11.965  1.00  0.00    -0.351 OA
BRANCH  44  45
HETATM   45  C2  UNL     1       9.761 -14.892  10.704  1.00  0.00     0.171 C
HETATM   46  C1  UNL     1      11.139 -15.387  10.392  1.00  0.00     0.034 C
ENDBRANCH  44  45
ENDBRANCH   1  44
TORSDOF 10
ENDMDL