MODEL 4
REMARK VINA RESULT: -7.681808295      2.783      6.093
REMARK  11 active torsions:
REMARK  status: ('A' for Active; 'I' for Inactive)
REMARK    1  A    between atoms: C2_2  and  C3_3
REMARK    2  A    between atoms: C6_8  and  C7_9
REMARK    3  A    between atoms: C8_12  and  O3_13
REMARK    4  A    between atoms: C9_15  and  C10_16
REMARK    5  A    between atoms: C10_16  and  C11_17
REMARK    6  A    between atoms: C11_17  and  C12_18
REMARK    7  A    between atoms: C12_18  and  C13_19
REMARK    8  A    between atoms: C13_19  and  C14_20
REMARK    9  A    between atoms: C14_20  and  C15_21
REMARK   10  A    between atoms: C22_34  and  C23_35
REMARK   11  A    between atoms: C23_35  and  C25_37
ROOT
HETATM    1  C3  UNL     1       9.732 -14.020  15.882  1.00  0.00    -0.039 C
HETATM    2  C4  UNL     1       8.438 -14.866  15.696  1.00  0.00     0.050 C
HETATM    3  C5  UNL     1      10.629 -14.187  14.953  1.00  0.00     0.033 C
HETATM    4  N1  UNL     1      10.492 -15.064  13.906  1.00  0.00    -0.350 N
ATOM      5  H1  UNL     1       9.770 -14.613  13.342  1.00  0.00     0.166 HD
HETATM    6  C6  UNL     1      10.736 -16.087  13.245  1.00  0.00     0.145 C
HETATM    7  C8  UNL     1      11.655 -17.195  13.399  1.00  0.00     0.122 C
HETATM    8  C9  UNL     1      11.874 -18.373  14.199  1.00  0.00     0.050 C
HETATM    9  N2  UNL     1      13.290 -18.810  14.285  1.00  0.00    -0.322 N
HETATM   10  C17 UNL     1      13.484 -20.284  14.103  1.00  0.00     0.159 C
HETATM   11  C18 UNL     1      14.441 -18.068  14.496  1.00  0.00     0.246 C
HETATM   12  O5  UNL     1      15.340 -18.146  13.573  1.00  0.00    -0.271 OA
HETATM   13  C19 UNL     1      14.841 -17.182  15.617  1.00  0.00     0.173 C
HETATM   14  C20 UNL     1      15.322 -18.011  16.841  1.00  0.00     0.042 C
HETATM   15  N3  UNL     1      15.996 -16.363  15.301  1.00  0.00    -0.346 N
ATOM     16  H3  UNL     1      16.766 -16.826  14.817  1.00  0.00     0.163 HD
HETATM   17  C21 UNL     1      16.168 -14.994  15.590  1.00  0.00     0.241 C
HETATM   18  O6  UNL     1      17.208 -14.700  16.261  1.00  0.00    -0.271 OA
HETATM   19  C22 UNL     1      15.285 -13.872  15.205  1.00  0.00     0.180 C
HETATM   20  N4  UNL     1      14.212 -13.582  16.091  1.00  0.00    -0.346 N
ATOM     21  H4  UNL     1      14.493 -13.164  16.977  1.00  0.00     0.163 HD
HETATM   22  C27 UNL     1      12.822 -13.779  15.945  1.00  0.00     0.232 C
HETATM   23  O7  UNL     1      12.344 -14.532  16.880  1.00  0.00    -0.272 OA
HETATM   24  C28 UNL     1      11.878 -13.305  14.972  1.00  0.00     0.076 C
HETATM   25  C29 UNL     1      12.442 -13.326  13.533  1.00  0.00     0.032 C
HETATM   26  C30 UNL     1      11.606 -11.856  15.202  1.00  0.00     0.032 C
ENDROOT
BRANCH   8  27
HETATM   27  C10 UNL     1      11.094 -18.760  15.380  1.00  0.00     0.060 C
BRANCH  27  28
HETATM   28  C11 UNL     1       9.947 -19.666  15.280  1.00  0.00     0.006 C
BRANCH  28  29
HETATM   29  C12 UNL     1       9.360 -20.010  13.980  1.00  0.00     0.001 C
BRANCH  29  30
HETATM   30  C13 UNL     1       8.258 -19.239  13.399  1.00  0.00     0.007 C
BRANCH  30  31
HETATM   31  C14 UNL     1       7.587 -18.151  14.131  1.00  0.00     0.077 C
BRANCH  31  32
HETATM   32  C15 UNL     1       6.391 -18.549  14.909  1.00  0.00     0.123 C
HETATM   33  C16 UNL     1       5.674 -19.793  14.547  1.00  0.00     0.091 C
HETATM   34  O4  UNL     1       5.997 -17.880  15.825  1.00  0.00    -0.298 OA
ENDBRANCH  31  32
ENDBRANCH  30  31
ENDBRANCH  29  30
ENDBRANCH  28  29
ENDBRANCH  27  28
ENDBRANCH   8  27
BRANCH   7  35
HETATM   35  O3  UNL     1      12.652 -17.102  12.477  1.00  0.00    -0.356 OA
ATOM     36  H3  UNL     1      13.303 -17.776  12.634  1.00  0.00     0.218 HD
ENDBRANCH   7  35
BRANCH   6  37
HETATM   37  C7  UNL     1       9.907 -16.180  11.982  1.00  0.00     0.229 C
HETATM   38  O1  UNL     1       9.020 -15.309  11.776  1.00  0.00    -0.643 OA
HETATM   39  O2  UNL     1      10.033 -17.137  11.020  1.00  0.00    -0.643 OA
ENDBRANCH   6  37
BRANCH   1  40
HETATM   40  C2  UNL     1       9.715 -13.164  17.036  1.00  0.00    -0.002 C
HETATM   41  C1  UNL     1       8.548 -12.915  17.633  1.00  0.00     0.012 C
ENDBRANCH   1  40
BRANCH  19  42
HETATM   42  C23 UNL     1      16.087 -12.572  15.065  1.00  0.00     0.013 C
HETATM   43  C24 UNL     1      16.689 -12.371  13.717  1.00  0.00     0.012 C
BRANCH  42  44
HETATM   44  C25 UNL     1      15.260 -11.391  15.526  1.00  0.00     0.002 C
HETATM   45  C26 UNL     1      14.963 -10.473  14.360  1.00  0.00     0.005 C
ENDBRANCH  42  44
ENDBRANCH  19  42
TORSDOF 11
ENDMDL