MODEL 2
REMARK VINA RESULT: -8.378417172      1.368      1.804
REMARK  10 active torsions:
REMARK  status: ('A' for Active; 'I' for Inactive)
REMARK    1  A    between atoms: C5_5  and  O1_6
REMARK    2  A    between atoms: C7_9  and  C8_10
REMARK       I    between atoms: C8_10  and  N1_12
REMARK    3  A    between atoms: C9_14  and  C10_15
REMARK    4  A    between atoms: C10_15  and  N2_16
REMARK    5  A    between atoms: C13_19  and  C14_20
REMARK       I    between atoms: C14_20  and  N3_22
REMARK    6  A    between atoms: N3_22  and  C15_24
REMARK    7  A    between atoms: C15_24  and  C16_25
REMARK    8  A    between atoms: C22_33  and  C23_34
REMARK    9  A    between atoms: C26_39  and  C27_40
REMARK   10  A    between atoms: C27_40  and  C28_41
ROOT
HETATM    1  C1  UNL     1      12.243 -18.700  10.717  1.00  0.00     0.036 C
HETATM    2  C2  UNL     1      11.445 -17.445  10.748  1.00  0.00    -0.028 C
HETATM    3  C3  UNL     1      11.156 -16.896  11.929  1.00  0.00    -0.075 C
HETATM    4  C4  UNL     1      11.592 -17.476  13.216  1.00  0.00     0.072 C
HETATM    5  C5  UNL     1      12.482 -16.422  13.844  1.00  0.00     0.068 C
HETATM    6  C6  UNL     1      12.769 -16.706  15.288  1.00  0.00     0.053 C
HETATM    7  C7  UNL     1      13.191 -15.355  15.757  1.00  0.00     0.094 C
HETATM    8  C13 UNL     1      12.360 -14.336  14.945  1.00  0.00     0.099 C
HETATM    9  C19 UNL     1      11.908 -15.033  13.739  1.00  0.00     0.053 C
HETATM   10  C20 UNL     1      10.447 -15.033  13.380  1.00  0.00     0.065 C
HETATM   11  C21 UNL     1       9.513 -15.528  14.410  1.00  0.00     0.053 C
HETATM   12  C22 UNL     1       8.799 -14.335  15.028  1.00  0.00     0.133 C
HETATM   13  O6  UNL     1       9.518 -13.244  14.559  1.00  0.00    -0.315 OA
HETATM   14  C25 UNL     1      10.025 -13.611  13.295  1.00  0.00     0.269 C
HETATM   15  O7  UNL     1      10.119 -12.904  12.274  1.00  0.00    -0.264 OA
HETATM   16  C26 UNL     1      10.352 -15.627  12.011  1.00  0.00     0.036 C
ENDROOT
BRANCH   8  17
HETATM   17  C14 UNL     1      13.302 -13.218  14.656  1.00  0.00     0.224 C
HETATM   18  O3  UNL     1      12.773 -12.124  14.248  1.00  0.00    -0.273 OA
HETATM   19  N3  UNL     1      14.706 -13.269  14.798  1.00  0.00    -0.342 N
ATOM     20  H3  UNL     1      15.142 -14.134  15.119  1.00  0.00     0.163 HD
BRANCH  19  21
HETATM   21  C15 UNL     1      15.535 -12.134  14.503  1.00  0.00     0.121 A
HETATM   22  C17 UNL     1      16.941 -12.517  14.094  1.00  0.00     0.045 A
HETATM   23  C18 UNL     1      16.027 -11.874  13.122  1.00  0.00     0.045 A
BRANCH  21  24
HETATM   24  C16 UNL     1      15.369 -10.974  15.416  1.00  0.00     0.202 C
HETATM   25  O4  UNL     1      15.140 -11.208  16.639  1.00  0.00    -0.646 OA
HETATM   26  O5  UNL     1      15.450  -9.673  14.992  1.00  0.00    -0.646 OA
ENDBRANCH  21  24
ENDBRANCH  19  21
ENDBRANCH   8  17
BRANCH   7  27
HETATM   27  C8  UNL     1      13.072 -15.110  17.192  1.00  0.00     0.226 C
HETATM   28  O2  UNL     1      12.337 -14.199  17.646  1.00  0.00    -0.273 OA
HETATM   29  N1  UNL     1      13.786 -15.897  18.129  1.00  0.00    -0.339 N
HETATM   30  C9  UNL     1      14.988 -16.315  17.960  1.00  0.00     0.093 C
ATOM     31  H1  UNL     1      13.313 -16.148  18.998  1.00  0.00     0.167 HD
BRANCH  30  32
HETATM   32  C10 UNL     1      15.587 -17.130  19.042  1.00  0.00     0.315 C
BRANCH  32  33
HETATM   33  N2  UNL     1      16.918 -17.602  18.726  1.00  0.00     0.084 N
HETATM   34  C11 UNL     1      17.802 -17.503  19.858  1.00  0.00     0.309 C
HETATM   35  C12 UNL     1      17.456 -16.921  17.575  1.00  0.00     0.309 C
ENDBRANCH  32  33
ENDBRANCH  30  32
ENDBRANCH   7  27
BRANCH   5  36
HETATM   36  O1  UNL     1      13.699 -16.473  13.165  1.00  0.00    -0.389 OA
ATOM     37  H1  UNL     1      14.117 -17.288  13.419  1.00  0.00     0.210 HD
ENDBRANCH   5  36
BRANCH  16  38
HETATM   38  C27 UNL     1       9.047 -15.976  11.445  1.00  0.00     0.037 C
BRANCH  38  39
HETATM   39  C28 UNL     1       8.556 -15.286  10.262  1.00  0.00    -0.024 C
HETATM   40  C29 UNL     1       7.543 -14.419  10.259  1.00  0.00    -0.091 C
HETATM   41  C30 UNL     1       7.054 -13.725   9.045  1.00  0.00     0.042 C
HETATM   42  C31 UNL     1       6.871 -14.138  11.550  1.00  0.00     0.042 C
ENDBRANCH  38  39
ENDBRANCH  16  38
BRANCH  12  43
HETATM   43  C23 UNL     1       8.633 -14.435  16.513  1.00  0.00     0.028 C
HETATM   44  C24 UNL     1       8.772 -13.080  17.169  1.00  0.00     0.007 C
ENDBRANCH  12  43
TORSDOF 10
ENDMDL