MODEL 5
REMARK VINA RESULT: -7.542681366      2.365      7.018
REMARK  10 active torsions:
REMARK  status: ('A' for Active; 'I' for Inactive)
REMARK    1  A    between atoms: C2_2  and  C3_3
REMARK    2  A    between atoms: C3_3  and  C5_5
REMARK    3  A    between atoms: C7_10  and  C8_11
REMARK    4  A    between atoms: C8_11  and  C9_12
REMARK    5  A    between atoms: C12_15  and  O2_16
REMARK    6  A    between atoms: C16_22  and  O3_23
REMARK    7  A    between atoms: C17_25  and  C18_26
REMARK    8  A    between atoms: C18_26  and  C19_27
REMARK    9  A    between atoms: C26_37  and  C27_38
REMARK   10  A    between atoms: C27_38  and  C28_39
ROOT
HETATM    1  C5  UNL     1      14.146 -16.623  16.602  1.00  0.00     0.180 C
HETATM    2  N1  UNL     1      13.351 -17.819  16.450  1.00  0.00    -0.346 N
ATOM      3  H1  UNL     1      13.150 -18.340  17.303  1.00  0.00     0.163 HD
HETATM    4  C6  UNL     1      12.818 -18.348  15.249  1.00  0.00     0.241 C
HETATM    5  O1  UNL     1      12.923 -19.588  15.038  1.00  0.00    -0.271 OA
HETATM    6  C7  UNL     1      12.128 -17.526  14.199  1.00  0.00     0.179 C
HETATM    7  N2  UNL     1      11.430 -16.417  14.787  1.00  0.00    -0.359 N
ATOM      8  H2  UNL     1      11.528 -16.386  15.801  1.00  0.00     0.162 HD
HETATM    9  C16 UNL     1      10.658 -15.388  14.299  1.00  0.00     0.142 C
HETATM   10  C17 UNL     1      10.968 -14.282  13.361  1.00  0.00     0.206 C
HETATM   11  O4  UNL     1      11.302 -13.102  13.919  1.00  0.00    -0.307 OA
HETATM   12  C22 UNL     1      11.456 -12.270  14.900  1.00  0.00     0.270 C
HETATM   13  O5  UNL     1      10.438 -11.738  15.485  1.00  0.00    -0.264 OA
HETATM   14  C23 UNL     1      12.763 -11.842  15.446  1.00  0.00     0.153 C
HETATM   15  C24 UNL     1      13.761 -11.607  14.286  1.00  0.00     0.029 C
HETATM   16  C25 UNL     1      13.397 -12.650  16.459  1.00  0.00     0.162 C
HETATM   17  O6  UNL     1      14.642 -12.545  16.539  1.00  0.00    -0.295 OA
HETATM   18  C26 UNL     1      12.809 -13.597  17.433  1.00  0.00     0.155 C
HETATM   19  N3  UNL     1      13.784 -14.476  17.999  1.00  0.00    -0.348 N
ATOM     20  H3  UNL     1      14.498 -14.027  18.573  1.00  0.00     0.163 HD
HETATM   21  C31 UNL     1      13.898 -15.884  17.876  1.00  0.00     0.241 C
HETATM   22  O7  UNL     1      13.784 -16.569  18.923  1.00  0.00    -0.271 OA
ENDROOT
BRANCH   6  23
HETATM   23  C8  UNL     1      13.051 -17.163  13.066  1.00  0.00     0.073 C
BRANCH  23  24
HETATM   24  C9  UNL     1      12.847 -18.064  11.915  1.00  0.00    -0.056 A
HETATM   25  C10 UNL     1      13.706 -19.064  11.541  1.00  0.00     0.010 A
HETATM   26  C11 UNL     1      13.466 -19.870  10.441  1.00  0.00     0.037 A
HETATM   27  C12 UNL     1      12.338 -19.687   9.676  1.00  0.00     0.068 A
HETATM   28  C14 UNL     1      11.439 -18.683  10.022  1.00  0.00     0.037 A
HETATM   29  C15 UNL     1      11.715 -17.908  11.119  1.00  0.00     0.010 A
BRANCH  27  30
HETATM   30  O2  UNL     1      12.133 -20.515   8.581  1.00  0.00    -0.356 OA
HETATM   31  C13 UNL     1      13.278 -20.971   7.873  1.00  0.00     0.210 C
ENDBRANCH  27  30
ENDBRANCH  23  24
ENDBRANCH   6  23
BRANCH   9  32
HETATM   32  O3  UNL     1       9.426 -15.340  14.713  1.00  0.00    -0.348 OA
ATOM     33  H3  UNL     1       8.900 -14.614  14.397  1.00  0.00     0.219 HD
ENDBRANCH   9  32
BRANCH   1  34
HETATM   34  C3  UNL     1      15.609 -17.094  16.553  1.00  0.00     0.013 C
HETATM   35  C4  UNL     1      15.704 -18.556  16.987  1.00  0.00     0.012 C
BRANCH  34  36
HETATM   36  C2  UNL     1      16.239 -16.974  15.210  1.00  0.00     0.002 C
HETATM   37  C1  UNL     1      15.945 -15.586  14.614  1.00  0.00     0.005 C
ENDBRANCH  34  36
ENDBRANCH   1  34
BRANCH  10  38
HETATM   38  C18 UNL     1       9.666 -14.035  12.563  1.00  0.00     0.044 C
BRANCH  38  39
HETATM   39  C19 UNL     1       9.655 -14.677  11.228  1.00  0.00    -0.020 C
HETATM   40  C20 UNL     1      11.109 -14.656  10.723  1.00  0.00     0.009 C
HETATM   41  C21 UNL     1       8.806 -14.025  10.186  1.00  0.00     0.009 C
ENDBRANCH  38  39
ENDBRANCH  10  38
BRANCH  18  42
HETATM   42  C27 UNL     1      11.916 -13.002  18.437  1.00  0.00     0.037 C
BRANCH  42  43
HETATM   43  C28 UNL     1      12.463 -12.437  19.689  1.00  0.00    -0.020 C
HETATM   44  C29 UNL     1      12.112 -13.104  20.979  1.00  0.00     0.009 C
HETATM   45  C30 UNL     1      12.000 -10.974  19.780  1.00  0.00     0.009 C
ENDBRANCH  42  43
ENDBRANCH  18  42
TORSDOF 10
ENDMDL