MODEL 4
REMARK VINA RESULT: -8.795078469      2.443      6.598
REMARK  10 active torsions:
REMARK  status: ('A' for Active; 'I' for Inactive)
REMARK    1  A    between atoms: C4_4  and  S1_5
REMARK    2  A    between atoms: S1_5  and  N1_8
REMARK    3  A    between atoms: N1_8  and  C6_10
REMARK    4  A    between atoms: C6_10  and  C7_11
REMARK       I    between atoms: C7_11  and  N2_13
REMARK    5  A    between atoms: N2_13  and  C8_14
REMARK    6  A    between atoms: N2_13  and  C19_30
REMARK    7  A    between atoms: C8_14  and  C9_15
REMARK    8  A    between atoms: C13_19  and  C14_20
REMARK    9  A    between atoms: C22_33  and  O7_34
REMARK   10  A    between atoms: C27_40  and  N4_41
ROOT
HETATM    1  C7  UNL     1      14.621 -13.347  16.607  1.00  0.00     0.259 C
HETATM    2  O3  UNL     1      14.064 -13.288  17.764  1.00  0.00    -0.267 OA
HETATM    3  N2  UNL     1      14.350 -12.239  15.771  1.00  0.00    -0.309 N
ENDROOT
BRANCH   3   4
HETATM    4  C8  UNL     1      13.100 -11.528  15.972  1.00  0.00     0.176 C
BRANCH   4   5
HETATM    5  C9  UNL     1      11.875 -12.310  15.622  1.00  0.00     0.029 A
HETATM    6  C10 UNL     1      11.808 -12.749  14.281  1.00  0.00     0.028 A
HETATM    7  C11 UNL     1      10.650 -13.350  13.847  1.00  0.00    -0.008 A
HETATM    8  C12 UNL     1      10.556 -13.738  12.501  1.00  0.00     0.032 A
HETATM    9  C17 UNL     1       9.584 -13.530  14.687  1.00  0.00     0.045 A
HETATM   10  C13 UNL     1       9.389 -14.294  12.053  1.00  0.00     0.041 A
HETATM   11  C15 UNL     1       8.319 -14.470  12.940  1.00  0.00     0.021 A
HETATM   12  C16 UNL     1       8.387 -14.102  14.243  1.00  0.00     0.031 A
HETATM   13  N3  UNL     1       9.689 -13.107  15.952  1.00  0.00    -0.322 N
HETATM   14  C18 UNL     1      10.806 -12.511  16.404  1.00  0.00     0.253 A
ATOM     15  H3  UNL     1       8.902 -13.240  16.588  1.00  0.00     0.169 HD
HETATM   16  O6  UNL     1      10.772 -12.161  17.595  1.00  0.00    -0.268 OA
BRANCH  10  17
HETATM   17  C14 UNL     1       9.222 -14.678  10.659  1.00  0.00     0.209 C
HETATM   18  O4  UNL     1       9.767 -15.702  10.216  1.00  0.00    -0.644 OA
HETATM   19  O5  UNL     1       8.445 -13.913   9.800  1.00  0.00    -0.644 OA
ENDBRANCH  10  17
ENDBRANCH   4   5
ENDBRANCH   3   4
BRANCH   3  20
HETATM   20  C19 UNL     1      15.247 -11.945  14.715  1.00  0.00     0.038 A
HETATM   21  C20 UNL     1      16.005 -12.873  14.044  1.00  0.00     0.032 A
HETATM   22  C21 UNL     1      16.847 -12.529  13.006  1.00  0.00     0.039 A
HETATM   23  C22 UNL     1      16.980 -11.230  12.584  1.00  0.00     0.065 A
HETATM   24  C23 UNL     1      16.237 -10.277  13.233  1.00  0.00     0.039 A
HETATM   25  C24 UNL     1      15.397 -10.615  14.267  1.00  0.00     0.032 A
BRANCH  23  26
HETATM   26  O7  UNL     1      17.811 -10.842  11.547  1.00  0.00    -0.361 OA
ATOM     27  H7  UNL     1      17.534 -10.283  10.832  1.00  0.00     0.217 HD
ENDBRANCH  23  26
ENDBRANCH   3  20
BRANCH   1  28
HETATM   28  C6  UNL     1      15.450 -14.460  16.197  1.00  0.00     0.151 C
BRANCH  28  29
HETATM   29  N1  UNL     1      14.973 -15.777  16.394  1.00  0.00    -0.182 NA
HETATM   30  C5  UNL     1      15.922 -16.379  17.381  1.00  0.00     0.135 C
BRANCH  29  31
HETATM   31  S1  UNL     1      14.944 -16.841  15.087  1.00  0.00     0.247 S
HETATM   32  O1  UNL     1      15.761 -18.075  15.470  1.00  0.00    -0.205 OA
HETATM   33  O2  UNL     1      15.503 -16.318  13.804  1.00  0.00    -0.205 OA
BRANCH  31  34
HETATM   34  C4  UNL     1      13.328 -17.409  14.718  1.00  0.00     0.075 A
HETATM   35  C3  UNL     1      13.002 -18.576  14.127  1.00  0.00     0.033 A
HETATM   36  C2  UNL     1      11.684 -18.924  13.890  1.00  0.00    -0.034 A
HETATM   37  C1  UNL     1      11.376 -20.226  13.183  1.00  0.00     0.050 C
HETATM   38  C27 UNL     1      10.654 -18.112  14.242  1.00  0.00     0.035 A
HETATM   39  C26 UNL     1      10.952 -16.905  14.856  1.00  0.00     0.031 A
HETATM   40  C25 UNL     1      12.260 -16.575  15.081  1.00  0.00     0.027 A
BRANCH  38  41
HETATM   41  N4  UNL     1       9.322 -18.481  13.988  1.00  0.00    -0.389 N
HETATM   42  C28 UNL     1       8.514 -19.192  14.949  1.00  0.00     0.149 C
HETATM   43  C29 UNL     1       8.717 -18.130  12.719  1.00  0.00     0.149 C
ENDBRANCH  38  41
ENDBRANCH  31  34
ENDBRANCH  29  31
ENDBRANCH  28  29
ENDBRANCH   1  28
TORSDOF 10
ENDMDL