MODEL 1
REMARK VINA RESULT: -8.305936659      0.000      0.000
REMARK  13 active torsions:
REMARK  status: ('A' for Active; 'I' for Inactive)
REMARK    1  A    between atoms: N1_2  and  C2_4
REMARK    2  A    between atoms: C4_6  and  C5_7
REMARK    3  A    between atoms: C10_12  and  C11_13
REMARK    4  A    between atoms: C11_13  and  N2_14
REMARK    5  A    between atoms: N3_17  and  C14_18
REMARK    6  A    between atoms: C14_18  and  C15_19
REMARK    7  A    between atoms: C15_19  and  O1_20
REMARK    8  A    between atoms: C15_19  and  C16_22
REMARK    9  A    between atoms: C16_22  and  C17_23
REMARK   10  A    between atoms: C17_23  and  C18_24
REMARK   11  A    between atoms: C21_27  and  C22_28
REMARK   12  A    between atoms: C32_44  and  N7_45
REMARK   13  A    between atoms: N7_45  and  C33_47
ROOT
HETATM    1  C5  UNL     1       9.500 -16.611  11.938  1.00  0.00     0.060 A
HETATM    2  C6  UNL     1      10.637 -16.423  11.184  1.00  0.00     0.033 A
HETATM    3  C7  UNL     1      11.908 -16.742  11.631  1.00  0.00     0.016 A
HETATM    4  C8  UNL     1      12.057 -17.273  12.890  1.00  0.00    -0.006 A
HETATM    5  C9  UNL     1      13.281 -17.631  13.405  1.00  0.00     0.040 A
HETATM    6  C10 UNL     1      13.424 -18.183  14.677  1.00  0.00     0.038 A
HETATM    7  N4  UNL     1      12.277 -18.345  15.378  1.00  0.00    -0.365 N
ATOM      8  H4  UNL     1      12.335 -18.744  16.315  1.00  0.00     0.165 HD
HETATM    9  C30 UNL     1      11.071 -18.006  14.905  1.00  0.00     0.118 A
HETATM   10  C31 UNL     1      10.910 -17.452  13.630  1.00  0.00     0.058 A
HETATM   11  N5  UNL     1       9.691 -17.134  13.170  1.00  0.00    -0.353 N
ATOM     12  H5  UNL     1       8.880 -17.293  13.769  1.00  0.00     0.166 HD
ENDROOT
BRANCH   6  13
HETATM   13  C11 UNL     1      14.742 -18.596  15.198  1.00  0.00     0.329 C
BRANCH  13  14
HETATM   14  N2  UNL     1      15.237 -17.573  16.144  1.00  0.00     0.100 N
HETATM   15  C12 UNL     1      16.525 -17.156  15.598  1.00  0.00     0.293 C
HETATM   16  C13 UNL     1      16.244 -15.990  14.640  1.00  0.00     0.157 C
HETATM   17  N3  UNL     1      15.872 -14.911  15.558  1.00  0.00    -0.368 N
HETATM   18  C28 UNL     1      14.711 -15.126  16.269  1.00  0.00     0.093 C
HETATM   19  C29 UNL     1      14.246 -16.564  16.185  1.00  0.00     0.317 C
BRANCH  17  20
HETATM   20  C14 UNL     1      16.462 -13.697  15.262  1.00  0.00     0.094 C
BRANCH  20  21
HETATM   21  C15 UNL     1      16.282 -13.173  13.898  1.00  0.00     0.157 C
BRANCH  21  22
HETATM   22  O1  UNL     1      17.468 -12.566  13.419  1.00  0.00    -0.390 OA
ATOM     23  H1  UNL     1      17.884 -13.099  12.751  1.00  0.00     0.210 HD
ENDBRANCH  21  22
BRANCH  21  24
HETATM   24  C16 UNL     1      15.110 -12.378  13.529  1.00  0.00     0.042 C
BRANCH  24  25
HETATM   25  C17 UNL     1      14.399 -11.726  14.673  1.00  0.00     0.041 C
BRANCH  25  26
HETATM   26  C18 UNL     1      12.982 -12.143  14.746  1.00  0.00    -0.058 A
HETATM   27  C19 UNL     1      12.087 -11.678  15.680  1.00  0.00     0.007 A
HETATM   28  C20 UNL     1      10.771 -12.116  15.736  1.00  0.00     0.008 A
HETATM   29  C21 UNL     1      10.289 -13.052  14.848  1.00  0.00    -0.051 A
HETATM   30  C26 UNL     1      11.168 -13.533  13.902  1.00  0.00     0.008 A
HETATM   31  C27 UNL     1      12.481 -13.095  13.848  1.00  0.00     0.007 A
BRANCH  29  32
HETATM   32  C22 UNL     1       8.866 -13.511  14.941  1.00  0.00    -0.024 C
HETATM   33  C23 UNL     1       8.254 -13.583  13.571  1.00  0.00     0.019 C
HETATM   34  C24 UNL     1       8.083 -12.488  15.746  1.00  0.00     0.019 C
HETATM   35  C25 UNL     1       8.749 -14.835  15.663  1.00  0.00     0.019 C
ENDBRANCH  29  32
ENDBRANCH  25  26
ENDBRANCH  24  25
ENDBRANCH  21  24
ENDBRANCH  20  21
ENDBRANCH  17  20
ENDBRANCH  13  14
ENDBRANCH   6  13
BRANCH   1  36
HETATM   36  C4  UNL     1       8.150 -16.305  11.460  1.00  0.00     0.079 A
HETATM   37  C3  UNL     1       7.009 -16.792  12.047  1.00  0.00     0.081 A
HETATM   38  C2  UNL     1       5.740 -16.436  11.561  1.00  0.00     0.118 A
HETATM   39  N8  UNL     1       5.667 -15.608  10.508  1.00  0.00    -0.177 N
HETATM   40  C32 UNL     1       6.801 -15.131   9.932  1.00  0.00     0.686 A
ATOM     41  H8  UNL     1       4.756 -15.336  10.139  1.00  0.00     0.186 HD
HETATM   42  N6  UNL     1       8.013 -15.478  10.406  1.00  0.00    -0.189 N
ATOM     43  H6  UNL     1       8.850 -15.105   9.955  1.00  0.00     0.184 HD
BRANCH  38  44
HETATM   44  N1  UNL     1       4.687 -16.901  12.129  1.00  0.00    -0.380 N
HETATM   45  C1  UNL     1       3.357 -16.455  11.859  1.00  0.00     0.147 C
ATOM     46  H1  UNL     1       4.808 -17.641  12.821  1.00  0.00     0.160 HD
ENDBRANCH  38  44
BRANCH  40  47
HETATM   47  N7  UNL     1       6.655 -14.336   8.924  1.00  0.00    -0.167 N
ATOM     48  H7  UNL     1       5.922 -14.517   8.239  1.00  0.00     0.186 HD
BRANCH  47  49
HETATM   49  C33 UNL     1       7.514 -13.207   8.763  1.00  0.00     0.368 C
HETATM   50  O2  UNL     1       7.843 -12.496   9.737  1.00  0.00    -0.283 OA
ENDBRANCH  47  49
ENDBRANCH  40  47
ENDBRANCH   1  36
TORSDOF 13
ENDMDL