MODEL 3
REMARK VINA RESULT: -8.006970946      1.943      2.858
REMARK  12 active torsions:
REMARK  status: ('A' for Active; 'I' for Inactive)
REMARK    1  A    between atoms: C4_4  and  C5_5
REMARK    2  A    between atoms: C8_8  and  C9_9
REMARK    3  A    between atoms: C9_9  and  C10_10
REMARK    4  A    between atoms: C13_13  and  O1_14
REMARK    5  A    between atoms: C14_18  and  C15_19
REMARK    6  A    between atoms: C15_19  and  C16_20
REMARK    7  A    between atoms: C20_26  and  C21_27
REMARK    8  A    between atoms: C21_27  and  C22_28
REMARK    9  A    between atoms: N2_33  and  C26_34
REMARK   10  A    between atoms: C29_39  and  C30_40
REMARK   11  A    between atoms: C30_40  and  O6_41
REMARK   12  A    between atoms: N4_43  and  O7_45
ROOT
HETATM    1  C5  UNL     1      11.201 -13.905  16.068  1.00  0.00     0.038 C
HETATM    2  C6  UNL     1       9.965 -13.668  15.358  1.00  0.00     0.030 C
HETATM    3  C7  UNL     1       9.883 -13.537  13.911  1.00  0.00     0.013 C
HETATM    4  C8  UNL     1       9.539 -14.435  12.984  1.00  0.00    -0.007 C
HETATM    5  C13 UNL     1       9.123 -15.806  13.257  1.00  0.00     0.142 C
HETATM    6  N1  UNL     1       9.846 -16.935  13.697  1.00  0.00    -0.357 N
ATOM      7  H1  UNL     1       9.559 -17.338  14.589  1.00  0.00     0.162 HD
HETATM    8  C14 UNL     1      10.945 -17.581  13.028  1.00  0.00     0.183 C
HETATM    9  C19 UNL     1      11.926 -18.196  13.937  1.00  0.00     0.282 C
HETATM   10  O2  UNL     1      12.053 -19.479  13.859  1.00  0.00    -0.263 OA
HETATM   11  O3  UNL     1      12.736 -17.624  14.861  1.00  0.00    -0.305 OA
HETATM   12  C20 UNL     1      12.424 -16.541  15.742  1.00  0.00     0.224 C
HETATM   13  C25 UNL     1      12.948 -15.333  15.115  1.00  0.00     0.255 C
HETATM   14  O4  UNL     1      13.889 -15.496  14.263  1.00  0.00    -0.270 OA
HETATM   15  N2  UNL     1      12.482 -13.948  15.384  1.00  0.00    -0.299 N
ENDROOT
BRANCH  15  16
HETATM   16  C26 UNL     1      13.380 -12.957  15.026  1.00  0.00     0.216 C
HETATM   17  C27 UNL     1      13.092 -11.511  14.905  1.00  0.00     0.246 C
HETATM   18  O5  UNL     1      12.300 -10.601  14.972  1.00  0.00    -0.271 OA
HETATM   19  N3  UNL     1      14.515 -11.453  14.565  1.00  0.00    -0.340 N
HETATM   20  C28 UNL     1      15.379 -10.802  13.687  1.00  0.00     0.153 C
HETATM   21  C29 UNL     1      14.595 -12.479  15.669  1.00  0.00     0.195 C
BRANCH  21  22
HETATM   22  C30 UNL     1      14.671 -11.680  16.881  1.00  0.00     0.161 C
HETATM   23  N4  UNL     1      14.156 -11.943  18.013  1.00  0.00    -0.249 N
ATOM     24  H4  UNL     1      13.626 -12.810  18.096  1.00  0.00     0.196 HD
BRANCH  22  25
HETATM   25  O6  UNL     1      15.391 -10.476  16.811  1.00  0.00    -0.346 OA
ATOM     26  H6  UNL     1      14.891  -9.680  16.672  1.00  0.00     0.219 HD
ENDBRANCH  22  25
BRANCH  23  27
HETATM   27  O7  UNL     1      14.254 -11.163  19.123  1.00  0.00    -0.288 OA
ATOM     28  H7  UNL     1      13.611 -11.116  19.820  1.00  0.00     0.244 HD
ENDBRANCH  23  27
ENDBRANCH  21  22
ENDBRANCH  15  16
BRANCH   1  29
HETATM   29  C4  UNL     1      11.289 -13.232  17.416  1.00  0.00     0.032 C
HETATM   30  C2  UNL     1      10.284 -12.762  18.119  1.00  0.00    -0.086 C
HETATM   31  C1  UNL     1      10.547 -12.101  19.472  1.00  0.00     0.043 C
HETATM   32  C3  UNL     1       8.863 -12.851  17.694  1.00  0.00     0.043 C
ENDBRANCH   1  29
BRANCH  12  33
HETATM   33  C21 UNL     1      13.124 -16.723  17.069  1.00  0.00     0.046 C
BRANCH  33  34
HETATM   34  C22 UNL     1      14.402 -17.480  17.032  1.00  0.00    -0.020 C
HETATM   35  C23 UNL     1      15.618 -16.625  17.327  1.00  0.00     0.009 C
HETATM   36  C24 UNL     1      14.387 -18.775  17.784  1.00  0.00     0.009 C
ENDBRANCH  33  34
ENDBRANCH  12  33
BRANCH   4  37
HETATM   37  C9  UNL     1       9.545 -13.981  11.526  1.00  0.00     0.046 C
BRANCH  37  38
HETATM   38  C10 UNL     1       8.212 -14.098  10.870  1.00  0.00    -0.018 C
HETATM   39  C11 UNL     1       8.198 -15.339   9.976  1.00  0.00     0.010 C
HETATM   40  C12 UNL     1       7.879 -12.851  10.089  1.00  0.00     0.010 C
ENDBRANCH  37  38
ENDBRANCH   4  37
BRANCH   5  41
HETATM   41  O1  UNL     1       7.845 -16.022  13.057  1.00  0.00    -0.346 OA
ATOM     42  H1  UNL     1       7.660 -16.530  12.276  1.00  0.00     0.219 HD
ENDBRANCH   5  41
BRANCH   8  43
HETATM   43  C15 UNL     1      10.595 -18.471  11.889  1.00  0.00     0.039 C
BRANCH  43  44
HETATM   44  C16 UNL     1      11.170 -18.236  10.558  1.00  0.00    -0.020 C
HETATM   45  C17 UNL     1      11.629 -16.751  10.472  1.00  0.00     0.009 C
HETATM   46  C18 UNL     1      10.250 -18.380   9.377  1.00  0.00     0.009 C
ENDBRANCH  43  44
ENDBRANCH   8  43
TORSDOF 12
ENDMDL