MODEL 5
REMARK VINA RESULT: -8.885245972      2.087      4.673
REMARK  14 active torsions:
REMARK  status: ('A' for Active; 'I' for Inactive)
REMARK       I    between atoms: C2_2  and  N1_4
REMARK    1  A    between atoms: N1_4  and  C3_6
REMARK    2  A    between atoms: C6_10  and  N2_11
REMARK       I    between atoms: N2_11  and  C7_13
REMARK       I    between atoms: C7_13  and  N3_15
REMARK    3  A    between atoms: N3_15  and  C8_17
REMARK    4  A    between atoms: N4_23  and  C13_24
REMARK    5  A    between atoms: C13_24  and  C14_25
REMARK    6  A    between atoms: C14_25  and  C15_26
REMARK    7  A    between atoms: C15_26  and  C16_27
REMARK    8  A    between atoms: C16_27  and  C17_28
REMARK    9  A    between atoms: C17_28  and  C18_29
REMARK   10  A    between atoms: C18_29  and  C19_30
REMARK   11  A    between atoms: C19_30  and  C20_31
REMARK   12  A    between atoms: C20_31  and  O5_32
REMARK   13  A    between atoms: C23_36  and  C24_37
REMARK   14  A    between atoms: C24_37  and  C25_38
ROOT
HETATM    1  C8  UNL     1      -7.834  17.461  27.205  1.00  0.00     0.088 C
HETATM    2  C9  UNL     1      -6.978  16.997  28.365  1.00  0.00     0.031 C
HETATM    3  C10 UNL     1      -7.822  16.079  29.222  1.00  0.00     0.002 C
HETATM    4  C11 UNL     1      -8.329  14.877  28.466  1.00  0.00     0.108 C
HETATM    5  C12 UNL     1      -9.725  15.018  27.996  1.00  0.00     0.220 C
HETATM    6  O4  UNL     1     -10.261  14.026  27.463  1.00  0.00    -0.273 OA
HETATM    7  N4  UNL     1     -10.474  16.212  28.121  1.00  0.00    -0.347 N
HETATM    8  C21 UNL     1      -9.817  17.366  28.729  1.00  0.00     0.093 C
HETATM    9  C22 UNL     1      -9.053  18.149  27.722  1.00  0.00     0.051 C
HETATM   10  C23 UNL     1      -8.966  16.795  29.844  1.00  0.00     0.013 C
ENDROOT
BRANCH   1  11
HETATM   11  N3  UNL     1      -7.103  18.378  26.349  1.00  0.00    -0.338 N
HETATM   12  C7  UNL     1      -6.823  18.004  24.978  1.00  0.00     0.321 C
HETATM   13  N2  UNL     1      -6.118  18.860  24.115  1.00  0.00    -0.305 N
HETATM   14  O3  UNL     1      -7.223  16.892  24.568  1.00  0.00    -0.247 OA
ATOM     15  H2  UNL     1      -5.806  19.759  24.483  1.00  0.00     0.171 HD
ATOM     16  H3  UNL     1      -6.789  19.278  26.709  1.00  0.00     0.164 HD
BRANCH  13  17
HETATM   17  C6  UNL     1      -5.815  18.555  22.778  1.00  0.00     0.087 A
HETATM   18  C3  UNL     1      -4.564  18.034  22.355  1.00  0.00     0.086 A
HETATM   19  C4  UNL     1      -4.650  17.868  20.988  1.00  0.00     0.173 A
HETATM   20  O2  UNL     1      -5.843  18.256  20.640  1.00  0.00    -0.330 OA
HETATM   21  C5  UNL     1      -6.555  18.661  21.635  1.00  0.00     0.173 A
BRANCH  18  22
HETATM   22  N1  UNL     1      -3.496  17.769  23.232  1.00  0.00    -0.324 N
HETATM   23  C2  UNL     1      -2.838  18.792  23.941  1.00  0.00     0.218 C
HETATM   24  C1  UNL     1      -1.706  18.427  24.858  1.00  0.00     0.117 C
HETATM   25  O1  UNL     1      -3.114  19.996  23.877  1.00  0.00    -0.274 OA
ATOM     26  H1  UNL     1      -3.188  16.805  23.358  1.00  0.00     0.169 HD
ENDBRANCH  18  22
ENDBRANCH  13  17
ENDBRANCH   1  11
BRANCH  10  27
HETATM   27  C24 UNL     1      -8.621  17.804  30.881  1.00  0.00     0.011 C
BRANCH  27  28
HETATM   28  C25 UNL     1      -8.796  17.206  32.243  1.00  0.00    -0.014 C
HETATM   29  C26 UNL     1      -7.645  16.310  32.607  1.00  0.00     0.005 C
HETATM   30  C27 UNL     1      -8.012  15.160  33.474  1.00  0.00     0.000 C
HETATM   31  C28 UNL     1      -9.130  15.433  34.434  1.00  0.00     0.000 C
HETATM   32  C29 UNL     1     -10.318  16.090  33.776  1.00  0.00     0.000 C
HETATM   33  C30 UNL     1     -10.058  16.329  32.302  1.00  0.00     0.005 C
ENDBRANCH  27  28
ENDBRANCH  10  27
BRANCH   7  34
HETATM   34  C13 UNL     1     -11.843  16.384  27.698  1.00  0.00     0.126 C
BRANCH  34  35
HETATM   35  C14 UNL     1     -12.086  16.020  26.279  1.00  0.00     0.020 C
BRANCH  35  36
HETATM   36  C15 UNL     1     -11.317  16.983  25.386  1.00  0.00     0.002 C
BRANCH  36  37
HETATM   37  C16 UNL     1     -10.269  16.341  24.556  1.00  0.00     0.000 C
BRANCH  37  38
HETATM   38  C17 UNL     1     -10.876  15.538  23.449  1.00  0.00     0.000 C
BRANCH  38  39
HETATM   39  C18 UNL     1      -9.857  14.719  22.750  1.00  0.00     0.002 C
BRANCH  39  40
HETATM   40  C19 UNL     1      -8.948  15.557  21.860  1.00  0.00     0.026 C
BRANCH  40  41
HETATM   41  C20 UNL     1      -9.706  16.243  20.767  1.00  0.00     0.164 C
BRANCH  41  42
HETATM   42  O5  UNL     1      -9.582  17.612  20.851  1.00  0.00    -0.401 OA
ATOM     43  H5  UNL     1     -10.263  17.990  21.395  1.00  0.00     0.209 HD
ENDBRANCH  41  42
ENDBRANCH  40  41
ENDBRANCH  39  40
ENDBRANCH  38  39
ENDBRANCH  37  38
ENDBRANCH  36  37
ENDBRANCH  35  36
ENDBRANCH  34  35
ENDBRANCH   7  34
TORSDOF 14
ENDMDL