MODEL 1
REMARK VINA RESULT: -9.047225801      0.000      0.000
REMARK  15 active torsions:
REMARK  status: ('A' for Active; 'I' for Inactive)
REMARK    1  A    between atoms: C2_2  and  C26_31
REMARK    2  A    between atoms: C3_3  and  C4_4
REMARK    3  A    between atoms: C4_4  and  C5_5
REMARK    4  A    between atoms: C5_5  and  C6_6
REMARK    5  A    between atoms: C7_7  and  C8_8
REMARK    6  A    between atoms: C8_8  and  O1_9
REMARK    7  A    between atoms: C8_8  and  C9_11
REMARK    8  A    between atoms: C19_22  and  C21_24
REMARK    9  A    between atoms: C21_24  and  O2_25
REMARK   10  A    between atoms: C26_31  and  C27_32
REMARK   11  A    between atoms: C27_32  and  O3_33
REMARK   12  A    between atoms: C27_32  and  C28_35
REMARK   13  A    between atoms: C29_36  and  C30_37
REMARK   14  A    between atoms: C30_37  and  C31_38
REMARK   15  A    between atoms: C31_38  and  C32_39
ROOT
HETATM    1  C6  UNL     1     -10.560  15.532  28.447  1.00  0.00     0.005 C
HETATM    2  C7  UNL     1      -9.420  15.298  27.508  1.00  0.00     0.042 C
HETATM    3  C16 UNL     1      -8.293  14.826  28.350  1.00  0.00    -0.023 C
HETATM    4  C17 UNL     1      -8.063  15.288  29.550  1.00  0.00    -0.024 C
HETATM    5  C18 UNL     1      -8.884  16.308  30.176  1.00  0.00     0.026 C
HETATM    6  C19 UNL     1      -8.954  16.199  31.674  1.00  0.00    -0.015 C
HETATM    7  C20 UNL     1      -8.172  17.308  32.346  1.00  0.00     0.018 C
HETATM    8  C22 UNL     1     -10.392  16.327  32.033  1.00  0.00     0.012 C
HETATM    9  C23 UNL     1     -11.096  15.829  30.801  1.00  0.00     0.011 C
HETATM   10  C24 UNL     1     -10.257  16.379  29.626  1.00  0.00    -0.032 C
HETATM   11  C25 UNL     1     -10.634  17.827  29.499  1.00  0.00     0.016 C
ENDROOT
BRANCH   1  12
HETATM   12  C5  UNL     1     -11.871  15.817  27.818  1.00  0.00     0.010 C
BRANCH  12  13
HETATM   13  C4  UNL     1     -12.850  14.664  27.869  1.00  0.00     0.028 C
BRANCH  13  14
HETATM   14  C3  UNL     1     -13.975  14.855  28.780  1.00  0.00    -0.024 C
HETATM   15  C2  UNL     1     -14.250  14.260  29.909  1.00  0.00    -0.085 C
HETATM   16  C1  UNL     1     -15.480  14.650  30.649  1.00  0.00     0.043 C
BRANCH  15  17
HETATM   17  C26 UNL     1     -13.393  13.213  30.480  1.00  0.00     0.069 C
BRANCH  17  18
HETATM   18  C27 UNL     1     -13.743  12.893  31.921  1.00  0.00     0.144 C
BRANCH  18  19
HETATM   19  O3  UNL     1     -13.409  11.578  32.190  1.00  0.00    -0.391 OA
ATOM     20  H3  UNL     1     -14.031  11.002  31.762  1.00  0.00     0.210 HD
ENDBRANCH  18  19
BRANCH  18  21
HETATM   21  C28 UNL     1     -13.032  13.780  32.866  1.00  0.00     0.001 C
HETATM   22  C29 UNL     1     -13.224  13.649  34.164  1.00  0.00    -0.028 C
BRANCH  22  23
HETATM   23  C30 UNL     1     -12.541  14.509  35.167  1.00  0.00     0.037 C
BRANCH  23  24
HETATM   24  C31 UNL     1     -11.059  14.227  35.073  1.00  0.00     0.117 C
BRANCH  24  25
HETATM   25  C32 UNL     1     -10.288  15.457  35.371  1.00  0.00     0.172 C
HETATM   26  O4  UNL     1      -9.105  15.442  35.803  1.00  0.00    -0.648 OA
HETATM   27  O5  UNL     1     -10.902  16.690  35.163  1.00  0.00    -0.648 OA
ENDBRANCH  24  25
ENDBRANCH  23  24
ENDBRANCH  22  23
ENDBRANCH  18  21
ENDBRANCH  17  18
ENDBRANCH  15  17
ENDBRANCH  13  14
ENDBRANCH  12  13
ENDBRANCH   1  12
BRANCH   2  28
HETATM   28  C8  UNL     1      -9.092  16.343  26.537  1.00  0.00     0.130 C
BRANCH  28  29
HETATM   29  O1  UNL     1      -7.834  16.916  26.664  1.00  0.00    -0.395 OA
ATOM     30  H1  UNL     1      -7.759  17.819  26.379  1.00  0.00     0.210 HD
ENDBRANCH  28  29
BRANCH  28  31
HETATM   31  C9  UNL     1      -9.134  15.872  25.079  1.00  0.00     0.017 C
HETATM   32  C10 UNL     1     -10.423  16.188  24.390  1.00  0.00     0.009 C
HETATM   33  C11 UNL     1     -10.585  15.186  23.245  1.00  0.00     0.020 C
HETATM   34  C12 UNL     1      -9.335  15.192  22.357  1.00  0.00     0.116 C
HETATM   35  N1  UNL     1      -9.027  16.561  22.102  1.00  0.00    -0.417 N
HETATM   36  C13 UNL     1      -8.659  16.872  20.768  1.00  0.00     0.143 C
HETATM   37  C14 UNL     1      -8.279  17.226  23.114  1.00  0.00     0.117 C
HETATM   38  C15 UNL     1      -7.965  16.390  24.305  1.00  0.00     0.026 C
ENDBRANCH  28  31
ENDBRANCH   2  28
BRANCH   6  39
HETATM   39  C21 UNL     1      -8.401  14.900  32.206  1.00  0.00     0.173 C
BRANCH  39  40
HETATM   40  O2  UNL     1      -7.568  15.044  33.285  1.00  0.00    -0.400 OA
ATOM     41  H2  UNL     1      -8.009  15.003  34.125  1.00  0.00     0.209 HD
ENDBRANCH  39  40
ENDBRANCH   6  39
TORSDOF 15
ENDMDL