MODEL 1
REMARK VINA RESULT: -9.070104433      0.000      0.000
REMARK  13 active torsions:
REMARK  status: ('A' for Active; 'I' for Inactive)
REMARK    1  A    between atoms: N2_4  and  C3_6
REMARK    2  A    between atoms: C3_6  and  C4_7
REMARK    3  A    between atoms: C4_7  and  C5_8
REMARK    4  A    between atoms: C5_8  and  C6_9
REMARK    5  A    between atoms: C6_9  and  C7_10
REMARK    6  A    between atoms: C7_10  and  N3_11
REMARK       I    between atoms: N3_11  and  C8_13
REMARK    7  A    between atoms: C8_13  and  C9_15
REMARK    8  A    between atoms: C9_15  and  C10_16
REMARK    9  A    between atoms: C10_16  and  C11_17
REMARK   10  A    between atoms: C11_17  and  N4_18
REMARK   11  A    between atoms: C13_20  and  S1_21
REMARK   12  A    between atoms: S1_21  and  C14_22
REMARK   13  A    between atoms: C27_35  and  N5_36
REMARK       I    between atoms: N5_36  and  C28_38
ROOT
HETATM    1  N4  UNL     1     -10.707  16.421  29.330  1.00  0.00    -0.341 N
HETATM    2  C12 UNL     1     -10.791  16.315  30.688  1.00  0.00     0.112 A
HETATM    3  C13 UNL     1     -11.510  15.303  31.277  1.00  0.00     0.027 A
HETATM    4  C20 UNL     1     -12.150  14.387  30.463  1.00  0.00    -0.004 A
HETATM    5  C21 UNL     1     -12.882  13.333  31.021  1.00  0.00     0.020 A
HETATM    6  C22 UNL     1     -13.501  12.428  30.198  1.00  0.00    -0.061 A
HETATM    7  C23 UNL     1     -14.298  11.276  30.749  1.00  0.00     0.048 C
HETATM    8  C24 UNL     1     -13.390  12.575  28.839  1.00  0.00     0.007 A
HETATM    9  C25 UNL     1     -12.667  13.615  28.266  1.00  0.00     0.017 A
HETATM   10  C26 UNL     1     -12.048  14.520  29.117  1.00  0.00     0.020 A
HETATM   11  C27 UNL     1     -11.302  15.572  28.481  1.00  0.00     0.120 A
ENDROOT
BRANCH   1  12
HETATM   12  C11 UNL     1      -9.889  17.525  28.800  1.00  0.00     0.130 C
BRANCH  12  13
HETATM   13  C10 UNL     1      -8.494  17.257  29.247  1.00  0.00     0.029 C
BRANCH  13  14
HETATM   14  C9  UNL     1      -7.564  16.683  28.245  1.00  0.00     0.104 C
BRANCH  14  15
HETATM   15  C8  UNL     1      -6.603  17.617  27.637  1.00  0.00     0.217 C
HETATM   16  N3  UNL     1      -5.322  17.152  27.244  1.00  0.00    -0.361 N
ATOM     17  H3  UNL     1      -5.080  16.172  27.390  1.00  0.00     0.162 HD
HETATM   18  O1  UNL     1      -6.863  18.824  27.448  1.00  0.00    -0.274 OA
BRANCH  16  19
HETATM   19  C7  UNL     1      -4.347  18.044  26.636  1.00  0.00     0.122 C
BRANCH  19  20
HETATM   20  C6  UNL     1      -4.173  17.765  25.171  1.00  0.00     0.020 C
BRANCH  20  21
HETATM   21  C5  UNL     1      -5.247  18.277  24.290  1.00  0.00     0.003 C
BRANCH  21  22
HETATM   22  C4  UNL     1      -6.321  17.355  23.866  1.00  0.00     0.020 C
BRANCH  22  23
HETATM   23  C3  UNL     1      -7.630  17.937  23.485  1.00  0.00     0.120 C
BRANCH  23  24
HETATM   24  N2  UNL     1      -8.664  17.017  23.122  1.00  0.00    -0.382 N
HETATM   25  C2  UNL     1      -9.172  16.950  21.938  1.00  0.00     0.085 C
HETATM   26  C1  UNL     1     -10.243  15.963  21.649  1.00  0.00     0.085 C
HETATM   27  N1  UNL     1      -8.754  17.788  20.861  1.00  0.00    -0.088 NA
ATOM     28  H2  UNL     1      -9.019  16.382  23.837  1.00  0.00     0.160 HD
ENDBRANCH  23  24
ENDBRANCH  22  23
ENDBRANCH  21  22
ENDBRANCH  20  21
ENDBRANCH  19  20
ENDBRANCH  16  19
ENDBRANCH  14  15
ENDBRANCH  13  14
ENDBRANCH  12  13
ENDBRANCH   1  12
BRANCH  11  29
HETATM   29  N5  UNL     1     -11.302  15.599  27.259  1.00  0.00    -0.316 N
HETATM   30  C28 UNL     1     -10.907  16.093  26.080  1.00  0.00     0.187 C
HETATM   31  N6  UNL     1     -11.411  16.989  25.405  1.00  0.00    -0.373 N
HETATM   32  N7  UNL     1      -9.713  15.475  25.464  1.00  0.00    -0.064 NA
ATOM     33  H62 UNL     1     -12.234  17.415  25.829  1.00  0.00     0.158 HD
ATOM     34  H61 UNL     1     -11.110  17.366  24.506  1.00  0.00     0.158 HD
ATOM     35  H5  UNL     1     -11.940  14.846  27.002  1.00  0.00     0.170 HD
ENDBRANCH  11  29
BRANCH   3  36
HETATM   36  S1  UNL     1     -11.611  15.123  33.047  1.00  0.00    -0.123 SA
BRANCH  36  37
HETATM   37  C14 UNL     1     -10.021  15.288  33.832  1.00  0.00     0.052 C
HETATM   38  C15 UNL     1      -9.599  16.646  34.242  1.00  0.00     0.015 C
HETATM   39  C16 UNL     1      -8.715  17.375  33.259  1.00  0.00     0.001 C
HETATM   40  C17 UNL     1      -7.520  16.608  32.806  1.00  0.00     0.000 C
HETATM   41  C18 UNL     1      -7.580  15.178  33.309  1.00  0.00     0.001 C
HETATM   42  C19 UNL     1      -8.943  14.582  33.023  1.00  0.00     0.015 C
ENDBRANCH  36  37
ENDBRANCH   3  36
TORSDOF 13
ENDMDL