MODEL 5
REMARK VINA RESULT: -8.298344674      1.494      2.818
REMARK  14 active torsions:
REMARK  status: ('A' for Active; 'I' for Inactive)
REMARK    1  A    between atoms: C2_2  and  C3_3
REMARK       I    between atoms: C3_3  and  N1_5
REMARK    2  A    between atoms: N1_5  and  C4_7
REMARK    3  A    between atoms: C17_21  and  C18_22
REMARK    4  A    between atoms: C18_22  and  C19_23
REMARK    5  A    between atoms: C19_23  and  C20_24
REMARK    6  A    between atoms: C20_24  and  O3_25
REMARK    7  A    between atoms: C20_24  and  C21_27
REMARK    8  A    between atoms: C21_27  and  C22_28
REMARK    9  A    between atoms: C22_28  and  C23_29
REMARK   10  A    between atoms: C22_28  and  C25_31
REMARK   11  A    between atoms: C25_31  and  O4_32
REMARK   12  A    between atoms: C25_31  and  C26_34
REMARK   13  A    between atoms: C26_34  and  N2_35
REMARK   14  A    between atoms: N2_35  and  C27_38
ROOT
HETATM    1  C4  UNL     1      -8.553  17.221  29.286  1.00  0.00     0.085 C
HETATM    2  C5  UNL     1      -7.281  17.281  28.490  1.00  0.00     0.026 C
HETATM    3  C6  UNL     1      -7.589  17.625  27.026  1.00  0.00     0.012 C
HETATM    4  C7  UNL     1      -8.552  16.670  26.410  1.00  0.00    -0.029 C
HETATM    5  C8  UNL     1      -7.965  15.281  26.448  1.00  0.00     0.016 C
HETATM    6  C9  UNL     1      -9.873  16.737  27.173  1.00  0.00    -0.004 C
HETATM    7  C10 UNL     1     -10.903  17.557  26.378  1.00  0.00     0.006 C
HETATM    8  C11 UNL     1     -11.271  16.930  25.087  1.00  0.00     0.006 C
HETATM    9  C12 UNL     1     -10.070  16.255  24.468  1.00  0.00     0.003 C
HETATM   10  C13 UNL     1      -8.849  17.032  25.012  1.00  0.00     0.069 C
HETATM   11  C14 UNL     1      -7.775  16.767  24.010  1.00  0.00     0.141 C
HETATM   12  O2  UNL     1      -6.625  17.097  24.144  1.00  0.00    -0.297 OA
HETATM   13  C15 UNL     1      -8.380  16.070  22.906  1.00  0.00     0.025 C
HETATM   14  C16 UNL     1      -8.263  14.572  22.950  1.00  0.00     0.024 C
HETATM   15  C17 UNL     1      -8.176  16.507  21.513  1.00  0.00     0.002 C
HETATM   16  C30 UNL     1      -9.454  16.068  20.845  1.00  0.00     0.006 C
HETATM   17  C31 UNL     1     -10.431  15.710  21.987  1.00  0.00     0.006 C
HETATM   18  C32 UNL     1      -9.858  16.502  23.058  1.00  0.00     0.006 C
HETATM   19  C33 UNL     1      -9.781  17.411  28.491  1.00  0.00     0.030 C
ENDROOT
BRANCH  15  20
HETATM   20  C18 UNL     1      -7.818  17.917  21.353  1.00  0.00     0.008 C
BRANCH  20  21
HETATM   21  C19 UNL     1      -6.626  18.269  20.549  1.00  0.00     0.032 C
BRANCH  21  22
HETATM   22  C20 UNL     1      -5.300  18.065  21.334  1.00  0.00     0.118 C
BRANCH  22  23
HETATM   23  O3  UNL     1      -5.349  19.012  22.321  1.00  0.00    -0.396 OA
ATOM     24  H3  UNL     1      -4.491  19.419  22.294  1.00  0.00     0.210 HD
ENDBRANCH  22  23
BRANCH  22  25
HETATM   25  C21 UNL     1      -4.240  18.166  20.318  1.00  0.00     0.039 C
BRANCH  25  26
HETATM   26  C22 UNL     1      -3.682  16.974  19.661  1.00  0.00     0.018 C
BRANCH  26  27
HETATM   27  C23 UNL     1      -4.519  16.309  18.629  1.00  0.00     0.003 C
HETATM   28  C24 UNL     1      -4.240  16.517  17.204  1.00  0.00     0.005 C
ENDBRANCH  26  27
BRANCH  26  29
HETATM   29  C25 UNL     1      -2.900  16.102  20.564  1.00  0.00     0.148 C
BRANCH  29  30
HETATM   30  O4  UNL     1      -2.321  14.976  20.036  1.00  0.00    -0.394 OA
ATOM     31  H4  UNL     1      -1.560  15.083  19.477  1.00  0.00     0.210 HD
ENDBRANCH  29  30
BRANCH  29  32
HETATM   32  C26 UNL     1      -1.956  16.867  21.476  1.00  0.00     0.264 C
BRANCH  32  33
HETATM   33  N2  UNL     1      -1.956  16.212  22.754  1.00  0.00    -0.069 N
ATOM     34  H22 UNL     1      -2.785  15.629  22.859  1.00  0.00     0.277 HD
ATOM     35  H21 UNL     1      -1.235  15.491  22.789  1.00  0.00     0.277 HD
BRANCH  33  36
HETATM   36  C27 UNL     1      -1.825  17.116  23.866  1.00  0.00     0.186 A
HETATM   37  C28 UNL     1      -3.005  17.572  24.648  1.00  0.00     0.035 A
HETATM   38  C29 UNL     1      -2.225  18.523  23.807  1.00  0.00     0.035 A
ENDBRANCH  33  36
ENDBRANCH  32  33
ENDBRANCH  29  32
ENDBRANCH  26  29
ENDBRANCH  25  26
ENDBRANCH  22  25
ENDBRANCH  21  22
ENDBRANCH  20  21
ENDBRANCH  15  20
BRANCH   1  39
HETATM   39  N1  UNL     1      -8.639  15.999  30.099  1.00  0.00    -0.353 N
HETATM   40  C3  UNL     1      -8.625  16.013  31.495  1.00  0.00     0.240 C
HETATM   41  O1  UNL     1      -8.535  17.086  32.144  1.00  0.00    -0.269 OA
ATOM     42  H1  UNL     1      -8.712  15.101  29.622  1.00  0.00     0.163 HD
BRANCH  40  43
HETATM   43  C2  UNL     1      -8.714  14.769  32.239  1.00  0.00     0.064 C
HETATM   44  C1  UNL     1      -8.682  14.752  33.564  1.00  0.00     0.017 C
ENDBRANCH  40  43
ENDBRANCH   1  39
TORSDOF 14
ENDMDL