MODEL 4
REMARK VINA RESULT: -8.399154692      4.103     10.957
REMARK  16 active torsions:
REMARK  status: ('A' for Active; 'I' for Inactive)
REMARK    1  A    between atoms: C8_8  and  C9_9
REMARK    2  A    between atoms: C9_9  and  C22_32
REMARK    3  A    between atoms: C10_10  and  C11_11
REMARK    4  A    between atoms: C14_14  and  O1_15
REMARK    5  A    between atoms: C16_18  and  C17_19
REMARK    6  A    between atoms: C18_20  and  C19_21
REMARK    7  A    between atoms: C19_21  and  N1_22
REMARK    8  A    between atoms: C19_21  and  C20_26
REMARK    9  A    between atoms: C21_29  and  O4_30
REMARK   10  A    between atoms: C22_32  and  C23_33
REMARK   11  A    between atoms: C23_33  and  C24_34
REMARK   12  A    between atoms: C24_34  and  C25_35
REMARK   13  A    between atoms: C25_35  and  C26_36
REMARK   14  A    between atoms: C26_36  and  C27_37
REMARK   15  A    between atoms: C27_37  and  C28_38
REMARK   16  A    between atoms: C28_38  and  O6_40
ROOT
HETATM    1  C9  UNL     1     -10.586  15.762  30.717  1.00  0.00    -0.055 C
HETATM    2  C10 UNL     1     -10.355  16.680  29.836  1.00  0.00     0.007 C
ENDROOT
BRANCH   1   3
HETATM    3  C8  UNL     1     -11.923  15.350  31.138  1.00  0.00    -0.065 C
HETATM    4  C7  UNL     1     -12.102  15.280  32.669  1.00  0.00     0.036 C
HETATM    5  C6  UNL     1     -13.656  15.224  32.613  1.00  0.00     0.010 C
HETATM    6  C5  UNL     1     -13.775  14.072  31.699  1.00  0.00    -0.001 C
HETATM    7  C4  UNL     1     -15.079  13.708  31.130  1.00  0.00     0.010 C
HETATM    8  C30 UNL     1     -12.704  14.296  30.593  1.00  0.00    -0.013 C
HETATM    9  C3  UNL     1     -14.825  12.352  30.435  1.00  0.00     0.034 C
HETATM   10  C2  UNL     1     -13.406  11.977  30.502  1.00  0.00    -0.088 C
HETATM   11  C1  UNL     1     -13.076  10.717  30.753  1.00  0.00     0.014 C
HETATM   12  C32 UNL     1     -12.254  12.931  30.297  1.00  0.00     0.047 C
HETATM   13  C31 UNL     1     -13.410  14.793  29.318  1.00  0.00     0.021 C
ENDBRANCH   1   3
BRANCH   1  14
HETATM   14  C22 UNL     1      -9.381  15.097  31.281  1.00  0.00     0.039 C
BRANCH  14  15
HETATM   15  C23 UNL     1      -8.534  15.910  32.159  1.00  0.00     0.005 C
BRANCH  15  16
HETATM   16  C24 UNL     1      -8.387  15.215  33.524  1.00  0.00     0.000 C
BRANCH  16  17
HETATM   17  C25 UNL     1      -9.079  15.958  34.611  1.00  0.00     0.000 C
BRANCH  17  18
HETATM   18  C26 UNL     1      -9.719  14.988  35.565  1.00  0.00     0.010 C
BRANCH  18  19
HETATM   19  C27 UNL     1     -10.041  13.652  34.978  1.00  0.00     0.111 C
BRANCH  19  20
HETATM   20  C28 UNL     1     -11.248  13.046  35.629  1.00  0.00     0.258 C
HETATM   21  O5  UNL     1     -12.226  13.807  35.930  1.00  0.00    -0.265 OA
BRANCH  20  22
HETATM   22  O6  UNL     1     -11.362  11.704  35.922  1.00  0.00    -0.326 OA
HETATM   23  C29 UNL     1     -12.583  10.995  35.784  1.00  0.00     0.213 C
ENDBRANCH  20  22
ENDBRANCH  19  20
ENDBRANCH  18  19
ENDBRANCH  17  18
ENDBRANCH  16  17
ENDBRANCH  15  16
ENDBRANCH  14  15
ENDBRANCH   1  14
BRANCH   2  24
HETATM   24  C11 UNL     1      -9.084  17.131  29.382  1.00  0.00     0.006 C
HETATM   25  C12 UNL     1      -8.715  16.892  28.103  1.00  0.00    -0.045 A
HETATM   26  C13 UNL     1      -7.412  17.329  27.559  1.00  0.00     0.073 A
HETATM   27  C21 UNL     1      -9.520  16.185  27.105  1.00  0.00     0.179 A
HETATM   28  C14 UNL     1      -7.466  16.954  26.113  1.00  0.00     0.154 A
HETATM   29  C15 UNL     1      -8.699  16.184  25.881  1.00  0.00    -0.019 A
HETATM   30  C16 UNL     1      -9.014  15.588  24.753  1.00  0.00     0.008 C
BRANCH  28  31
HETATM   31  O1  UNL     1      -7.436  18.112  25.333  1.00  0.00    -0.391 OA
ATOM     32  H1  UNL     1      -6.544  18.278  25.050  1.00  0.00     0.210 HD
ENDBRANCH  28  31
BRANCH  30  33
HETATM   33  C17 UNL     1      -8.106  15.664  23.617  1.00  0.00    -0.001 C
HETATM   34  C18 UNL     1      -8.395  16.402  22.555  1.00  0.00     0.017 C
BRANCH  34  35
HETATM   35  C19 UNL     1      -7.477  16.479  21.407  1.00  0.00     0.306 C
BRANCH  35  36
HETATM   36  N1  UNL     1      -8.160  16.133  20.166  1.00  0.00    -0.062 N
ATOM     37  H13 UNL     1      -8.368  15.136  20.117  1.00  0.00     0.275 HD
ATOM     38  H12 UNL     1      -9.115  16.491  20.150  1.00  0.00     0.275 HD
ATOM     39  H11 UNL     1      -7.627  16.447  19.355  1.00  0.00     0.275 HD
ENDBRANCH  35  36
BRANCH  35  40
HETATM   40  C20 UNL     1      -6.941  17.847  21.275  1.00  0.00     0.208 C
HETATM   41  O2  UNL     1      -6.234  18.137  20.296  1.00  0.00    -0.646 OA
HETATM   42  O3  UNL     1      -7.192  18.843  22.209  1.00  0.00    -0.646 OA
ENDBRANCH  35  40
ENDBRANCH  34  35
ENDBRANCH  30  33
BRANCH  27  43
HETATM   43  O4  UNL     1      -9.655  14.862  27.542  1.00  0.00    -0.387 OA
ATOM     44  H4  UNL     1      -9.003  14.346  27.083  1.00  0.00     0.210 HD
ENDBRANCH  27  43
ENDBRANCH   2  24
TORSDOF 16
ENDMDL