MODEL 5
REMARK VINA RESULT: -8.722444773      2.671      9.270
REMARK  12 active torsions:
REMARK  status: ('A' for Active; 'I' for Inactive)
REMARK    1  A    between atoms: N1_2  and  C3_4
REMARK    2  A    between atoms: N1_2  and  C22_35
REMARK    3  A    between atoms: C3_4  and  C4_5
REMARK    4  A    between atoms: C4_5  and  N2_6
REMARK    5  A    between atoms: N2_6  and  C5_9
REMARK    6  A    between atoms: C5_9  and  C6_10
REMARK    7  A    between atoms: C6_10  and  C7_11
REMARK    8  A    between atoms: C7_11  and  C8_12
REMARK    9  A    between atoms: C8_12  and  C9_13
REMARK   10  A    between atoms: C9_13  and  C10_14
REMARK   11  A    between atoms: C10_14  and  N3_15
REMARK   12  A    between atoms: C17_27  and  C18_28
ROOT
HETATM    1  C9  UNL     1     -11.907  16.230  27.135  1.00  0.00     0.020 C
ENDROOT
BRANCH   1   2
HETATM    2  C8  UNL     1     -12.316  15.648  28.468  1.00  0.00     0.002 C
BRANCH   2   3
HETATM    3  C7  UNL     1     -13.566  14.852  28.460  1.00  0.00     0.002 C
BRANCH   3   4
HETATM    4  C6  UNL     1     -13.844  14.302  29.823  1.00  0.00     0.027 C
BRANCH   4   5
HETATM    5  C5  UNL     1     -15.270  14.652  30.279  1.00  0.00     0.232 C
BRANCH   5   6
HETATM    6  N2  UNL     1     -15.146  15.499  31.430  1.00  0.00    -0.074 N
ATOM      7  H22 UNL     1     -16.043  15.910  31.688  1.00  0.00     0.277 HD
ATOM      8  H21 UNL     1     -14.636  16.353  31.210  1.00  0.00     0.277 HD
BRANCH   6   9
HETATM    9  C4  UNL     1     -14.536  14.786  32.562  1.00  0.00     0.260 C
BRANCH   9  10
HETATM   10  C3  UNL     1     -13.404  15.530  33.156  1.00  0.00     0.264 C
BRANCH  10  11
HETATM   11  N1  UNL     1     -12.380  14.784  33.793  1.00  0.00    -0.069 N
HETATM   12  C1  UNL     1     -12.469  14.805  35.242  1.00  0.00     0.272 C
HETATM   13  C2  UNL     1     -12.645  13.366  33.432  1.00  0.00     0.272 C
BRANCH  11  14
HETATM   14  C22 UNL     1     -11.020  15.077  33.414  1.00  0.00     0.189 C
HETATM   15  C23 UNL     1     -10.008  14.492  34.316  1.00  0.00     0.033 C
HETATM   16  C24 UNL     1      -8.703  14.084  33.693  1.00  0.00     0.002 C
HETATM   17  C25 UNL     1      -7.974  15.111  32.920  1.00  0.00     0.000 C
HETATM   18  C26 UNL     1      -8.402  16.519  33.071  1.00  0.00     0.000 C
HETATM   19  C27 UNL     1      -9.400  17.042  32.115  1.00  0.00     0.000 C
HETATM   20  C28 UNL     1     -10.153  16.084  31.282  1.00  0.00     0.002 C
HETATM   21  C29 UNL     1     -10.753  14.893  31.958  1.00  0.00     0.033 C
ENDBRANCH  11  14
ENDBRANCH  10  11
ENDBRANCH   9  10
ENDBRANCH   6   9
ENDBRANCH   5   6
ENDBRANCH   4   5
ENDBRANCH   3   4
ENDBRANCH   2   3
ENDBRANCH   1   2
BRANCH   1  22
HETATM   22  C10 UNL     1     -10.917  15.253  26.525  1.00  0.00     0.135 C
BRANCH  22  23
HETATM   23  N3  UNL     1      -9.627  15.842  26.246  1.00  0.00    -0.289 N
HETATM   24  C11 UNL     1      -9.345  16.263  24.978  1.00  0.00     0.181 A
HETATM   25  S1  UNL     1     -10.507  16.080  23.841  1.00  0.00    -0.040 SA
HETATM   26  N4  UNL     1      -8.163  16.813  24.647  1.00  0.00    -0.330 N
HETATM   27  C12 UNL     1      -7.179  16.983  25.556  1.00  0.00     0.079 A
ATOM     28  H4  UNL     1      -8.006  17.110  23.684  1.00  0.00     0.168 HD
HETATM   29  C13 UNL     1      -7.421  16.573  26.846  1.00  0.00     0.129 A
HETATM   30  C20 UNL     1      -5.903  17.498  25.515  1.00  0.00     0.021 A
HETATM   31  N5  UNL     1      -6.310  16.841  27.549  1.00  0.00    -0.349 N
HETATM   32  C21 UNL     1      -8.656  16.006  27.156  1.00  0.00     0.279 A
HETATM   33  C14 UNL     1      -5.354  17.404  26.793  1.00  0.00     0.045 A
ATOM     34  H5  UNL     1      -6.205  16.642  28.544  1.00  0.00     0.166 HD
HETATM   35  C15 UNL     1      -4.069  17.854  27.018  1.00  0.00     0.031 A
HETATM   36  C16 UNL     1      -3.313  18.394  26.008  1.00  0.00     0.019 A
HETATM   37  C17 UNL     1      -3.861  18.484  24.745  1.00  0.00     0.030 A
HETATM   38  C19 UNL     1      -5.141  18.040  24.503  1.00  0.00     0.032 A
HETATM   39  O2  UNL     1      -8.880  15.634  28.321  1.00  0.00    -0.265 OA
BRANCH  37  40
HETATM   40  C18 UNL     1      -3.056  19.058  23.671  1.00  0.00     0.265 C
HETATM   41  N6  UNL     1      -3.295  18.665  22.329  1.00  0.00    -0.057 NA
HETATM   42  O1  UNL     1      -2.148  19.894  23.876  1.00  0.00    -0.271 OA
ENDBRANCH  37  40
ENDBRANCH  22  23
ENDBRANCH   1  22
TORSDOF 12
ENDMDL