MODEL 2
REMARK VINA RESULT: -8.620731150      2.795      8.856
REMARK  14 active torsions:
REMARK  status: ('A' for Active; 'I' for Inactive)
REMARK    1  A    between atoms: C2_2  and  C4_4
REMARK    2  A    between atoms: C4_4  and  C5_5
REMARK    3  A    between atoms: C5_5  and  N2_10
REMARK    4  A    between atoms: N1_6  and  O1_8
REMARK       I    between atoms: N2_10  and  C6_11
REMARK       I    between atoms: C6_11  and  N4_13
REMARK    5  A    between atoms: N4_13  and  C7_15
REMARK    6  A    between atoms: C7_15  and  C8_16
REMARK    7  A    between atoms: C8_16  and  C9_17
REMARK    8  A    between atoms: C9_17  and  C10_18
REMARK    9  A    between atoms: C10_18  and  C11_19
REMARK   10  A    between atoms: C11_19  and  C12_20
REMARK   11  A    between atoms: C12_20  and  C13_21
REMARK   12  A    between atoms: C13_21  and  C14_22
REMARK   13  A    between atoms: C14_22  and  N5_23
REMARK       I    between atoms: N5_23  and  C15_25
REMARK   14  A    between atoms: C15_25  and  C16_27
ROOT
HETATM    1  C13 UNL     1     -10.941  17.642  27.282  1.00  0.00     0.020 C
ENDROOT
BRANCH   1   2
HETATM    2  C12 UNL     1     -10.600  17.759  25.847  1.00  0.00     0.002 C
BRANCH   2   3
HETATM    3  C11 UNL     1     -10.927  16.621  24.972  1.00  0.00     0.000 C
BRANCH   3   4
HETATM    4  C10 UNL     1     -10.212  16.463  23.702  1.00  0.00     0.000 C
BRANCH   4   5
HETATM    5  C9  UNL     1      -9.626  15.159  23.359  1.00  0.00     0.002 C
BRANCH   5   6
HETATM    6  C8  UNL     1      -8.123  15.359  23.036  1.00  0.00     0.020 C
BRANCH   6   7
HETATM    7  C7  UNL     1      -7.773  16.800  23.085  1.00  0.00     0.123 C
BRANCH   7   8
HETATM    8  N4  UNL     1      -6.516  16.916  23.841  1.00  0.00    -0.353 N
HETATM    9  C6  UNL     1      -6.320  18.066  24.693  1.00  0.00     0.264 C
HETATM   10  N2  UNL     1      -6.603  18.048  25.839  1.00  0.00    -0.358 NA
HETATM   11  N3  UNL     1      -5.756  19.205  24.001  1.00  0.00    -0.049 NA
ATOM     12  H4  UNL     1      -5.796  16.197  23.766  1.00  0.00     0.163 HD
BRANCH  10  13
HETATM   13  C5  UNL     1      -6.949  17.927  27.107  1.00  0.00     0.178 C
HETATM   14  N1  UNL     1      -7.420  18.892  27.871  1.00  0.00    -0.245 N
ATOM     15  H1  UNL     1      -7.666  18.721  28.846  1.00  0.00     0.196 HD
BRANCH  13  16
HETATM   16  C4  UNL     1      -6.822  16.599  27.812  1.00  0.00     0.098 C
BRANCH  16  17
HETATM   17  C2  UNL     1      -8.144  15.945  28.041  1.00  0.00    -0.015 C
HETATM   18  C1  UNL     1      -8.242  15.192  29.335  1.00  0.00     0.010 C
HETATM   19  C3  UNL     1      -8.365  14.947  26.905  1.00  0.00     0.010 C
ENDBRANCH  16  17
ENDBRANCH  13  16
BRANCH  14  20
HETATM   20  O1  UNL     1      -7.571  20.147  27.302  1.00  0.00    -0.288 OA
ATOM     21  H1  UNL     1      -7.258  20.895  27.797  1.00  0.00     0.244 HD
ENDBRANCH  14  20
ENDBRANCH  10  13
ENDBRANCH   7   8
ENDBRANCH   6   7
ENDBRANCH   5   6
ENDBRANCH   4   5
ENDBRANCH   3   4
ENDBRANCH   2   3
ENDBRANCH   1   2
BRANCH   1  22
HETATM   22  C14 UNL     1     -11.765  16.343  27.448  1.00  0.00     0.123 C
BRANCH  22  23
HETATM   23  N5  UNL     1     -11.999  16.176  28.880  1.00  0.00    -0.357 N
HETATM   24  C15 UNL     1     -11.797  14.920  29.458  1.00  0.00     0.251 C
HETATM   25  O2  UNL     1     -11.410  13.971  28.674  1.00  0.00    -0.268 OA
ATOM     26  H5  UNL     1     -12.304  16.965  29.450  1.00  0.00     0.162 HD
BRANCH  24  27
HETATM   27  C16 UNL     1     -11.990  14.580  30.906  1.00  0.00     0.030 C
HETATM   28  C17 UNL     1     -12.651  13.506  31.167  1.00  0.00     0.013 C
HETATM   29  C18 UNL     1     -13.088  12.779  32.341  1.00  0.00    -0.021 C
HETATM   30  C19 UNL     1     -13.683  13.365  33.503  1.00  0.00     0.018 C
HETATM   31  C20 UNL     1     -13.907  14.800  33.642  1.00  0.00     0.047 C
HETATM   32  C23 UNL     1     -12.651  13.417  34.630  1.00  0.00     0.031 A
HETATM   33  C21 UNL     1     -12.611  14.826  34.390  1.00  0.00     0.068 A
HETATM   34  C22 UNL     1     -12.804  14.238  35.828  1.00  0.00     0.047 A
HETATM   35  O3  UNL     1     -11.638  15.545  34.049  1.00  0.00    -0.365 OA
HETATM   36  C24 UNL     1     -10.730  15.350  33.029  1.00  0.00     0.081 C
HETATM   37  C25 UNL     1      -9.906  16.652  33.312  1.00  0.00     0.042 C
HETATM   38  C29 UNL     1      -9.786  14.231  33.183  1.00  0.00     0.042 C
HETATM   39  C30 UNL     1     -11.363  15.599  31.744  1.00  0.00     0.028 C
HETATM   40  C26 UNL     1      -8.675  16.776  32.530  1.00  0.00     0.003 C
HETATM   41  C27 UNL     1      -7.723  15.697  33.075  1.00  0.00     0.000 C
HETATM   42  C28 UNL     1      -8.381  14.431  32.673  1.00  0.00     0.003 C
ENDBRANCH  24  27
ENDBRANCH  22  23
ENDBRANCH   1  22
TORSDOF 14
ENDMDL