MODEL 3
REMARK VINA RESULT: -9.833968182      1.059      1.380
REMARK  13 active torsions:
REMARK  status: ('A' for Active; 'I' for Inactive)
REMARK    1  A    between atoms: C2_2  and  C3_3
REMARK    2  A    between atoms: C2_2  and  C14_20
REMARK    3  A    between atoms: C3_3  and  C4_4
REMARK    4  A    between atoms: C4_4  and  C5_5
REMARK    5  A    between atoms: C5_5  and  C6_6
REMARK    6  A    between atoms: C6_6  and  O1_7
REMARK    7  A    between atoms: C6_6  and  C7_9
REMARK    8  A    between atoms: C7_9  and  C8_10
REMARK    9  A    between atoms: C8_10  and  C9_11
REMARK   10  A    between atoms: C9_11  and  C10_12
REMARK   11  A    between atoms: C10_12  and  C11_13
REMARK   12  A    between atoms: C11_13  and  C12_14
REMARK   13  A    between atoms: C12_14  and  N1_15
REMARK       I    between atoms: N1_15  and  C13_17
ROOT
HETATM    1  C14 UNL     1      -9.247  17.308  29.655  1.00  0.00    -0.002 C
HETATM    2  C15 UNL     1     -10.649  17.812  29.286  1.00  0.00     0.006 C
HETATM    3  C16 UNL     1     -10.913  17.406  27.873  1.00  0.00     0.006 C
HETATM    4  C17 UNL     1      -9.850  16.392  27.509  1.00  0.00    -0.002 C
HETATM    5  C18 UNL     1      -9.585  16.287  26.058  1.00  0.00    -0.005 C
HETATM    6  C19 UNL     1     -10.951  16.377  25.357  1.00  0.00     0.006 C
HETATM    7  C20 UNL     1     -10.696  16.132  23.913  1.00  0.00     0.015 C
HETATM    8  C21 UNL     1      -9.653  16.994  23.277  1.00  0.00     0.087 C
HETATM    9  C22 UNL     1      -9.554  16.568  21.870  1.00  0.00     0.229 C
HETATM   10  O3  UNL     1     -10.359  15.692  21.419  1.00  0.00    -0.273 OA
HETATM   11  N3  UNL     1      -8.636  17.025  20.892  1.00  0.00    -0.297 N
ATOM     12  H3  UNL     1      -8.894  16.855  19.920  1.00  0.00     0.171 HD
HETATM   13  C23 UNL     1      -7.396  17.693  21.105  1.00  0.00     0.224 C
HETATM   14  O4  UNL     1      -6.945  18.367  20.119  1.00  0.00    -0.273 OA
HETATM   15  C24 UNL     1      -6.592  17.682  22.335  1.00  0.00     0.104 C
HETATM   16  C25 UNL     1      -7.345  17.957  23.593  1.00  0.00     0.019 C
HETATM   17  C26 UNL     1      -8.345  16.962  24.045  1.00  0.00    -0.028 C
HETATM   18  C27 UNL     1      -7.781  15.567  24.115  1.00  0.00     0.016 C
HETATM   19  C28 UNL     1      -8.745  17.356  25.459  1.00  0.00    -0.001 C
HETATM   20  C29 UNL     1      -7.634  17.834  26.316  1.00  0.00     0.006 C
HETATM   21  C30 UNL     1      -8.126  18.079  27.706  1.00  0.00     0.010 C
HETATM   22  C31 UNL     1      -8.716  16.829  28.381  1.00  0.00    -0.036 C
HETATM   23  C32 UNL     1      -7.586  15.844  28.415  1.00  0.00     0.016 C
ENDROOT
BRANCH   1  24
HETATM   24  C2  UNL     1      -9.383  16.433  30.835  1.00  0.00    -0.014 C
HETATM   25  C1  UNL     1     -10.098  15.153  30.673  1.00  0.00     0.010 C
BRANCH  24  26
HETATM   26  C3  UNL     1      -8.142  16.233  31.657  1.00  0.00     0.005 C
BRANCH  26  27
HETATM   27  C4  UNL     1      -8.356  15.621  33.013  1.00  0.00     0.003 C
BRANCH  27  28
HETATM   28  C5  UNL     1      -9.085  16.555  33.904  1.00  0.00     0.032 C
BRANCH  28  29
HETATM   29  C6  UNL     1      -9.960  15.811  34.935  1.00  0.00     0.118 C
BRANCH  29  30
HETATM   30  O1  UNL     1     -11.060  16.660  35.203  1.00  0.00    -0.396 OA
ATOM     31  H1  UNL     1     -11.750  16.100  35.540  1.00  0.00     0.210 HD
ENDBRANCH  29  30
BRANCH  29  32
HETATM   32  C7  UNL     1     -10.420  14.509  34.411  1.00  0.00     0.032 C
BRANCH  32  33
HETATM   33  C8  UNL     1     -11.843  14.199  34.713  1.00  0.00     0.002 C
BRANCH  33  34
HETATM   34  C9  UNL     1     -12.710  13.870  33.547  1.00  0.00     0.000 C
BRANCH  34  35
HETATM   35  C10 UNL     1     -13.067  15.222  32.901  1.00  0.00     0.002 C
BRANCH  35  36
HETATM   36  C11 UNL     1     -14.508  15.247  32.576  1.00  0.00     0.020 C
BRANCH  36  37
HETATM   37  C12 UNL     1     -14.842  14.289  31.468  1.00  0.00     0.124 C
BRANCH  37  38
HETATM   38  N1  UNL     1     -14.537  14.910  30.165  1.00  0.00    -0.345 N
HETATM   39  C13 UNL     1     -13.582  14.266  29.353  1.00  0.00     0.328 C
HETATM   40  N2  UNL     1     -13.246  14.811  28.093  1.00  0.00    -0.040 NA
HETATM   41  O2  UNL     1     -13.003  13.204  29.710  1.00  0.00    -0.251 OA
ATOM     42  H1  UNL     1     -14.998  15.769  29.864  1.00  0.00     0.163 HD
ENDBRANCH  37  38
ENDBRANCH  36  37
ENDBRANCH  35  36
ENDBRANCH  34  35
ENDBRANCH  33  34
ENDBRANCH  32  33
ENDBRANCH  29  32
ENDBRANCH  28  29
ENDBRANCH  27  28
ENDBRANCH  26  27
ENDBRANCH  24  26
ENDBRANCH   1  24
TORSDOF 13
ENDMDL