MODEL 2
REMARK VINA RESULT: -8.420722291      1.454      2.928
REMARK  14 active torsions:
REMARK  status: ('A' for Active; 'I' for Inactive)
REMARK    1  A    between atoms: O1_2  and  C2_3
REMARK    2  A    between atoms: C5_6  and  O2_7
REMARK    3  A    between atoms: C8_11  and  N1_12
REMARK       I    between atoms: N1_12  and  C9_14
REMARK       I    between atoms: C9_14  and  N2_16
REMARK    4  A    between atoms: N2_16  and  C10_18
REMARK    5  A    between atoms: C10_18  and  C11_19
REMARK    6  A    between atoms: C11_19  and  C12_20
REMARK    7  A    between atoms: C12_20  and  C13_21
REMARK    8  A    between atoms: C13_21  and  C14_22
REMARK    9  A    between atoms: C14_22  and  C15_23
REMARK   10  A    between atoms: C15_23  and  C16_24
REMARK   11  A    between atoms: C16_24  and  C17_25
REMARK   12  A    between atoms: C21_31  and  C23_33
REMARK   13  A    between atoms: C23_33  and  C24_34
REMARK   14  A    between atoms: C24_34  and  C25_35
ROOT
HETATM    1  C2  UNL     1      -9.473  16.665  27.889  1.00  0.00     0.072 C
HETATM    2  C3  UNL     1     -10.842  17.222  27.907  1.00  0.00     0.047 C
HETATM    3  C4  UNL     1     -10.627  17.737  26.469  1.00  0.00     0.025 C
HETATM    4  C5  UNL     1     -11.127  17.052  25.325  1.00  0.00     0.122 C
HETATM    5  C6  UNL     1     -10.529  15.940  24.601  1.00  0.00     0.034 C
HETATM    6  C7  UNL     1      -9.071  15.914  24.338  1.00  0.00     0.028 C
HETATM    7  C8  UNL     1      -8.297  17.127  24.627  1.00  0.00     0.090 C
HETATM    8  C18 UNL     1      -8.134  17.649  25.974  1.00  0.00     0.016 C
HETATM    9  C19 UNL     1      -6.999  17.063  26.820  1.00  0.00     0.008 C
HETATM   10  C20 UNL     1      -7.233  17.529  28.255  1.00  0.00     0.012 C
HETATM   11  C21 UNL     1      -8.416  16.837  28.903  1.00  0.00    -0.012 C
HETATM   12  C22 UNL     1      -7.752  15.485  29.322  1.00  0.00     0.018 C
HETATM   13  C30 UNL     1      -9.235  17.797  26.878  1.00  0.00     0.034 C
ENDROOT
BRANCH   7  14
HETATM   14  N1  UNL     1      -6.955  16.939  24.039  1.00  0.00    -0.338 N
HETATM   15  C9  UNL     1      -6.506  17.699  22.926  1.00  0.00     0.316 C
HETATM   16  O3  UNL     1      -7.229  18.573  22.390  1.00  0.00    -0.247 OA
HETATM   17  N2  UNL     1      -5.215  17.467  22.408  1.00  0.00    -0.343 N
ATOM     18  H2  UNL     1      -4.618  16.762  22.842  1.00  0.00     0.164 HD
ATOM     19  H1  UNL     1      -6.332  16.241  24.445  1.00  0.00     0.164 HD
BRANCH  17  20
HETATM   20  C10 UNL     1      -4.731  18.202  21.286  1.00  0.00     0.124 C
BRANCH  20  21
HETATM   21  C11 UNL     1      -3.216  18.227  21.246  1.00  0.00     0.020 C
BRANCH  21  22
HETATM   22  C12 UNL     1      -2.750  17.648  22.562  1.00  0.00     0.002 C
BRANCH  22  23
HETATM   23  C13 UNL     1      -1.690  18.506  23.233  1.00  0.00     0.000 C
BRANCH  23  24
HETATM   24  C14 UNL     1      -2.289  19.288  24.330  1.00  0.00     0.001 C
BRANCH  24  25
HETATM   25  C15 UNL     1      -3.368  18.667  25.093  1.00  0.00     0.010 C
BRANCH  25  26
HETATM   26  C16 UNL     1      -4.510  19.505  25.469  1.00  0.00     0.113 C
BRANCH  26  27
HETATM   27  C17 UNL     1      -4.665  20.788  24.832  1.00  0.00     0.172 C
HETATM   28  O4  UNL     1      -4.176  21.839  25.303  1.00  0.00    -0.648 OA
HETATM   29  O5  UNL     1      -5.381  20.946  23.640  1.00  0.00    -0.648 OA
ENDBRANCH  26  27
ENDBRANCH  25  26
ENDBRANCH  24  25
ENDBRANCH  23  24
ENDBRANCH  22  23
ENDBRANCH  21  22
ENDBRANCH  20  21
ENDBRANCH  17  20
ENDBRANCH   7  14
BRANCH   4  30
HETATM   30  O2  UNL     1     -12.451  16.617  25.652  1.00  0.00    -0.395 OA
ATOM     31  H2  UNL     1     -12.358  15.909  26.278  1.00  0.00     0.210 HD
ENDBRANCH   4  30
BRANCH   1  32
HETATM   32  O1  UNL     1      -9.493  15.397  27.459  1.00  0.00    -0.384 OA
HETATM   33  C1  UNL     1     -10.490  14.556  27.883  1.00  0.00     0.202 C
ENDBRANCH   1  32
BRANCH  11  34
HETATM   34  C23 UNL     1      -8.758  17.579  30.146  1.00  0.00     0.012 C
BRANCH  34  35
HETATM   35  C24 UNL     1      -8.395  16.925  31.441  1.00  0.00     0.010 C
BRANCH  35  36
HETATM   36  C25 UNL     1      -9.614  16.740  32.314  1.00  0.00     0.043 A
HETATM   37  C26 UNL     1     -10.674  15.834  31.825  1.00  0.00     0.176 A
HETATM   38  O6  UNL     1     -10.385  14.855  32.790  1.00  0.00    -0.380 OA
HETATM   39  C27 UNL     1      -9.441  15.680  33.366  1.00  0.00     0.059 A
HETATM   40  C28 UNL     1      -8.075  14.990  33.321  1.00  0.00     0.046 C
HETATM   41  C29 UNL     1      -9.747  16.124  34.777  1.00  0.00     0.046 C
ENDBRANCH  35  36
ENDBRANCH  34  35
ENDBRANCH  11  34
TORSDOF 14
ENDMDL