MODEL 5
REMARK VINA RESULT: -7.829955265      1.032      1.390
REMARK  16 active torsions:
REMARK  status: ('A' for Active; 'I' for Inactive)
REMARK    1  A    between atoms: C2_2  and  S1_5
REMARK    2  A    between atoms: S1_5  and  C5_6
REMARK    3  A    between atoms: C5_6  and  C6_7
REMARK    4  A    between atoms: C6_7  and  C7_8
REMARK    5  A    between atoms: C7_8  and  C8_9
REMARK    6  A    between atoms: C13_14  and  C14_15
REMARK    7  A    between atoms: C14_15  and  C15_16
REMARK    8  A    between atoms: C16_17  and  C17_18
REMARK    9  A    between atoms: C17_18  and  C18_19
REMARK   10  A    between atoms: C18_19  and  C19_20
REMARK   11  A    between atoms: C19_20  and  C20_21
REMARK       I    between atoms: C20_21  and  N1_23
REMARK   12  A    between atoms: N1_23  and  C21_25
REMARK   13  A    between atoms: C23_27  and  O2_28
REMARK   14  A    between atoms: C28_34  and  O3_35
REMARK   15  A    between atoms: C29_37  and  C31_39
REMARK   16  A    between atoms: C31_39  and  O4_40
ROOT
HETATM    1  C8  UNL     1     -10.697  16.041  27.575  1.00  0.00    -0.028 C
HETATM    2  C9  UNL     1     -11.838  16.961  28.060  1.00  0.00     0.016 C
HETATM    3  C10 UNL     1     -10.339  16.721  26.259  1.00  0.00     0.003 C
HETATM    4  C11 UNL     1     -11.440  16.813  25.268  1.00  0.00     0.006 C
HETATM    5  C12 UNL     1     -10.920  16.245  23.947  1.00  0.00     0.006 C
HETATM    6  C13 UNL     1      -9.692  15.409  24.394  1.00  0.00    -0.003 C
HETATM    7  C25 UNL     1      -9.133  16.217  25.534  1.00  0.00    -0.033 C
HETATM    8  C26 UNL     1      -8.495  17.450  24.886  1.00  0.00     0.016 C
HETATM    9  C27 UNL     1      -8.115  15.554  26.366  1.00  0.00     0.042 C
HETATM   10  C28 UNL     1      -8.352  15.404  27.802  1.00  0.00     0.130 C
HETATM   11  C29 UNL     1      -9.481  16.186  28.430  1.00  0.00     0.011 C
HETATM   12  C30 UNL     1      -9.660  15.568  29.829  1.00  0.00     0.021 C
ENDROOT
BRANCH   6  13
HETATM   13  C14 UNL     1      -8.895  15.152  23.188  1.00  0.00     0.032 C
BRANCH  13  14
HETATM   14  C15 UNL     1      -9.437  15.502  21.886  1.00  0.00    -0.030 C
HETATM   15  C16 UNL     1      -8.762  16.055  20.924  1.00  0.00    -0.031 C
BRANCH  15  16
HETATM   16  C17 UNL     1      -7.350  16.454  20.896  1.00  0.00     0.027 C
BRANCH  16  17
HETATM   17  C18 UNL     1      -7.150  17.939  20.856  1.00  0.00     0.013 C
BRANCH  17  18
HETATM   18  C19 UNL     1      -7.117  18.582  22.211  1.00  0.00     0.103 C
BRANCH  18  19
HETATM   19  C20 UNL     1      -5.795  18.901  22.728  1.00  0.00     0.217 C
HETATM   20  O1  UNL     1      -5.306  20.049  22.727  1.00  0.00    -0.274 OA
HETATM   21  N1  UNL     1      -4.995  17.855  23.274  1.00  0.00    -0.356 N
ATOM     22  H1  UNL     1      -5.366  16.905  23.291  1.00  0.00     0.162 HD
BRANCH  21  23
HETATM   23  C21 UNL     1      -3.686  18.100  23.797  1.00  0.00     0.089 C
HETATM   24  C22 UNL     1      -3.279  17.191  24.940  1.00  0.00     0.057 C
HETATM   25  C23 UNL     1      -1.969  16.923  24.249  1.00  0.00     0.122 C
HETATM   26  C24 UNL     1      -2.537  17.569  23.001  1.00  0.00     0.057 C
BRANCH  25  27
HETATM   27  O2  UNL     1      -1.705  15.579  24.068  1.00  0.00    -0.395 OA
ATOM     28  H2  UNL     1      -0.930  15.412  23.545  1.00  0.00     0.210 HD
ENDBRANCH  25  27
ENDBRANCH  21  23
ENDBRANCH  18  19
ENDBRANCH  17  18
ENDBRANCH  16  17
ENDBRANCH  15  16
ENDBRANCH  13  14
ENDBRANCH   6  13
BRANCH   1  29
HETATM   29  C7  UNL     1     -11.158  14.685  27.304  1.00  0.00     0.011 C
BRANCH  29  30
HETATM   30  C6  UNL     1     -12.448  14.141  27.724  1.00  0.00     0.011 C
BRANCH  30  31
HETATM   31  C5  UNL     1     -12.510  12.909  28.546  1.00  0.00     0.075 C
BRANCH  31  32
HETATM   32  S1  UNL     1     -12.555  13.483  30.299  1.00  0.00    -0.160 SA
BRANCH  32  33
HETATM   33  C2  UNL     1     -14.214  13.102  30.912  1.00  0.00    -0.003 C
HETATM   34  C1  UNL     1     -14.725  11.826  30.307  1.00  0.00     0.026 C
HETATM   35  C3  UNL     1     -14.073  12.830  32.416  1.00  0.00     0.026 C
HETATM   36  C4  UNL     1     -15.202  14.199  30.665  1.00  0.00     0.026 C
ENDBRANCH  32  33
ENDBRANCH  31  32
ENDBRANCH  30  31
ENDBRANCH  29  30
ENDBRANCH   1  29
BRANCH  10  37
HETATM   37  O3  UNL     1      -7.196  15.752  28.545  1.00  0.00    -0.395 OA
ATOM     38  H3  UNL     1      -7.024  15.110  29.223  1.00  0.00     0.210 HD
ENDBRANCH  10  37
BRANCH  11  39
HETATM   39  C31 UNL     1      -8.994  17.558  28.687  1.00  0.00     0.176 C
BRANCH  39  40
HETATM   40  O4  UNL     1      -9.006  17.971  30.019  1.00  0.00    -0.400 OA
ATOM     41  H4  UNL     1      -9.597  18.685  30.227  1.00  0.00     0.209 HD
ENDBRANCH  39  40
ENDBRANCH  11  39
TORSDOF 16
ENDMDL