MODEL 3
REMARK VINA RESULT: -4.512292388      2.011      7.513
REMARK  14 active torsions:
REMARK  status: ('A' for Active; 'I' for Inactive)
REMARK    1  A    between atoms: C2_2  and  C3_3
REMARK    2  A    between atoms: C3_3  and  N1_4
REMARK    3  A    between atoms: C7_11  and  C8_12
REMARK    4  A    between atoms: C8_12  and  C9_13
REMARK    5  A    between atoms: C13_20  and  C14_21
REMARK    6  A    between atoms: C17_24  and  C18_25
REMARK    7  A    between atoms: C18_25  and  N4_26
REMARK    8  A    between atoms: C19_32  and  O3_33
REMARK    9  A    between atoms: C20_35  and  C21_36
REMARK   10  A    between atoms: C21_36  and  C22_37
REMARK   11  A    between atoms: C25_42  and  O4_43
REMARK   12  A    between atoms: C26_47  and  C27_48
REMARK   13  A    between atoms: C27_48  and  C28_49
REMARK   14  A    between atoms: C31_52  and  O5_53
ROOT
HETATM    1  N1  UNL     1      26.783  27.618   7.457  1.00  0.00    -0.355 N
HETATM    2  C4  UNL     1      25.536  27.292   6.765  1.00  0.00     0.160 C
HETATM    3  C5  UNL     1      25.593  27.288   5.301  1.00  0.00     0.197 C
HETATM    4  C6  UNL     1      25.264  28.680   4.783  1.00  0.00     0.243 C
HETATM    5  O1  UNL     1      24.363  29.396   5.341  1.00  0.00    -0.271 OA
HETATM    6  N2  UNL     1      25.919  29.254   3.676  1.00  0.00    -0.346 N
ATOM      7  H2  UNL     1      25.953  30.266   3.549  1.00  0.00     0.163 HD
HETATM    8  C7  UNL     1      26.544  28.361   2.727  1.00  0.00     0.177 C
HETATM    9  C12 UNL     1      25.504  28.162   1.667  1.00  0.00     0.240 C
HETATM   10  O2  UNL     1      25.517  29.138   0.827  1.00  0.00    -0.271 OA
HETATM   11  N3  UNL     1      24.607  27.128   1.504  1.00  0.00    -0.352 N
ATOM     12  H3  UNL     1      24.642  26.731   0.565  1.00  0.00     0.163 HD
HETATM   13  C13 UNL     1      23.649  26.486   2.323  1.00  0.00     0.112 C
HETATM   14  C17 UNL     1      23.687  26.745   3.777  1.00  0.00     0.129 C
HETATM   15  N6  UNL     1      24.915  26.311   4.475  1.00  0.00    -0.337 N
HETATM   16  C19 UNL     1      25.315  24.986   4.183  1.00  0.00     0.162 C
HETATM   17  C20 UNL     1      25.564  23.764   4.975  1.00  0.00     0.064 C
HETATM   18  N7  UNL     1      25.424  23.850   6.367  1.00  0.00    -0.322 N
ATOM     19  H7  UNL     1      24.460  23.969   6.678  1.00  0.00     0.169 HD
HETATM   20  C25 UNL     1      26.368  23.802   7.427  1.00  0.00     0.221 C
HETATM   21  N8  UNL     1      27.639  24.268   7.575  1.00  0.00    -0.322 N
ATOM     22  H8  UNL     1      28.289  23.483   7.605  1.00  0.00     0.169 HD
HETATM   23  C26 UNL     1      28.363  25.493   7.704  1.00  0.00     0.063 C
HETATM   24  C31 UNL     1      27.775  26.756   7.971  1.00  0.00     0.161 C
ENDROOT
BRANCH  14  25
HETATM   25  C18 UNL     1      22.477  26.147   4.430  1.00  0.00     0.166 C
BRANCH  25  26
HETATM   26  N4  UNL     1      22.244  24.764   4.146  1.00  0.00    -0.341 N
HETATM   27  N5  UNL     1      21.176  24.190   4.508  1.00  0.00    -0.349 N
ATOM     28  H52 UNL     1      20.478  24.738   5.010  1.00  0.00     0.176 HD
ATOM     29  H51 UNL     1      21.010  23.204   4.305  1.00  0.00     0.176 HD
ATOM     30  H4  UNL     1      22.953  24.231   3.642  1.00  0.00     0.179 HD
ENDBRANCH  25  26
ENDBRANCH  14  25
BRANCH  13  31
HETATM   31  C14 UNL     1      22.304  27.045   1.790  1.00  0.00     0.002 C
HETATM   32  C15 UNL     1      22.123  28.489   2.013  1.00  0.00     0.011 C
HETATM   33  C16 UNL     1      22.292  26.795   0.254  1.00  0.00     0.011 C
ENDBRANCH  13  31
BRANCH  16  34
HETATM   34  O3  UNL     1      25.538  24.686   2.911  1.00  0.00    -0.345 OA
ATOM     35  H3  UNL     1      26.272  25.115   2.486  1.00  0.00     0.219 HD
ENDBRANCH  16  34
BRANCH  17  36
HETATM   36  C21 UNL     1      26.765  23.060   4.420  1.00  0.00     0.065 C
BRANCH  36  37
HETATM   37  C22 UNL     1      26.640  21.614   4.145  1.00  0.00    -0.017 C
HETATM   38  C23 UNL     1      25.256  21.314   3.532  1.00  0.00     0.010 C
HETATM   39  C24 UNL     1      26.664  20.763   5.410  1.00  0.00     0.010 C
ENDBRANCH  36  37
ENDBRANCH  17  36
BRANCH   8  40
HETATM   40  C8  UNL     1      27.757  29.091   2.175  1.00  0.00     0.038 C
BRANCH  40  41
HETATM   41  C9  UNL     1      29.022  28.734   2.870  1.00  0.00    -0.020 C
HETATM   42  C10 UNL     1      29.825  29.919   3.339  1.00  0.00     0.009 C
HETATM   43  C11 UNL     1      29.894  27.946   1.916  1.00  0.00     0.009 C
ENDBRANCH  40  41
ENDBRANCH   8  40
BRANCH   1  44
HETATM   44  C3  UNL     1      26.975  29.088   7.658  1.00  0.00     0.151 C
BRANCH  44  45
HETATM   45  C2  UNL     1      28.004  29.562   6.698  1.00  0.00    -0.017 C
HETATM   46  C1  UNL     1      29.111  30.130   7.122  1.00  0.00     0.008 C
ENDBRANCH  44  45
ENDBRANCH   1  44
BRANCH  24  47
HETATM   47  O5  UNL     1      28.299  27.351   9.042  1.00  0.00    -0.345 OA
ATOM     48  H5  UNL     1      27.840  28.174   9.161  1.00  0.00     0.219 HD
ENDBRANCH  24  47
BRANCH  20  49
HETATM   49  O4  UNL     1      25.878  23.169   8.462  1.00  0.00    -0.332 OA
ATOM     50  H4  UNL     1      26.535  23.067   9.140  1.00  0.00     0.220 HD
ENDBRANCH  20  49
BRANCH  23  51
HETATM   51  C27 UNL     1      29.488  25.388   6.696  1.00  0.00     0.065 C
BRANCH  51  52
HETATM   52  C28 UNL     1      30.505  26.444   6.647  1.00  0.00    -0.017 C
HETATM   53  C29 UNL     1      31.082  26.709   5.282  1.00  0.00     0.010 C
HETATM   54  C30 UNL     1      31.551  26.464   7.718  1.00  0.00     0.010 C
ENDBRANCH  51  52
ENDBRANCH  23  51
TORSDOF 14
ENDMDL