MODEL 3
REMARK VINA RESULT: -9.739065382      2.636      5.188
REMARK  11 active torsions:
REMARK  status: ('A' for Active; 'I' for Inactive)
REMARK    1  A    between atoms: C2_2  and  C3_3
REMARK    2  A    between atoms: C3_3  and  N1_4
REMARK    3  A    between atoms: C3_3  and  C24_38
REMARK       I    between atoms: N1_4  and  C4_6
REMARK       I    between atoms: C4_6  and  N2_8
REMARK    4  A    between atoms: N2_8  and  C5_10
REMARK       I    between atoms: N3_14  and  C9_15
REMARK       I    between atoms: C9_15  and  N4_17
REMARK    5  A    between atoms: N4_17  and  C10_19
REMARK    6  A    between atoms: C12_21  and  C13_22
REMARK    7  A    between atoms: C13_22  and  C14_23
REMARK    8  A    between atoms: C15_24  and  C16_25
REMARK    9  A    between atoms: C17_26  and  C18_27
REMARK   10  A    between atoms: C18_27  and  N5_28
REMARK       I    between atoms: C19_30  and  N7_32
REMARK   11  A    between atoms: N7_32  and  C20_34
REMARK       I    between atoms: C24_38  and  N8_40
ROOT
HETATM    1  C5  UNL     1      20.604  14.676   3.903  1.00  0.00     0.106 C
HETATM    2  C6  UNL     1      19.644  14.056   2.892  1.00  0.00     0.051 C
HETATM    3  C7  UNL     1      18.989  12.931   3.673  1.00  0.00     0.086 C
HETATM    4  C8  UNL     1      17.484  12.942   3.478  1.00  0.00     0.032 C
HETATM    5  N3  UNL     1      19.349  13.121   5.055  1.00  0.00    -0.328 N
HETATM    6  C9  UNL     1      19.222  12.165   6.089  1.00  0.00     0.319 C
HETATM    7  O2  UNL     1      18.763  10.994   5.842  1.00  0.00    -0.247 OA
HETATM    8  N4  UNL     1      19.595  12.481   7.406  1.00  0.00    -0.338 N
ATOM      9  H4  UNL     1      19.963  13.409   7.617  1.00  0.00     0.164 HD
HETATM   10  C23 UNL     1      19.863  14.452   5.201  1.00  0.00     0.153 C
ENDROOT
BRANCH   8  11
HETATM   11  C10 UNL     1      19.464  11.503   8.471  1.00  0.00     0.091 A
HETATM   12  C11 UNL     1      20.571  11.158   9.373  1.00  0.00     0.032 A
HETATM   13  C12 UNL     1      19.521  12.055   9.873  1.00  0.00     0.014 A
BRANCH  13  14
HETATM   14  C13 UNL     1      18.495  11.560  10.885  1.00  0.00     0.033 C
BRANCH  14  15
HETATM   15  C14 UNL     1      17.298  12.401  10.890  1.00  0.00    -0.026 C
HETATM   16  C15 UNL     1      16.054  12.021  10.622  1.00  0.00    -0.004 C
BRANCH  16  17
HETATM   17  C16 UNL     1      15.700  10.673  10.277  1.00  0.00    -0.003 C
HETATM   18  C17 UNL     1      15.652  10.080   9.122  1.00  0.00    -0.007 C
BRANCH  18  19
HETATM   19  C18 UNL     1      15.929  10.524   7.762  1.00  0.00     0.149 C
BRANCH  19  20
HETATM   20  N5  UNL     1      15.864   9.521   6.769  1.00  0.00    -0.361 N
HETATM   21  C19 UNL     1      15.469   9.765   5.559  1.00  0.00     0.184 C
HETATM   22  N6  UNL     1      15.095  11.097   5.250  1.00  0.00    -0.064 NA
HETATM   23  N7  UNL     1      15.405   8.745   4.579  1.00  0.00    -0.361 N
ATOM     24  H7  UNL     1      15.753   8.912   3.634  1.00  0.00     0.162 HD
ATOM     25  H5  UNL     1      16.138   8.569   7.013  1.00  0.00     0.162 HD
BRANCH  23  26
HETATM   26  C20 UNL     1      14.840   7.461   4.935  1.00  0.00     0.076 C
HETATM   27  C21 UNL     1      15.160   6.411   3.896  1.00  0.00     0.032 C
HETATM   28  C22 UNL     1      13.390   7.546   5.282  1.00  0.00     0.032 C
ENDBRANCH  23  26
ENDBRANCH  19  20
ENDBRANCH  18  19
ENDBRANCH  16  17
ENDBRANCH  14  15
ENDBRANCH  13  14
ENDBRANCH   8  11
BRANCH   1  29
HETATM   29  N2  UNL     1      20.830  16.064   3.657  1.00  0.00    -0.337 N
HETATM   30  C4  UNL     1      22.125  16.604   3.751  1.00  0.00     0.317 C
HETATM   31  N1  UNL     1      22.329  17.980   3.524  1.00  0.00    -0.330 N
HETATM   32  O1  UNL     1      23.080  15.833   4.043  1.00  0.00    -0.247 OA
ATOM     33  H1  UNL     1      21.512  18.547   3.299  1.00  0.00     0.165 HD
ATOM     34  H2  UNL     1      20.046  16.670   3.412  1.00  0.00     0.164 HD
BRANCH  31  35
HETATM   35  C3  UNL     1      23.617  18.654   3.587  1.00  0.00     0.178 C
BRANCH  35  36
HETATM   36  C2  UNL     1      23.810  19.367   2.272  1.00  0.00     0.030 C
HETATM   37  C1  UNL     1      25.115  20.140   2.351  1.00  0.00     0.007 C
ENDBRANCH  35  36
BRANCH  35  38
HETATM   38  C24 UNL     1      23.597  19.593   4.751  1.00  0.00     0.243 C
HETATM   39  O3  UNL     1      23.015  20.699   4.664  1.00  0.00    -0.271 OA
HETATM   40  N8  UNL     1      24.230  19.255   5.969  1.00  0.00    -0.344 N
HETATM   41  C25 UNL     1      25.007  18.127   6.512  1.00  0.00     0.133 C
HETATM   42  C30 UNL     1      24.405  19.871   7.279  1.00  0.00     0.104 C
HETATM   43  C26 UNL     1      24.446  18.515   7.843  1.00  0.00     0.028 C
HETATM   44  C27 UNL     1      25.240  18.255   9.049  1.00  0.00     0.021 C
HETATM   45  C28 UNL     1      26.679  18.651   9.010  1.00  0.00     0.109 C
HETATM   46  S1  UNL     1      26.673  20.425   8.708  1.00  0.00     0.016 S
HETATM   47  O4  UNL     1      28.259  20.858   8.372  1.00  0.00    -0.258 OA
HETATM   48  C29 UNL     1      25.648  20.672   7.294  1.00  0.00     0.134 C
ENDBRANCH  35  38
ENDBRANCH  31  35
ENDBRANCH   1  29
TORSDOF 11
ENDMDL