MODEL 4
REMARK VINA RESULT: -9.444275501      0.880      1.757
REMARK  14 active torsions:
REMARK  status: ('A' for Active; 'I' for Inactive)
REMARK    1  A    between atoms: C2_2  and  C3_3
REMARK    2  A    between atoms: C3_3  and  C4_4
REMARK    3  A    between atoms: N1_7  and  C7_8
REMARK    4  A    between atoms: N2_10  and  C9_12
REMARK    5  A    between atoms: C9_12  and  C10_13
REMARK    6  A    between atoms: C10_13  and  N3_14
REMARK       I    between atoms: N3_14  and  C11_16
REMARK    7  A    between atoms: N5_18  and  C12_20
REMARK    8  A    between atoms: C14_22  and  C15_23
REMARK    9  A    between atoms: C17_27  and  C18_28
REMARK   10  A    between atoms: C18_28  and  O2_29
REMARK   11  A    between atoms: C18_28  and  N7_31
REMARK       I    between atoms: N8_34  and  C21_35
REMARK       I    between atoms: C21_35  and  N12_43
REMARK       I    between atoms: N9_36  and  C22_38
REMARK   12  A    between atoms: N12_43  and  C23_45
REMARK   13  A    between atoms: C23_45  and  C24_46
REMARK   14  A    between atoms: C24_46  and  N13_47
ROOT
HETATM    1  C12 UNL     1      26.396  20.936   5.036  1.00  0.00     0.036 A
HETATM    2  C13 UNL     1      26.707  21.904   5.960  1.00  0.00     0.046 A
HETATM    3  C14 UNL     1      26.455  21.692   7.293  1.00  0.00     0.032 A
HETATM    4  C16 UNL     1      25.891  20.501   7.670  1.00  0.00     0.032 A
HETATM    5  C17 UNL     1      25.549  19.472   6.783  1.00  0.00     0.018 A
HETATM    6  C30 UNL     1      25.815  19.722   5.473  1.00  0.00     0.045 A
ENDROOT
BRANCH   5   7
HETATM    7  C18 UNL     1      24.941  18.306   7.296  1.00  0.00     0.149 C
BRANCH   7   8
HETATM    8  O2  UNL     1      25.413  17.841   8.419  1.00  0.00    -0.346 OA
ATOM      9  H2  UNL     1      25.877  17.013   8.379  1.00  0.00     0.219 HD
ENDBRANCH   7   8
BRANCH   7  10
HETATM   10  N7  UNL     1      23.883  17.559   6.764  1.00  0.00    -0.343 N
HETATM   11  C19 UNL     1      22.528  17.643   7.350  1.00  0.00     0.147 C
HETATM   12  C20 UNL     1      21.641  17.019   6.281  1.00  0.00     0.163 C
HETATM   13  N8  UNL     1      22.513  15.968   5.780  1.00  0.00    -0.200 N
HETATM   14  C21 UNL     1      22.259  14.631   5.433  1.00  0.00     0.679 C
HETATM   15  C29 UNL     1      23.821  16.616   5.700  1.00  0.00     0.269 C
HETATM   16  N9  UNL     1      22.228  13.718   6.338  1.00  0.00    -0.164 N
HETATM   17  N12 UNL     1      22.044  14.282   4.057  1.00  0.00    -0.224 N
HETATM   18  C22 UNL     1      22.445  14.030   7.696  1.00  0.00     0.200 C
ATOM     19  H9  UNL     1      22.043  12.752   6.070  1.00  0.00     0.187 HD
HETATM   20  N10 UNL     1      23.660  14.106   8.142  1.00  0.00    -0.373 N
HETATM   21  N11 UNL     1      21.328  14.247   8.539  1.00  0.00    -0.063 NA
ATOM     22 2H10 UNL     1      24.464  13.950   7.535  1.00  0.00     0.158 HD
ATOM     23 1H10 UNL     1      23.817  14.332   9.124  1.00  0.00     0.158 HD
ATOM     24  H12 UNL     1      22.677  13.648   3.568  1.00  0.00     0.177 HD
BRANCH  17  25
HETATM   25  C23 UNL     1      20.906  14.855   3.388  1.00  0.00     0.168 C
BRANCH  25  26
HETATM   26  C24 UNL     1      19.603  14.311   3.931  1.00  0.00     0.292 C
BRANCH  26  27
HETATM   27  N13 UNL     1      18.905  13.509   2.964  1.00  0.00     0.090 N
HETATM   28  C25 UNL     1      17.688  12.918   3.414  1.00  0.00     0.272 C
HETATM   29  C26 UNL     1      17.137  12.321   2.122  1.00  0.00     0.032 C
HETATM   30  C27 UNL     1      17.796  13.114   0.995  1.00  0.00     0.032 C
HETATM   31  C28 UNL     1      18.509  14.223   1.772  1.00  0.00     0.272 C
ENDBRANCH  26  27
ENDBRANCH  25  26
ENDBRANCH  17  25
ENDBRANCH   7  10
ENDBRANCH   5   7
BRANCH   3  32
HETATM   32  C15 UNL     1      26.793  22.727   8.272  1.00  0.00     0.265 C
HETATM   33  N6  UNL     1      26.590  24.086   7.938  1.00  0.00    -0.057 NA
HETATM   34  O1  UNL     1      27.251  22.410   9.383  1.00  0.00    -0.271 OA
ENDBRANCH   3  32
BRANCH   1  35
HETATM   35  N5  UNL     1      26.620  21.090   3.651  1.00  0.00    -0.331 N
HETATM   36  C11 UNL     1      25.664  21.350   2.860  1.00  0.00     0.188 C
HETATM   37  N3  UNL     1      24.302  21.514   3.242  1.00  0.00    -0.363 N
HETATM   38  N4  UNL     1      26.022  21.486   1.466  1.00  0.00    -0.064 NA
ATOM     39  H3  UNL     1      23.901  21.016   4.037  1.00  0.00     0.162 HD
ATOM     40  H5  UNL     1      27.565  20.990   3.282  1.00  0.00     0.168 HD
BRANCH  37  41
HETATM   41  C10 UNL     1      23.511  22.436   2.430  1.00  0.00     0.142 C
BRANCH  41  42
HETATM   42  C9  UNL     1      23.496  23.835   3.014  1.00  0.00     0.140 C
BRANCH  42  43
HETATM   43  N2  UNL     1      22.290  24.093   3.755  1.00  0.00    -0.379 N
HETATM   44  C7  UNL     1      21.976  25.279   4.087  1.00  0.00     0.071 C
HETATM   45  C8  UNL     1      20.726  25.491   4.859  1.00  0.00     0.088 C
ATOM     46  H2  UNL     1      21.681  23.318   4.017  1.00  0.00     0.160 HD
BRANCH  44  47
HETATM   47  N1  UNL     1      22.796  26.384   3.741  1.00  0.00    -0.366 N
HETATM   48  C4  UNL     1      23.817  27.175   4.456  1.00  0.00     0.090 C
HETATM   49  C5  UNL     1      24.368  27.622   3.153  1.00  0.00     0.045 C
HETATM   50  C6  UNL     1      23.028  27.226   2.592  1.00  0.00     0.126 C
BRANCH  48  51
HETATM   51  C3  UNL     1      24.666  26.361   5.365  1.00  0.00     0.051 C
BRANCH  51  52
HETATM   52  C2  UNL     1      25.193  27.144   6.492  1.00  0.00    -0.035 C
HETATM   53  C1  UNL     1      25.653  28.361   6.465  1.00  0.00     0.007 C
ENDBRANCH  51  52
ENDBRANCH  48  51
ENDBRANCH  44  47
ENDBRANCH  42  43
ENDBRANCH  41  42
ENDBRANCH  37  41
ENDBRANCH   1  35
TORSDOF 14
ENDMDL