MODEL 2
REMARK VINA RESULT: -7.706203123      1.071      1.581
REMARK  13 active torsions:
REMARK  status: ('A' for Active; 'I' for Inactive)
REMARK    1  A    between atoms: C4_6  and  C5_7
REMARK    2  A    between atoms: C5_7  and  C6_8
REMARK    3  A    between atoms: C10_15  and  C11_16
REMARK    4  A    between atoms: C11_16  and  C12_17
REMARK    5  A    between atoms: C16_24  and  C18_26
REMARK    6  A    between atoms: C18_26  and  O3_27
REMARK    7  A    between atoms: C19_31  and  O4_32
REMARK    8  A    between atoms: N6_38  and  C22_39
REMARK    9  A    between atoms: C22_39  and  C23_40
REMARK   10  A    between atoms: N7_43  and  C26_44
REMARK   11  A    between atoms: C26_44  and  C27_45
REMARK   12  A    between atoms: C27_45  and  C28_46
REMARK   13  A    between atoms: C28_46  and  C29_47
ROOT
HETATM    1  C1  UNL     1      26.435  21.943   7.450  1.00  0.00     0.065 C
HETATM    2  C2  UNL     1      25.895  22.236   6.271  1.00  0.00     0.113 C
HETATM    3  N1  UNL     1      25.868  23.592   5.873  1.00  0.00    -0.374 N
ATOM      4  H1  UNL     1      25.485  23.877   4.971  1.00  0.00     0.161 HD
HETATM    5  C3  UNL     1      26.400  24.538   6.793  1.00  0.00     0.146 C
HETATM    6  C4  UNL     1      26.537  25.915   6.118  1.00  0.00     0.102 C
HETATM    7  N2  UNL     1      25.372  26.749   6.277  1.00  0.00    -0.353 N
ATOM      8  H2  UNL     1      25.136  27.006   7.235  1.00  0.00     0.163 HD
HETATM    9  C9  UNL     1      24.514  27.257   5.272  1.00  0.00     0.240 C
HETATM   10  O1  UNL     1      24.521  28.533   5.133  1.00  0.00    -0.271 OA
HETATM   11  C10 UNL     1      23.623  26.493   4.381  1.00  0.00     0.177 C
HETATM   12  N3  UNL     1      23.658  26.906   2.985  1.00  0.00    -0.346 N
ATOM     13  H3  UNL     1      23.998  27.850   2.801  1.00  0.00     0.163 HD
HETATM   14  C15 UNL     1      23.277  26.153   1.863  1.00  0.00     0.248 C
HETATM   15  O2  UNL     1      22.405  26.641   1.085  1.00  0.00    -0.271 OA
HETATM   16  C16 UNL     1      23.796  24.786   1.455  1.00  0.00     0.131 C
HETATM   17  C17 UNL     1      23.326  24.548  -0.031  1.00  0.00     0.051 C
HETATM   18  N4  UNL     1      23.126  23.750   2.157  1.00  0.00    -0.350 N
ATOM     19  H4  UNL     1      22.142  23.766   1.890  1.00  0.00     0.163 HD
HETATM   20  C19 UNL     1      23.311  22.749   3.051  1.00  0.00     0.161 C
HETATM   21  C20 UNL     1      24.214  21.605   3.279  1.00  0.00     0.073 C
HETATM   22  C21 UNL     1      25.396  21.450   2.424  1.00  0.00     0.074 C
HETATM   23  N5  UNL     1      24.279  21.322   4.639  1.00  0.00    -0.293 N
ATOM     24  H5  UNL     1      23.376  21.197   5.096  1.00  0.00     0.187 HD
HETATM   25  N6  UNL     1      25.335  21.190   5.438  1.00  0.00    -0.251 N
ENDROOT
BRANCH  25  26
HETATM   26  C22 UNL     1      25.970  19.919   5.597  1.00  0.00     0.130 C
BRANCH  26  27
HETATM   27  C23 UNL     1      25.195  18.712   5.679  1.00  0.00    -0.010 A
HETATM   28  C24 UNL     1      24.604  18.055   4.665  1.00  0.00     0.030 A
HETATM   29  C25 UNL     1      23.874  16.873   4.826  1.00  0.00     0.091 A
HETATM   30  N7  UNL     1      23.738  16.343   6.042  1.00  0.00    -0.366 N
HETATM   31  C31 UNL     1      24.323  16.988   7.077  1.00  0.00     0.098 A
HETATM   32  C32 UNL     1      25.046  18.148   6.956  1.00  0.00    -0.035 A
HETATM   33  C33 UNL     1      25.662  18.812   8.144  1.00  0.00     0.050 C
BRANCH  30  34
HETATM   34  C26 UNL     1      22.997  15.091   6.292  1.00  0.00     0.128 C
BRANCH  34  35
HETATM   35  C27 UNL     1      22.658  14.918   7.727  1.00  0.00     0.020 C
BRANCH  35  36
HETATM   36  C28 UNL     1      23.060  13.517   8.146  1.00  0.00     0.001 C
BRANCH  36  37
HETATM   37  C29 UNL     1      21.877  12.686   8.564  1.00  0.00    -0.004 C
HETATM   38  C30 UNL     1      20.894  13.448   9.414  1.00  0.00     0.005 C
ENDBRANCH  36  37
ENDBRANCH  35  36
ENDBRANCH  34  35
ENDBRANCH  30  34
ENDBRANCH  26  27
ENDBRANCH  25  26
BRANCH  20  39
HETATM   39  O4  UNL     1      22.423  22.765   4.042  1.00  0.00    -0.345 OA
ATOM     40  H4  UNL     1      21.889  21.979   4.076  1.00  0.00     0.219 HD
ENDBRANCH  20  39
BRANCH   6  41
HETATM   41  C5  UNL     1      27.830  26.577   6.376  1.00  0.00     0.030 C
BRANCH  41  42
HETATM   42  C6  UNL     1      28.405  26.565   7.729  1.00  0.00    -0.021 C
HETATM   43  C7  UNL     1      29.918  26.831   7.550  1.00  0.00     0.009 C
HETATM   44  C8  UNL     1      27.949  27.674   8.653  1.00  0.00     0.009 C
ENDBRANCH  41  42
ENDBRANCH   6  41
BRANCH  16  45
HETATM   45  C18 UNL     1      25.255  24.805   1.287  1.00  0.00     0.204 C
BRANCH  45  46
HETATM   46  O3  UNL     1      25.903  26.007   1.194  1.00  0.00    -0.398 OA
ATOM     47  H3  UNL     1      26.852  26.028   1.239  1.00  0.00     0.209 HD
ENDBRANCH  45  46
ENDBRANCH  16  45
BRANCH  11  48
HETATM   48  C11 UNL     1      22.255  26.257   4.903  1.00  0.00     0.038 C
BRANCH  48  49
HETATM   49  C12 UNL     1      21.101  26.164   4.005  1.00  0.00    -0.020 C
HETATM   50  C13 UNL     1      20.042  25.347   4.807  1.00  0.00     0.009 C
HETATM   51  C14 UNL     1      20.389  27.438   3.665  1.00  0.00     0.009 C
ENDBRANCH  48  49
ENDBRANCH  11  48
TORSDOF 13
ENDMDL