MODEL 2
REMARK VINA RESULT: -7.504735095      1.914      2.374
REMARK  13 active torsions:
REMARK  status: ('A' for Active; 'I' for Inactive)
REMARK    1  A    between atoms: C2_2  and  C4_4
REMARK    2  A    between atoms: C4_4  and  C5_5
REMARK    3  A    between atoms: C7_10  and  C8_11
REMARK    4  A    between atoms: C8_11  and  C9_12
REMARK    5  A    between atoms: C13_19  and  C14_20
REMARK    6  A    between atoms: C14_20  and  C15_21
REMARK    7  A    between atoms: C21_29  and  O3_30
REMARK    8  A    between atoms: C22_32  and  C23_33
REMARK    9  A    between atoms: C23_33  and  C24_34
REMARK   10  A    between atoms: C24_34  and  C25_35
REMARK   11  A    between atoms: C25_35  and  C26_36
REMARK   12  A    between atoms: C26_36  and  N5_37
REMARK       I    between atoms: N5_37  and  C27_38
REMARK       I    between atoms: C27_38  and  N6_40
REMARK   13  A    between atoms: N6_40  and  N7_42
ROOT
HETATM    1  C5  UNL     1      26.404  23.335   6.834  1.00  0.00     0.177 C
HETATM    2  N1  UNL     1      26.599  24.657   7.280  1.00  0.00    -0.346 N
ATOM      3  H1  UNL     1      25.730  25.182   7.380  1.00  0.00     0.163 HD
HETATM    4  C6  UNL     1      27.732  25.396   7.612  1.00  0.00     0.241 C
HETATM    5  O1  UNL     1      27.671  26.018   8.743  1.00  0.00    -0.271 OA
HETATM    6  C7  UNL     1      28.980  25.568   6.870  1.00  0.00     0.177 C
HETATM    7  N2  UNL     1      28.859  25.985   5.496  1.00  0.00    -0.343 N
ATOM      8  H2  UNL     1      29.623  25.670   4.898  1.00  0.00     0.163 HD
HETATM    9  C12 UNL     1      27.901  26.731   4.838  1.00  0.00     0.266 C
HETATM   10  O2  UNL     1      27.767  26.498   3.575  1.00  0.00    -0.266 OA
HETATM   11  C13 UNL     1      26.971  27.759   5.258  1.00  0.00     0.096 C
HETATM   12  N3  UNL     1      25.779  27.940   4.673  1.00  0.00    -0.287 N
HETATM   13  C18 UNL     1      25.171  29.260   4.670  1.00  0.00     0.151 C
HETATM   14  C19 UNL     1      24.240  29.208   3.470  1.00  0.00     0.044 C
HETATM   15  C20 UNL     1      24.760  27.908   2.827  1.00  0.00     0.153 C
HETATM   16  N4  UNL     1      24.865  27.124   4.096  1.00  0.00    -0.271 N
HETATM   17  C21 UNL     1      24.105  26.024   4.417  1.00  0.00     0.156 C
HETATM   18  C22 UNL     1      24.234  24.552   4.575  1.00  0.00     0.161 C
HETATM   19  N8  UNL     1      25.525  23.986   4.487  1.00  0.00    -0.347 N
ATOM     20  H8  UNL     1      26.025  24.216   3.629  1.00  0.00     0.163 HD
HETATM   21  C31 UNL     1      26.240  23.167   5.367  1.00  0.00     0.241 C
HETATM   22  O5  UNL     1      26.807  22.156   4.788  1.00  0.00    -0.271 OA
ENDROOT
BRANCH  18  23
HETATM   23  C23 UNL     1      23.592  24.015   3.232  1.00  0.00     0.037 C
BRANCH  23  24
HETATM   24  C24 UNL     1      24.538  24.010   2.116  1.00  0.00     0.032 C
BRANCH  24  25
HETATM   25  C25 UNL     1      24.578  22.807   1.258  1.00  0.00     0.005 C
BRANCH  25  26
HETATM   26  C26 UNL     1      25.356  21.622   1.614  1.00  0.00     0.184 C
BRANCH  26  27
HETATM   27  N5  UNL     1      24.884  20.610   2.453  1.00  0.00    -0.364 NA
HETATM   28  C27 UNL     1      24.435  19.648   3.250  1.00  0.00     0.417 C
HETATM   29  O4  UNL     1      23.464  18.837   3.003  1.00  0.00    -0.228 OA
HETATM   30  N6  UNL     1      24.995  19.358   4.574  1.00  0.00    -0.155 N
ATOM     31  H6  UNL     1      25.772  19.937   4.891  1.00  0.00     0.200 HD
BRANCH  30  32
HETATM   32  N7  UNL     1      24.558  18.373   5.415  1.00  0.00     0.005 N
HETATM   33  C28 UNL     1      23.174  18.474   5.827  1.00  0.00     0.301 C
HETATM   34  C29 UNL     1      24.788  17.026   4.918  1.00  0.00     0.301 C
HETATM   35  C30 UNL     1      25.329  18.483   6.677  1.00  0.00     0.301 C
ENDBRANCH  30  32
ENDBRANCH  26  27
ENDBRANCH  25  26
ENDBRANCH  24  25
ENDBRANCH  23  24
ENDBRANCH  18  23
BRANCH  17  36
HETATM   36  O3  UNL     1      22.800  26.277   4.692  1.00  0.00    -0.347 OA
ATOM     37  H3  UNL     1      22.173  25.717   4.249  1.00  0.00     0.219 HD
ENDBRANCH  17  36
BRANCH   1  38
HETATM   38  C4  UNL     1      27.421  22.311   7.295  1.00  0.00     0.038 C
BRANCH  38  39
HETATM   39  C2  UNL     1      27.153  21.721   8.635  1.00  0.00    -0.020 C
HETATM   40  C1  UNL     1      27.761  20.316   8.618  1.00  0.00     0.009 C
HETATM   41  C3  UNL     1      25.674  21.529   8.894  1.00  0.00     0.009 C
ENDBRANCH  38  39
ENDBRANCH   1  38
BRANCH  11  42
HETATM   42  C14 UNL     1      27.698  29.062   5.497  1.00  0.00     0.068 C
BRANCH  42  43
HETATM   43  C15 UNL     1      28.167  29.412   6.853  1.00  0.00    -0.017 C
HETATM   44  C16 UNL     1      28.490  30.950   6.808  1.00  0.00     0.010 C
HETATM   45  C17 UNL     1      27.107  29.383   7.945  1.00  0.00     0.010 C
ENDBRANCH  42  43
ENDBRANCH  11  42
BRANCH   6  46
HETATM   46  C8  UNL     1      30.032  26.345   7.601  1.00  0.00     0.038 C
BRANCH  46  47
HETATM   47  C9  UNL     1      31.141  26.914   6.810  1.00  0.00    -0.020 C
HETATM   48  C10 UNL     1      31.651  28.191   7.476  1.00  0.00     0.009 C
HETATM   49  C11 UNL     1      32.293  25.879   6.911  1.00  0.00     0.009 C
ENDBRANCH  46  47
ENDBRANCH   6  46
TORSDOF 13
ENDMDL