MODEL 4
REMARK VINA RESULT: -5.955842249      1.119      1.251
REMARK  13 active torsions:
REMARK  status: ('A' for Active; 'I' for Inactive)
REMARK    1  A    between atoms: C3_3  and  C4_4
REMARK    2  A    between atoms: C8_16  and  C9_17
REMARK    3  A    between atoms: C9_17  and  C10_18
REMARK    4  A    between atoms: C10_18  and  N4_19
REMARK    5  A    between atoms: N4_19  and  C13_22
REMARK    6  A    between atoms: C13_22  and  C14_23
REMARK    7  A    between atoms: C14_23  and  C15_24
REMARK    8  A    between atoms: C15_24  and  C16_25
REMARK    9  A    between atoms: C19_31  and  C20_32
REMARK   10  A    between atoms: C20_32  and  C21_33
REMARK   11  A    between atoms: C25_40  and  C26_41
REMARK   12  A    between atoms: C26_41  and  C27_42
REMARK   13  A    between atoms: C30_45  and  O5_46
ROOT
HETATM    1  C1  UNL     1      30.176  31.627   3.588  1.00  0.00     0.112 C
HETATM    2  C2  UNL     1      29.084  30.719   3.953  1.00  0.00    -0.108 C
HETATM    3  C3  UNL     1      28.191  29.972   4.271  1.00  0.00    -0.073 C
ENDROOT
BRANCH   3   4
HETATM    4  C4  UNL     1      27.079  29.074   4.677  1.00  0.00     0.237 C
HETATM    5  N1  UNL     1      26.747  29.296   6.062  1.00  0.00    -0.321 N
HETATM    6  C5  UNL     1      26.195  28.357   6.957  1.00  0.00     0.317 C
ATOM      7  H1  UNL     1      26.931  30.229   6.433  1.00  0.00     0.166 HD
HETATM    8  O1  UNL     1      25.284  28.820   7.736  1.00  0.00    -0.247 OA
HETATM    9  N2  UNL     1      26.560  26.988   7.056  1.00  0.00    -0.334 N
HETATM   10  C6  UNL     1      27.890  26.457   7.022  1.00  0.00     0.227 C
ATOM     11  H2  UNL     1      25.800  26.316   7.162  1.00  0.00     0.164 HD
HETATM   12  C7  UNL     1      28.132  25.417   6.000  1.00  0.00     0.236 C
HETATM   13  O2  UNL     1      29.373  25.297   5.672  1.00  0.00    -0.272 OA
HETATM   14  N3  UNL     1      27.227  24.580   5.368  1.00  0.00    -0.346 N
HETATM   15  C8  UNL     1      26.180  23.768   5.947  1.00  0.00     0.178 C
ATOM     16  H3  UNL     1      27.311  24.529   4.353  1.00  0.00     0.163 HD
HETATM   17  C18 UNL     1      26.008  22.516   5.126  1.00  0.00     0.241 C
HETATM   18  O3  UNL     1      27.108  21.865   4.985  1.00  0.00    -0.271 OA
HETATM   19  N5  UNL     1      24.873  22.022   4.545  1.00  0.00    -0.346 N
HETATM   20  C19 UNL     1      23.963  22.627   3.566  1.00  0.00     0.177 C
ATOM     21  H5  UNL     1      24.617  21.079   4.840  1.00  0.00     0.163 HD
HETATM   22  C24 UNL     1      24.585  23.813   2.923  1.00  0.00     0.241 C
HETATM   23  O4  UNL     1      25.519  23.467   2.089  1.00  0.00    -0.271 OA
HETATM   24  N6  UNL     1      24.295  25.167   3.108  1.00  0.00    -0.347 N
HETATM   25  C25 UNL     1      23.005  25.860   2.941  1.00  0.00     0.159 C
ATOM     26  H6  UNL     1      25.079  25.752   3.395  1.00  0.00     0.163 HD
HETATM   27  C30 UNL     1      23.314  27.155   2.293  1.00  0.00     0.135 C
HETATM   28  N7  UNL     1      23.966  28.270   2.793  1.00  0.00    -0.366 N
HETATM   29  C31 UNL     1      24.650  28.518   4.014  1.00  0.00     0.203 C
ATOM     30  H7  UNL     1      23.954  29.071   2.161  1.00  0.00     0.161 HD
HETATM   31  C32 UNL     1      25.875  29.345   3.848  1.00  0.00     0.178 C
HETATM   32  O6  UNL     1      25.924  30.251   3.042  1.00  0.00    -0.293 OA
BRANCH  15  33
HETATM   33  C9  UNL     1      26.609  23.215   7.330  1.00  0.00     0.063 C
BRANCH  33  34
HETATM   34  C10 UNL     1      25.602  22.233   7.830  1.00  0.00     0.239 C
BRANCH  34  35
HETATM   35  N4  UNL     1      26.258  21.040   8.345  1.00  0.00    -0.075 N
HETATM   36  C11 UNL     1      25.983  20.808   9.745  1.00  0.00     0.272 C
HETATM   37  C12 UNL     1      27.686  21.291   8.216  1.00  0.00     0.272 C
BRANCH  35  38
HETATM   38  C13 UNL     1      25.844  19.955   7.527  1.00  0.00     0.236 C
BRANCH  38  39
HETATM   39  C14 UNL     1      24.593  19.244   7.835  1.00  0.00     0.028 C
BRANCH  39  40
HETATM   40  C15 UNL     1      23.526  19.265   6.805  1.00  0.00     0.001 C
BRANCH  40  41
HETATM   41  C16 UNL     1      22.796  17.914   6.848  1.00  0.00    -0.005 C
HETATM   42  C17 UNL     1      22.625  17.483   5.405  1.00  0.00     0.005 C
ENDBRANCH  40  41
ENDBRANCH  39  40
ENDBRANCH  38  39
ENDBRANCH  35  38
ENDBRANCH  34  35
ENDBRANCH  33  34
ENDBRANCH  15  33
BRANCH  20  43
HETATM   43  C20 UNL     1      23.735  21.592   2.439  1.00  0.00     0.038 C
BRANCH  43  44
HETATM   44  C21 UNL     1      23.142  20.321   2.967  1.00  0.00    -0.020 C
HETATM   45  C22 UNL     1      21.694  20.286   2.472  1.00  0.00     0.009 C
HETATM   46  C23 UNL     1      23.822  19.096   2.377  1.00  0.00     0.009 C
ENDBRANCH  43  44
ENDBRANCH  20  43
BRANCH  25  47
HETATM   47  C26 UNL     1      22.241  25.929   4.200  1.00  0.00     0.037 C
BRANCH  47  48
HETATM   48  C27 UNL     1      20.760  25.854   4.193  1.00  0.00    -0.020 C
HETATM   49  C28 UNL     1      20.118  25.462   5.477  1.00  0.00     0.009 C
HETATM   50  C29 UNL     1      20.106  27.105   3.629  1.00  0.00     0.009 C
ENDBRANCH  47  48
ENDBRANCH  25  47
BRANCH  27  51
HETATM   51  O5  UNL     1      22.901  27.234   1.063  1.00  0.00    -0.348 OA
ATOM     52  H5  UNL     1      22.500  28.068   0.848  1.00  0.00     0.219 HD
ENDBRANCH  27  51
ENDBRANCH   3   4
TORSDOF 13
ENDMDL