MODEL 2
REMARK VINA RESULT: -7.913686332      5.330     11.151
REMARK  14 active torsions:
REMARK  status: ('A' for Active; 'I' for Inactive)
REMARK    1  A    between atoms: C2_2  and  C3_3
REMARK    2  A    between atoms: C3_3  and  N1_4
REMARK    3  A    between atoms: N1_4  and  C4_5
REMARK    4  A    between atoms: C4_5  and  C5_6
REMARK    5  A    between atoms: C5_6  and  C6_7
REMARK    6  A    between atoms: C10_13  and  C11_14
REMARK    7  A    between atoms: C11_14  and  C12_15
REMARK    8  A    between atoms: C11_14  and  C14_17
REMARK    9  A    between atoms: C14_17  and  O2_18
REMARK   10  A    between atoms: C17_25  and  O3_26
REMARK   11  A    between atoms: C18_30  and  C19_31
REMARK   12  A    between atoms: C19_31  and  C20_32
REMARK   13  A    between atoms: C24_39  and  C25_40
REMARK   14  A    between atoms: C25_40  and  C26_41
ROOT
HETATM    1  C6  UNL     1      26.567  24.725   6.224  1.00  0.00     0.087 C
HETATM    2  C7  UNL     1      26.219  25.288   4.826  1.00  0.00     0.045 C
HETATM    3  C8  UNL     1      24.739  25.495   4.644  1.00  0.00     0.134 C
HETATM    4  N2  UNL     1      24.215  25.267   3.313  1.00  0.00    -0.314 N
HETATM    5  C9  UNL     1      24.974  25.931   2.253  1.00  0.00     0.255 C
HETATM    6  O1  UNL     1      26.204  26.109   2.429  1.00  0.00    -0.271 OA
HETATM    7  C10 UNL     1      24.400  26.418   0.991  1.00  0.00     0.284 C
HETATM    8  N3  UNL     1      22.974  25.960   0.944  1.00  0.00    -0.057 N
ATOM      9  H31 UNL     1      22.517  26.093   0.042  1.00  0.00     0.278 HD
ATOM     10  H32 UNL     1      22.326  26.540   1.477  1.00  0.00     0.278 HD
HETATM   11  C15 UNL     1      23.048  24.588   1.382  1.00  0.00     0.294 C
HETATM   12  C16 UNL     1      23.064  24.549   2.923  1.00  0.00     0.091 C
HETATM   13  C17 UNL     1      22.621  23.292   3.470  1.00  0.00     0.165 C
HETATM   14  N4  UNL     1      22.765  21.924   3.182  1.00  0.00    -0.331 N
ATOM     15  H4  UNL     1      21.926  21.497   2.788  1.00  0.00     0.168 HD
HETATM   16  C18 UNL     1      23.868  21.006   3.334  1.00  0.00     0.099 C
HETATM   17  C23 UNL     1      25.063  21.674   3.979  1.00  0.00     0.268 C
HETATM   18  O4  UNL     1      25.773  22.135   2.994  1.00  0.00    -0.266 OA
HETATM   19  N5  UNL     1      25.435  21.838   5.283  1.00  0.00    -0.342 N
ATOM     20  H5  UNL     1      24.917  22.607   5.708  1.00  0.00     0.163 HD
HETATM   21  C24 UNL     1      26.338  21.250   6.238  1.00  0.00     0.177 C
HETATM   22  C29 UNL     1      27.371  22.295   6.640  1.00  0.00     0.240 C
HETATM   23  O5  UNL     1      28.197  21.850   7.498  1.00  0.00    -0.271 OA
HETATM   24  N6  UNL     1      27.466  23.602   6.166  1.00  0.00    -0.355 N
ATOM     25  H6  UNL     1      28.342  23.802   5.684  1.00  0.00     0.162 HD
ENDROOT
BRANCH   1  26
HETATM   26  C5  UNL     1      27.372  25.850   6.934  1.00  0.00     0.053 C
BRANCH  26  27
HETATM   27  C4  UNL     1      26.464  26.833   7.582  1.00  0.00     0.240 C
BRANCH  27  28
HETATM   28  N1  UNL     1      27.046  28.162   7.337  1.00  0.00    -0.064 N
HETATM   29  C30 UNL     1      28.059  28.118   6.335  1.00  0.00     0.238 C
HETATM   30  C31 UNL     1      29.178  29.023   6.772  1.00  0.00     0.029 C
HETATM   31  C32 UNL     1      28.829  29.496   8.140  1.00  0.00     0.029 C
HETATM   32  C33 UNL     1      27.663  28.639   8.557  1.00  0.00     0.238 C
BRANCH  28  33
HETATM   33  C3  UNL     1      25.957  29.016   6.913  1.00  0.00     0.264 C
BRANCH  33  34
HETATM   34  C2  UNL     1      25.729  28.991   5.451  1.00  0.00    -0.009 C
HETATM   35  C1  UNL     1      24.526  29.157   4.956  1.00  0.00     0.008 C
ENDBRANCH  33  34
ENDBRANCH  28  33
ENDBRANCH  27  28
ENDBRANCH  26  27
ENDBRANCH   1  26
BRANCH  21  36
HETATM   36  C25 UNL     1      25.524  20.947   7.494  1.00  0.00     0.038 C
BRANCH  36  37
HETATM   37  C26 UNL     1      25.442  19.480   7.754  1.00  0.00    -0.020 C
HETATM   38  C27 UNL     1      23.975  19.062   7.845  1.00  0.00     0.009 C
HETATM   39  C28 UNL     1      26.129  19.021   8.998  1.00  0.00     0.009 C
ENDBRANCH  36  37
ENDBRANCH  21  36
BRANCH   7  40
HETATM   40  C11 UNL     1      24.958  26.037  -0.308  1.00  0.00     0.049 C
BRANCH  40  41
HETATM   41  C12 UNL     1      23.857  25.958  -1.360  1.00  0.00     0.005 C
HETATM   42  C13 UNL     1      24.237  25.718  -2.755  1.00  0.00     0.005 C
ENDBRANCH  40  41
BRANCH  40  43
HETATM   43  C14 UNL     1      26.065  26.813  -0.926  1.00  0.00     0.171 C
BRANCH  43  44
HETATM   44  O2  UNL     1      27.270  26.786  -0.275  1.00  0.00    -0.400 OA
ATOM     45  H2  UNL     1      28.020  26.492  -0.780  1.00  0.00     0.209 HD
ENDBRANCH  43  44
ENDBRANCH  40  43
ENDBRANCH   7  40
BRANCH  13  46
HETATM   46  O3  UNL     1      21.866  23.499   4.537  1.00  0.00    -0.345 OA
ATOM     47  H3  UNL     1      21.277  22.766   4.669  1.00  0.00     0.219 HD
ENDBRANCH  13  46
BRANCH  16  48
HETATM   48  C19 UNL     1      24.230  20.075   2.271  1.00  0.00     0.012 C
BRANCH  48  49
HETATM   49  C20 UNL     1      24.029  18.634   2.284  1.00  0.00     0.002 C
HETATM   50  C21 UNL     1      24.599  18.017   3.598  1.00  0.00     0.013 C
HETATM   51  C22 UNL     1      22.541  18.290   2.349  1.00  0.00     0.013 C
ENDBRANCH  48  49
ENDBRANCH  16  48
TORSDOF 14
ENDMDL