MODEL 4
REMARK VINA RESULT: -6.609269852      2.975      6.894
REMARK  12 active torsions:
REMARK  status: ('A' for Active; 'I' for Inactive)
REMARK    1  A    between atoms: C2_2  and  C3_3
REMARK       I    between atoms: N1_4  and  C4_6
REMARK    2  A    between atoms: C4_6  and  C5_8
REMARK    3  A    between atoms: C9_12  and  C10_13
REMARK       I    between atoms: C10_13  and  N2_15
REMARK    4  A    between atoms: N2_15  and  C11_17
REMARK    5  A    between atoms: C11_17  and  C12_18
REMARK    6  A    between atoms: C11_17  and  C16_26
REMARK    7  A    between atoms: C12_18  and  C13_19
REMARK    8  A    between atoms: C13_19  and  C14_20
REMARK    9  A    between atoms: C14_20  and  N3_21
REMARK   10  A    between atoms: N7_29  and  C17_30
REMARK   11  A    between atoms: C17_30  and  C18_34
REMARK       I    between atoms: N9_39  and  C23_40
REMARK       I    between atoms: C23_40  and  N10_42
REMARK   12  A    between atoms: N10_42  and  C24_44
ROOT
HETATM    1  C5  UNL     1      26.215  26.674   3.342  1.00  0.00     0.179 C
HETATM    2  C6  UNL     1      27.458  27.041   4.089  1.00  0.00     0.040 C
HETATM    3  C7  UNL     1      27.636  26.620   5.473  1.00  0.00    -0.001 C
HETATM    4  C8  UNL     1      26.387  26.173   6.201  1.00  0.00     0.027 C
HETATM    5  C9  UNL     1      25.342  25.613   5.351  1.00  0.00     0.183 C
HETATM    6  N7  UNL     1      25.051  26.415   4.143  1.00  0.00    -0.342 N
HETATM    7  C26 UNL     1      26.124  27.367   7.022  1.00  0.00     0.001 C
HETATM    8  C27 UNL     1      26.655  28.581   6.242  1.00  0.00     0.011 C
HETATM    9  C28 UNL     1      27.962  27.826   6.333  1.00  0.00    -0.001 C
HETATM   10  C29 UNL     1      27.484  27.500   7.738  1.00  0.00    -0.040 C
HETATM   11  C30 UNL     1      28.022  26.271   8.360  1.00  0.00     0.015 C
HETATM   12  C31 UNL     1      27.438  28.698   8.645  1.00  0.00     0.015 C
ENDROOT
BRANCH   5  13
HETATM   13  C10 UNL     1      25.688  24.237   4.910  1.00  0.00     0.241 C
HETATM   14  O2  UNL     1      26.832  23.734   5.229  1.00  0.00    -0.271 OA
HETATM   15  N2  UNL     1      24.873  23.380   4.156  1.00  0.00    -0.346 N
ATOM     16  H2  UNL     1      23.955  23.722   3.872  1.00  0.00     0.163 HD
BRANCH  15  17
HETATM   17  C11 UNL     1      25.253  22.032   3.752  1.00  0.00     0.173 C
BRANCH  17  18
HETATM   18  C12 UNL     1      24.235  21.027   4.286  1.00  0.00     0.036 C
BRANCH  18  19
HETATM   19  C13 UNL     1      24.863  19.915   5.061  1.00  0.00     0.022 C
BRANCH  19  20
HETATM   20  C14 UNL     1      26.153  20.382   5.743  1.00  0.00     0.122 C
BRANCH  20  21
HETATM   21  N3  UNL     1      25.881  21.137   6.929  1.00  0.00    -0.367 N
HETATM   22  C15 UNL     1      26.790  21.377   7.785  1.00  0.00     0.196 C
HETATM   23  N4  UNL     1      26.451  22.143   8.955  1.00  0.00    -0.067 NA
HETATM   24  N5  UNL     1      28.115  20.922   7.642  1.00  0.00    -0.067 NA
ATOM     25  H3  UNL     1      24.937  21.490   7.091  1.00  0.00     0.161 HD
ENDBRANCH  20  21
ENDBRANCH  19  20
ENDBRANCH  18  19
ENDBRANCH  17  18
BRANCH  17  26
HETATM   26  C16 UNL     1      25.315  21.950   2.291  1.00  0.00     0.254 C
HETATM   27  N6  UNL     1      24.937  23.034   1.451  1.00  0.00    -0.060 NA
HETATM   28  O3  UNL     1      25.724  20.870   1.744  1.00  0.00    -0.275 OA
ENDBRANCH  17  26
ENDBRANCH  15  17
ENDBRANCH   5  13
BRANCH   6  29
HETATM   29  C17 UNL     1      23.726  26.839   3.869  1.00  0.00     0.098 C
HETATM   30  N8  UNL     1      23.306  27.893   4.474  1.00  0.00    -0.387 N
ATOM     31  H82 UNL     1      23.972  28.353   5.096  1.00  0.00     0.157 HD
ATOM     32  H81 UNL     1      22.354  28.199   4.277  1.00  0.00     0.157 HD
BRANCH  29  33
HETATM   33  C18 UNL     1      22.770  26.179   2.975  1.00  0.00     0.156 C
HETATM   34  C19 UNL     1      21.710  25.357   3.661  1.00  0.00     0.033 C
HETATM   35  C20 UNL     1      20.502  26.086   4.100  1.00  0.00     0.004 C
HETATM   36  C21 UNL     1      20.284  27.463   3.619  1.00  0.00     0.020 C
HETATM   37  C22 UNL     1      21.097  27.936   2.472  1.00  0.00     0.128 C
HETATM   38  N9  UNL     1      22.105  27.019   2.024  1.00  0.00    -0.323 N
HETATM   39  C23 UNL     1      22.442  26.930   0.656  1.00  0.00     0.319 C
HETATM   40  O4  UNL     1      23.334  26.083   0.304  1.00  0.00    -0.247 OA
HETATM   41  N10 UNL     1      21.886  27.696  -0.388  1.00  0.00    -0.343 N
ATOM     42  H10 UNL     1      21.170  28.388  -0.162  1.00  0.00     0.164 HD
BRANCH  41  43
HETATM   43  C24 UNL     1      22.293  27.539  -1.775  1.00  0.00     0.120 C
HETATM   44  C25 UNL     1      22.917  28.786  -2.325  1.00  0.00     0.026 C
ENDBRANCH  41  43
ENDBRANCH  29  33
ENDBRANCH   6  29
BRANCH   1  45
HETATM   45  C4  UNL     1      26.056  27.681   2.277  1.00  0.00     0.244 C
HETATM   46  N1  UNL     1      26.161  27.253   0.933  1.00  0.00    -0.339 N
HETATM   47  C3  UNL     1      27.151  27.493   0.189  1.00  0.00     0.063 C
ATOM     48  H1  UNL     1      25.388  26.716   0.541  1.00  0.00     0.167 HD
HETATM   49  O1  UNL     1      25.836  28.861   2.525  1.00  0.00    -0.271 OA
BRANCH  47  50
HETATM   50  C2  UNL     1      27.300  27.067  -1.210  1.00  0.00     0.040 C
HETATM   51  C1  UNL     1      26.008  26.683  -1.857  1.00  0.00     0.010 C
ENDBRANCH  47  50
ENDBRANCH   1  45
TORSDOF 12
ENDMDL