MODEL 5
REMARK VINA RESULT: -7.673470473      3.915     12.102
REMARK  16 active torsions:
REMARK  status: ('A' for Active; 'I' for Inactive)
REMARK    1  A    between atoms: C2_2  and  C3_3
REMARK    2  A    between atoms: C3_3  and  C4_4
REMARK       I    between atoms: C4_4  and  N1_6
REMARK    3  A    between atoms: N1_6  and  C5_8
REMARK    4  A    between atoms: C5_8  and  C6_9
REMARK    5  A    between atoms: C6_9  and  C7_10
REMARK    6  A    between atoms: C7_10  and  C8_11
REMARK    7  A    between atoms: C8_11  and  C9_12
REMARK    8  A    between atoms: C13_18  and  C14_19
REMARK    9  A    between atoms: C15_20  and  N3_21
REMARK   10  A    between atoms: C16_23  and  C17_25
REMARK   11  A    between atoms: C17_25  and  C18_26
REMARK   12  A    between atoms: C18_26  and  C19_27
REMARK   13  A    between atoms: C19_27  and  N5_28
REMARK       I    between atoms: N7_37  and  C26_39
REMARK       I    between atoms: N9_41  and  C27_43
REMARK   14  A    between atoms: C27_43  and  C28_45
REMARK   15  A    between atoms: C28_45  and  N10_46
REMARK       I    between atoms: N10_46  and  C29_48
REMARK   16  A    between atoms: C29_48  and  C30_50
ROOT
HETATM    1  C9  UNL     1      24.167  24.946   3.751  1.00  0.00    -0.026 A
HETATM    2  C10 UNL     1      22.924  25.445   3.377  1.00  0.00     0.096 A
HETATM    3  N2  UNL     1      22.041  24.432   3.347  1.00  0.00    -0.364 N
ATOM      4  H2  UNL     1      21.055  24.524   3.104  1.00  0.00     0.165 HD
HETATM    5  C11 UNL     1      22.652  23.269   3.688  1.00  0.00     0.049 A
HETATM    6  C12 UNL     1      22.215  21.963   3.792  1.00  0.00     0.069 A
HETATM    7  C13 UNL     1      23.069  20.941   4.143  1.00  0.00     0.092 A
HETATM    8  N6  UNL     1      24.345  21.290   4.379  1.00  0.00    -0.335 N
ATOM      9  H6  UNL     1      25.003  20.556   4.642  1.00  0.00     0.168 HD
HETATM   10  C25 UNL     1      24.811  22.559   4.287  1.00  0.00     0.121 A
HETATM   11  N7  UNL     1      26.045  22.846   4.497  1.00  0.00    -0.316 N
ATOM     12  H7  UNL     1      26.382  23.806   4.427  1.00  0.00     0.170 HD
HETATM   13  C26 UNL     1      26.934  21.774   4.834  1.00  0.00     0.196 C
HETATM   14  N8  UNL     1      27.741  21.234   3.756  1.00  0.00    -0.063 NA
HETATM   15  N9  UNL     1      27.097  21.249   5.953  1.00  0.00    -0.300 N
ATOM     16  H9  UNL     1      27.790  20.500   5.936  1.00  0.00     0.171 HD
HETATM   17  C27 UNL     1      26.559  21.443   7.213  1.00  0.00     0.241 C
HETATM   18  O2  UNL     1      26.308  20.394   7.907  1.00  0.00    -0.271 OA
HETATM   19  C33 UNL     1      23.972  23.600   3.937  1.00  0.00     0.043 A
ENDROOT
BRANCH   7  20
HETATM   20  C14 UNL     1      22.621  19.570   4.244  1.00  0.00    -0.025 C
HETATM   21  C15 UNL     1      22.262  18.423   4.351  1.00  0.00     0.019 C
BRANCH  21  22
HETATM   22  N3  UNL     1      21.856  17.077   4.502  1.00  0.00    -0.296 N
HETATM   23  C16 UNL     1      21.247  16.754   5.592  1.00  0.00     0.178 C
HETATM   24  N4  UNL     1      21.004  17.724   6.588  1.00  0.00    -0.072 NA
ATOM     25  H3  UNL     1      22.038  16.386   3.774  1.00  0.00     0.178 HD
BRANCH  23  26
HETATM   26  C17 UNL     1      20.789  15.407   5.854  1.00  0.00    -0.031 C
BRANCH  26  27
HETATM   27  C18 UNL     1      20.428  14.273   6.074  1.00  0.00    -0.068 C
BRANCH  27  28
HETATM   28  C19 UNL     1      20.016  12.905   6.359  1.00  0.00     0.366 C
BRANCH  28  29
HETATM   29  N5  UNL     1      19.872  12.740   7.770  1.00  0.00     0.099 N
HETATM   30  C20 UNL     1      21.063  13.079   8.524  1.00  0.00     0.273 C
HETATM   31  C21 UNL     1      20.660  13.289   9.948  1.00  0.00     0.030 C
HETATM   32  C22 UNL     1      19.649  12.368  10.488  1.00  0.00     0.003 C
HETATM   33  C23 UNL     1      19.030  11.386   9.586  1.00  0.00     0.030 C
HETATM   34  C24 UNL     1      19.500  11.416   8.158  1.00  0.00     0.273 C
ENDBRANCH  28  29
ENDBRANCH  27  28
ENDBRANCH  26  27
ENDBRANCH  23  26
ENDBRANCH  21  22
ENDBRANCH   7  20
BRANCH   1  35
HETATM   35  C8  UNL     1      25.407  25.783   3.928  1.00  0.00     0.041 C
BRANCH  35  36
HETATM   36  C7  UNL     1      25.124  27.015   4.695  1.00  0.00     0.006 C
BRANCH  36  37
HETATM   37  C6  UNL     1      25.139  28.307   3.936  1.00  0.00     0.020 C
BRANCH  37  38
HETATM   38  C5  UNL     1      25.802  28.309   2.601  1.00  0.00     0.122 C
BRANCH  38  39
HETATM   39  N1  UNL     1      25.044  27.934   1.465  1.00  0.00    -0.361 N
HETATM   40  C4  UNL     1      25.543  27.038   0.496  1.00  0.00     0.221 C
HETATM   41  O1  UNL     1      26.683  26.548   0.628  1.00  0.00    -0.273 OA
ATOM     42  H1  UNL     1      24.109  28.324   1.344  1.00  0.00     0.162 HD
BRANCH  40  43
HETATM   43  C3  UNL     1      24.753  26.641  -0.705  1.00  0.00     0.129 C
BRANCH  43  44
HETATM   44  C2  UNL     1      23.669  25.697  -0.351  1.00  0.00    -0.028 C
HETATM   45  C1  UNL     1      23.969  24.471   0.034  1.00  0.00     0.007 C
ENDBRANCH  43  44
ENDBRANCH  40  43
ENDBRANCH  38  39
ENDBRANCH  37  38
ENDBRANCH  36  37
ENDBRANCH  35  36
ENDBRANCH   1  35
BRANCH  17  46
HETATM   46  C28 UNL     1      26.250  22.739   7.832  1.00  0.00     0.225 C
BRANCH  46  47
HETATM   47  N10 UNL     1      27.374  23.663   7.732  1.00  0.00    -0.352 N
HETATM   48  C29 UNL     1      27.130  25.039   7.602  1.00  0.00     0.222 C
HETATM   49  O3  UNL     1      25.944  25.461   7.575  1.00  0.00    -0.273 OA
ATOM     50  H10 UNL     1      28.331  23.311   7.756  1.00  0.00     0.162 HD
BRANCH  48  51
HETATM   51  C30 UNL     1      28.218  26.051   7.493  1.00  0.00     0.078 A
HETATM   52  C31 UNL     1      28.559  26.403   6.055  1.00  0.00     0.015 A
HETATM   53  C32 UNL     1      29.527  25.683   6.897  1.00  0.00     0.015 A
ENDBRANCH  48  51
ENDBRANCH  46  47
ENDBRANCH  17  46
TORSDOF 16
ENDMDL