MODEL 4
REMARK VINA RESULT: -9.048172170      1.232      1.433
REMARK  17 active torsions:
REMARK  status: ('A' for Active; 'I' for Inactive)
REMARK    1  A    between atoms: C6_6  and  S1_7
REMARK    2  A    between atoms: S1_7  and  N1_10
REMARK    3  A    between atoms: N1_10  and  C7_12
REMARK    4  A    between atoms: C7_12  and  C8_13
REMARK    5  A    between atoms: C7_12  and  C9_21
REMARK    6  A    between atoms: N2_14  and  N3_16
REMARK    7  A    between atoms: N3_16  and  N4_18
REMARK    8  A    between atoms: C9_21  and  C10_22
REMARK    9  A    between atoms: C15_32  and  C16_33
REMARK   10  A    between atoms: C16_33  and  C17_34
REMARK   11  A    between atoms: C17_34  and  N7_35
REMARK   12  A    between atoms: N7_35  and  C18_37
REMARK   13  A    between atoms: C20_41  and  C21_42
REMARK   14  A    between atoms: C21_42  and  C22_43
REMARK   15  A    between atoms: C23_44  and  C24_45
REMARK   16  A    between atoms: C28_51  and  N10_52
REMARK   17  A    between atoms: N10_52  and  C29_54
ROOT
HETATM    1  C1  UNL     1      17.569  30.063  14.415  1.00  0.00     0.049 C
HETATM    2  C2  UNL     1      17.734  31.293  15.258  1.00  0.00    -0.055 A
HETATM    3  C3  UNL     1      16.681  32.196  15.282  1.00  0.00     0.015 A
HETATM    4  C4  UNL     1      16.728  33.394  15.992  1.00  0.00    -0.038 A
HETATM    5  C5  UNL     1      15.590  34.338  15.986  1.00  0.00     0.050 C
HETATM    6  C6  UNL     1      17.849  33.687  16.689  1.00  0.00     0.086 A
HETATM    7  C14 UNL     1      18.913  32.808  16.684  1.00  0.00     0.033 A
HETATM    8  C15 UNL     1      18.862  31.599  15.966  1.00  0.00    -0.046 A
ENDROOT
BRANCH   6   9
HETATM    9  S1  UNL     1      18.008  35.136  17.613  1.00  0.00     0.260 S
HETATM   10  O1  UNL     1      18.994  34.814  18.742  1.00  0.00    -0.200 OA
HETATM   11  O2  UNL     1      16.732  35.476  18.312  1.00  0.00    -0.200 OA
BRANCH   9  12
HETATM   12  N1  UNL     1      18.672  36.450  16.770  1.00  0.00    -0.305 N
ATOM     13  H1  UNL     1      18.578  36.618  15.768  1.00  0.00     0.173 HD
BRANCH  12  14
HETATM   14  C7  UNL     1      19.401  37.302  17.710  1.00  0.00     0.138 C
BRANCH  14  15
HETATM   15  C8  UNL     1      18.951  38.726  17.543  1.00  0.00     0.107 C
HETATM   16  N2  UNL     1      17.936  39.124  18.193  1.00  0.00    -0.300 N
ATOM     17  H2  UNL     1      17.651  40.095  18.063  1.00  0.00     0.187 HD
BRANCH  16  18
HETATM   18  N3  UNL     1      17.179  38.350  19.070  1.00  0.00    -0.250 N
ATOM     19  H3  UNL     1      17.225  37.332  19.034  1.00  0.00     0.207 HD
BRANCH  18  20
HETATM   20  N4  UNL     1      16.421  38.941  19.925  1.00  0.00    -0.331 N
ATOM     21  H42 UNL     1      15.480  39.225  19.653  1.00  0.00     0.178 HD
ATOM     22  H41 UNL     1      16.780  39.115  20.864  1.00  0.00     0.178 HD
ENDBRANCH  18  20
ENDBRANCH  16  18
ENDBRANCH  14  15
BRANCH  14  23
HETATM   23  C9  UNL     1      20.869  37.283  17.481  1.00  0.00     0.090 C
BRANCH  23  24
HETATM   24  C10 UNL     1      21.408  36.042  16.906  1.00  0.00     0.038 A
HETATM   25  N5  UNL     1      21.209  35.631  15.644  1.00  0.00    -0.310 N
HETATM   26  C11 UNL     1      21.841  34.461  15.485  1.00  0.00     0.324 A
ATOM     27  H5  UNL     1      20.669  36.123  14.932  1.00  0.00     0.170 HD
HETATM   28  O3  UNL     1      21.871  33.781  14.425  1.00  0.00    -0.247 OA
HETATM   29  N6  UNL     1      22.437  34.127  16.628  1.00  0.00    -0.311 N
HETATM   30  C12 UNL     1      22.184  35.088  17.517  1.00  0.00     0.032 A
ATOM     31  H6  UNL     1      22.990  33.285  16.794  1.00  0.00     0.170 HD
HETATM   32  C13 UNL     1      22.657  35.154  18.950  1.00  0.00     0.070 C
ENDBRANCH  23  24
ENDBRANCH  14  23
ENDBRANCH  12  14
ENDBRANCH   9  12
ENDBRANCH   6   9
BRANCH   8  33
HETATM   33  C16 UNL     1      20.009  30.705  16.048  1.00  0.00     0.083 C
BRANCH  33  34
HETATM   34  C17 UNL     1      20.823  30.529  14.806  1.00  0.00     0.067 C
BRANCH  34  35
HETATM   35  N7  UNL     1      21.103  29.228  14.366  1.00  0.00    -0.353 N
ATOM     36  H7  UNL     1      20.451  28.486  14.622  1.00  0.00     0.166 HD
BRANCH  35  37
HETATM   37  C18 UNL     1      22.126  28.909  13.662  1.00  0.00     0.149 A
HETATM   38  N8  UNL     1      23.364  29.400  13.789  1.00  0.00    -0.347 N
HETATM   39  C19 UNL     1      24.408  29.007  12.994  1.00  0.00     0.115 A
ATOM     40  H8  UNL     1      23.539  30.099  14.510  1.00  0.00     0.167 HD
HETATM   41  C20 UNL     1      24.217  28.076  12.020  1.00  0.00     0.037 A
HETATM   42  N9  UNL     1      22.994  27.556  11.856  1.00  0.00    -0.341 N
HETATM   43  C28 UNL     1      21.983  27.949  12.638  1.00  0.00     0.146 A
ATOM     44  H9  UNL     1      22.833  26.858  11.131  1.00  0.00     0.167 HD
BRANCH  41  45
HETATM   45  C21 UNL     1      25.321  27.611  11.121  1.00  0.00     0.152 C
BRANCH  45  46
HETATM   46  C22 UNL     1      24.714  26.657  10.156  1.00  0.00    -0.100 C
HETATM   47  C23 UNL     1      24.218  25.906   9.359  1.00  0.00    -0.097 C
BRANCH  47  48
HETATM   48  C24 UNL     1      23.610  25.014   8.374  1.00  0.00     0.013 C
HETATM   49  C25 UNL     1      23.867  25.532   6.953  1.00  0.00     0.028 C
HETATM   50  C26 UNL     1      24.225  23.630   8.429  1.00  0.00     0.028 C
HETATM   51  C27 UNL     1      22.119  24.960   8.559  1.00  0.00     0.028 C
ENDBRANCH  47  48
ENDBRANCH  45  46
ENDBRANCH  41  45
BRANCH  43  52
HETATM   52  N10 UNL     1      20.831  27.443  12.471  1.00  0.00    -0.369 N
ATOM     53  H10 UNL     1      20.407  27.004  13.290  1.00  0.00     0.161 HD
BRANCH  52  54
HETATM   54  C29 UNL     1      20.059  27.418  11.267  1.00  0.00     0.075 C
HETATM   55  C30 UNL     1      19.493  26.001  11.136  1.00  0.00     0.031 C
HETATM   56  C31 UNL     1      18.860  28.350  11.452  1.00  0.00     0.031 C
ENDBRANCH  52  54
ENDBRANCH  43  52
ENDBRANCH  35  37
ENDBRANCH  34  35
ENDBRANCH  33  34
ENDBRANCH   8  33
TORSDOF 17
ENDMDL