MODEL 2
REMARK VINA RESULT: -8.425238367      3.586      6.284
REMARK  14 active torsions:
REMARK  status: ('A' for Active; 'I' for Inactive)
REMARK    1  A    between atoms: C3_3  and  C4_4
REMARK    2  A    between atoms: C5_5  and  C6_6
REMARK    3  A    between atoms: C7_7  and  C8_8
REMARK    4  A    between atoms: C10_12  and  C11_13
REMARK    5  A    between atoms: C11_13  and  C12_14
REMARK    6  A    between atoms: C12_14  and  N2_15
REMARK    7  A    between atoms: C12_14  and  C28_47
REMARK    8  A    between atoms: N2_15  and  C13_17
REMARK    9  A    between atoms: C13_17  and  C15_25
REMARK       I    between atoms: N3_18  and  C14_20
REMARK   10  A    between atoms: C15_25  and  C16_26
REMARK   11  A    between atoms: C15_25  and  C22_39
REMARK   12  A    between atoms: C16_26  and  C17_27
REMARK   13  A    between atoms: N6_30  and  S1_31
REMARK   14  A    between atoms: S1_31  and  N7_32
REMARK       I    between atoms: C22_39  and  N8_41
ROOT
HETATM    1  C1  UNL     1      24.949  42.217  13.524  1.00  0.00     0.097 C
HETATM    2  C2  UNL     1      24.228  41.999  14.488  1.00  0.00    -0.184 C
HETATM    3  C3  UNL     1      23.381  41.734  15.646  1.00  0.00     0.107 C
ENDROOT
BRANCH   3   4
HETATM    4  C4  UNL     1      23.027  40.294  15.672  1.00  0.00    -0.007 C
HETATM    5  C5  UNL     1      23.562  39.467  16.555  1.00  0.00     0.061 C
BRANCH   5   6
HETATM    6  C6  UNL     1      23.207  38.081  16.568  1.00  0.00    -0.073 C
HETATM    7  C7  UNL     1      22.900  36.919  16.555  1.00  0.00    -0.061 C
BRANCH   7   8
HETATM    8  C8  UNL     1      22.517  35.522  16.508  1.00  0.00     0.035 A
HETATM    9  C9  UNL     1      22.652  34.656  17.572  1.00  0.00     0.108 A
HETATM   10  N1  UNL     1      22.190  33.471  17.171  1.00  0.00    -0.368 N
HETATM   11  C10 UNL     1      21.753  33.490  15.902  1.00  0.00     0.012 A
ATOM     12  H1  UNL     1      22.171  32.641  17.763  1.00  0.00     0.165 HD
HETATM   13  C29 UNL     1      21.962  34.804  15.477  1.00  0.00     0.047 A
BRANCH  11  14
HETATM   14  C11 UNL     1      21.183  32.414  15.121  1.00  0.00     0.091 C
BRANCH  14  15
HETATM   15  C12 UNL     1      19.740  32.128  15.424  1.00  0.00     0.177 C
BRANCH  15  16
HETATM   16  N2  UNL     1      19.093  31.622  14.193  1.00  0.00    -0.366 N
ATOM     17  H2  UNL     1      19.012  32.226  13.375  1.00  0.00     0.161 HD
BRANCH  16  18
HETATM   18  C13 UNL     1      18.593  30.320  14.150  1.00  0.00     0.093 C
HETATM   19  N3  UNL     1      17.374  30.098  14.490  1.00  0.00    -0.320 N
HETATM   20  C14 UNL     1      16.481  31.085  14.910  1.00  0.00     0.187 C
ATOM     21  H3  UNL     1      17.037  29.137  14.449  1.00  0.00     0.169 HD
HETATM   22  N4  UNL     1      16.799  31.858  15.887  1.00  0.00    -0.373 N
HETATM   23  N5  UNL     1      15.230  31.234  14.265  1.00  0.00    -0.064 NA
ATOM     24  H42 UNL     1      17.700  31.751  16.352  1.00  0.00     0.158 HD
ATOM     25  H41 UNL     1      16.146  32.578  16.194  1.00  0.00     0.158 HD
BRANCH  18  26
HETATM   26  C15 UNL     1      19.454  29.222  13.691  1.00  0.00     0.146 C
BRANCH  26  27
HETATM   27  C16 UNL     1      20.740  29.042  14.376  1.00  0.00     0.027 C
BRANCH  27  28
HETATM   28  C17 UNL     1      21.976  28.713  13.669  1.00  0.00    -0.004 C
HETATM   29  C18 UNL     1      23.213  29.501  13.940  1.00  0.00     0.051 C
HETATM   30  C19 UNL     1      24.362  28.947  13.125  1.00  0.00     0.083 C
HETATM   31  N6  UNL     1      24.029  28.198  12.010  1.00  0.00    -0.253 N
HETATM   32  C20 UNL     1      22.760  28.216  11.431  1.00  0.00     0.083 C
HETATM   33  C21 UNL     1      21.714  28.985  12.165  1.00  0.00     0.051 C
BRANCH  31  34
HETATM   34  S1  UNL     1      25.176  27.132  11.381  1.00  0.00     0.321 S
HETATM   35  O1  UNL     1      25.237  27.293   9.887  1.00  0.00    -0.182 OA
HETATM   36  O2  UNL     1      24.876  25.741  11.796  1.00  0.00    -0.182 OA
BRANCH  34  37
HETATM   37  N7  UNL     1      26.733  27.543  12.057  1.00  0.00    -0.311 N
ATOM     38  H72 UNL     1      27.145  28.476  12.055  1.00  0.00     0.170 HD
ATOM     39  H71 UNL     1      27.145  26.695  12.447  1.00  0.00     0.170 HD
ENDBRANCH  34  37
ENDBRANCH  31  34
ENDBRANCH  27  28
ENDBRANCH  26  27
BRANCH  26  40
HETATM   40  C22 UNL     1      18.700  27.958  13.470  1.00  0.00     0.231 C
HETATM   41  O3  UNL     1      18.372  27.317  14.503  1.00  0.00    -0.273 OA
HETATM   42  N8  UNL     1      18.329  27.421  12.231  1.00  0.00    -0.351 N
HETATM   43  C23 UNL     1      17.625  26.162  12.166  1.00  0.00     0.125 C
HETATM   44  C27 UNL     1      18.609  28.100  10.993  1.00  0.00     0.125 C
HETATM   45  C24 UNL     1      18.163  25.252  11.082  1.00  0.00     0.020 C
HETATM   46  C25 UNL     1      19.521  25.797  10.680  1.00  0.00     0.003 C
HETATM   47  C26 UNL     1      19.289  27.164  10.026  1.00  0.00     0.020 C
ENDBRANCH  26  40
ENDBRANCH  18  26
ENDBRANCH  16  18
ENDBRANCH  15  16
BRANCH  15  48
HETATM   48  C28 UNL     1      19.032  33.353  15.859  1.00  0.00     0.254 C
HETATM   49  N9  UNL     1      18.925  33.772  17.200  1.00  0.00    -0.060 NA
HETATM   50  O4  UNL     1      18.479  34.060  14.951  1.00  0.00    -0.275 OA
ENDBRANCH  15  48
ENDBRANCH  14  15
ENDBRANCH  11  14
ENDBRANCH   7   8
ENDBRANCH   5   6
ENDBRANCH   3   4
TORSDOF 14
ENDMDL