MODEL 5
REMARK VINA RESULT: -9.059368565      2.423      7.057
REMARK  14 active torsions:
REMARK  status: ('A' for Active; 'I' for Inactive)
REMARK    1  A    between atoms: C2_2  and  C3_3
REMARK    2  A    between atoms: C3_3  and  C4_4
REMARK    3  A    between atoms: C4_4  and  C5_5
REMARK    4  A    between atoms: C5_5  and  C6_6
REMARK       I    between atoms: C6_6  and  N1_8
REMARK    5  A    between atoms: C9_11  and  C10_12
REMARK       I    between atoms: C10_12  and  N2_14
REMARK    6  A    between atoms: N2_14  and  C11_16
REMARK    7  A    between atoms: C13_18  and  C14_19
REMARK    8  A    between atoms: C18_27  and  C19_28
REMARK    9  A    between atoms: C19_28  and  N5_29
REMARK       I    between atoms: N5_29  and  C20_31
REMARK   10  A    between atoms: C20_31  and  C21_33
REMARK   11  A    between atoms: C21_33  and  C22_34
REMARK   12  A    between atoms: C22_34  and  N6_35
REMARK   13  A    between atoms: N6_35  and  C23_37
REMARK   14  A    between atoms: C25_39  and  C26_40
REMARK       I    between atoms: C26_40  and  N7_42
ROOT
HETATM    1  C6  UNL     1      17.777  33.243  14.973  1.00  0.00     0.220 C
HETATM    2  O1  UNL     1      17.491  34.064  14.070  1.00  0.00    -0.273 OA
HETATM    3  N1  UNL     1      18.950  32.467  14.798  1.00  0.00    -0.343 N
HETATM    4  C7  UNL     1      19.817  32.536  13.655  1.00  0.00     0.127 C
HETATM    5  C8  UNL     1      19.705  31.240  12.845  1.00  0.00     0.034 C
HETATM    6  C9  UNL     1      18.968  30.256  13.777  1.00  0.00     0.082 C
HETATM    7  C17 UNL     1      19.783  30.290  15.097  1.00  0.00     0.044 C
HETATM    8  C18 UNL     1      19.335  31.501  15.864  1.00  0.00     0.126 C
ENDROOT
BRANCH   8   9
HETATM    9  C19 UNL     1      20.334  32.145  16.741  1.00  0.00     0.089 C
BRANCH   9  10
HETATM   10  N5  UNL     1      21.462  32.736  16.145  1.00  0.00    -0.339 N
HETATM   11  C20 UNL     1      22.382  33.656  16.635  1.00  0.00     0.222 C
HETATM   12  O3  UNL     1      22.402  34.162  17.750  1.00  0.00    -0.273 OA
ATOM     13  H5  UNL     1      21.637  32.437  15.186  1.00  0.00     0.167 HD
BRANCH  11  14
HETATM   14  C21 UNL     1      23.496  34.096  15.698  1.00  0.00     0.122 C
BRANCH  14  15
HETATM   15  C22 UNL     1      22.895  35.155  14.789  1.00  0.00     0.130 C
BRANCH  15  16
HETATM   16  N6  UNL     1      21.969  35.991  15.490  1.00  0.00    -0.376 N
ATOM     17  H6  UNL     1      21.214  35.572  16.032  1.00  0.00     0.161 HD
BRANCH  16  18
HETATM   18  C23 UNL     1      22.088  37.270  15.435  1.00  0.00     0.102 A
HETATM   19  C24 UNL     1      22.171  37.987  16.605  1.00  0.00     0.065 A
HETATM   20  C25 UNL     1      22.306  39.374  16.589  1.00  0.00     0.044 A
HETATM   21  C28 UNL     1      22.354  39.996  15.363  1.00  0.00    -0.019 A
HETATM   22  C29 UNL     1      22.270  39.260  14.209  1.00  0.00     0.018 A
HETATM   23  C31 UNL     1      22.470  41.312  14.680  1.00  0.00     0.047 A
HETATM   24  N10 UNL     1      22.140  37.926  14.245  1.00  0.00    -0.346 N
HETATM   25  C30 UNL     1      22.390  40.507  13.408  1.00  0.00     0.062 A
ATOM     26  H10 UNL     1      22.080  37.400  13.373  1.00  0.00     0.167 HD
BRANCH  20  27
HETATM   27  C26 UNL     1      22.393  40.118  17.842  1.00  0.00     0.258 C
HETATM   28  O4  UNL     1      23.170  39.722  18.739  1.00  0.00    -0.267 OA
HETATM   29  N7  UNL     1      21.634  41.274  18.094  1.00  0.00    -0.299 N
HETATM   30  C27 UNL     1      20.538  41.315  18.748  1.00  0.00     0.203 C
ATOM     31  H7  UNL     1      21.989  42.155  17.723  1.00  0.00     0.171 HD
HETATM   32  N8  UNL     1      19.932  42.601  18.885  1.00  0.00    -0.066 NA
HETATM   33  N9  UNL     1      19.924  40.146  19.326  1.00  0.00    -0.066 NA
ENDBRANCH  20  27
ENDBRANCH  16  18
ENDBRANCH  15  16
ENDBRANCH  14  15
ENDBRANCH  11  14
ENDBRANCH   9  10
ENDBRANCH   8   9
BRANCH   1  34
HETATM   34  C5  UNL     1      16.924  33.088  16.173  1.00  0.00     0.103 C
BRANCH  34  35
HETATM   35  C4  UNL     1      15.645  33.876  15.934  1.00  0.00     0.013 C
BRANCH  35  36
HETATM   36  C3  UNL     1      15.251  34.644  17.178  1.00  0.00     0.027 C
BRANCH  36  37
HETATM   37  C2  UNL     1      16.292  35.654  17.461  1.00  0.00    -0.037 C
HETATM   38  C1  UNL     1      16.400  36.729  16.709  1.00  0.00     0.007 C
ENDBRANCH  36  37
ENDBRANCH  35  36
ENDBRANCH  34  35
ENDBRANCH   1  34
BRANCH   6  39
HETATM   39  C10 UNL     1      19.160  28.924  13.161  1.00  0.00     0.227 C
HETATM   40  O2  UNL     1      18.585  27.941  13.639  1.00  0.00    -0.273 OA
HETATM   41  N2  UNL     1      20.020  28.869  12.026  1.00  0.00    -0.312 N
ATOM     42  H2  UNL     1      19.923  29.576  11.298  1.00  0.00     0.170 HD
BRANCH  41  43
HETATM   43  C11 UNL     1      20.920  27.949  11.891  1.00  0.00     0.124 A
HETATM   44  C12 UNL     1      22.273  28.217  11.740  1.00  0.00     0.076 A
HETATM   45  C13 UNL     1      22.966  27.032  11.622  1.00  0.00     0.033 A
HETATM   46  N3  UNL     1      22.016  26.061  11.704  1.00  0.00    -0.303 N
HETATM   47  N4  UNL     1      20.821  26.615  11.862  1.00  0.00    -0.285 N
ATOM     48  H3  UNL     1      22.196  25.058  11.652  1.00  0.00     0.186 HD
ATOM     49  H4  UNL     1      19.947  26.096  11.949  1.00  0.00     0.188 HD
BRANCH  45  50
HETATM   50  C14 UNL     1      24.437  26.799  11.446  1.00  0.00     0.037 A
HETATM   51  C15 UNL     1      24.808  25.628  10.618  1.00  0.00     0.011 A
HETATM   52  C16 UNL     1      24.929  26.954   9.972  1.00  0.00     0.011 A
ENDBRANCH  45  50
ENDBRANCH  41  43
ENDBRANCH   6  39
TORSDOF 14
ENDMDL