MODEL 1
REMARK VINA RESULT: -5.810094486      0.000      0.000
REMARK  14 active torsions:
REMARK  status: ('A' for Active; 'I' for Inactive)
REMARK    1  A    between atoms: C2_2  and  N1_3
REMARK    2  A    between atoms: C4_6  and  C5_7
REMARK    3  A    between atoms: C5_7  and  C6_8
REMARK    4  A    between atoms: C9_13  and  O2_14
REMARK    5  A    between atoms: C13_21  and  O3_22
REMARK    6  A    between atoms: C18_31  and  C19_32
REMARK    7  A    between atoms: C19_32  and  C20_33
REMARK    8  A    between atoms: C20_33  and  C21_34
REMARK    9  A    between atoms: C21_34  and  N5_35
REMARK   10  A    between atoms: C23_42  and  O5_43
REMARK   11  A    between atoms: C24_45  and  C25_46
REMARK   12  A    between atoms: C25_46  and  C26_47
REMARK   13  A    between atoms: C26_47  and  C27_48
REMARK   14  A    between atoms: C27_48  and  N9_49
ROOT
HETATM    1  N1  UNL     1      17.854  40.790  18.913  1.00  0.00    -0.339 N
HETATM    2  C3  UNL     1      18.030  42.129  18.521  1.00  0.00     0.243 C
HETATM    3  O1  UNL     1      16.918  42.770  18.398  1.00  0.00    -0.271 OA
HETATM    4  C4  UNL     1      19.241  42.932  18.234  1.00  0.00     0.176 C
HETATM    5  N2  UNL     1      20.393  42.438  18.961  1.00  0.00    -0.359 N
ATOM      6  H2  UNL     1      20.535  41.435  18.842  1.00  0.00     0.162 HD
HETATM    7  C9  UNL     1      21.339  43.017  19.776  1.00  0.00     0.140 C
HETATM    8  C10 UNL     1      22.311  44.082  19.490  1.00  0.00     0.089 C
HETATM    9  C11 UNL     1      23.160  44.379  20.748  1.00  0.00     0.047 C
HETATM   10  C12 UNL     1      21.601  45.437  19.307  1.00  0.00     0.047 C
HETATM   11  N3  UNL     1      23.258  43.813  18.437  1.00  0.00    -0.356 N
ATOM     12  H3  UNL     1      23.361  44.598  17.794  1.00  0.00     0.162 HD
HETATM   13  C13 UNL     1      24.057  42.746  18.097  1.00  0.00     0.140 C
HETATM   14  C14 UNL     1      23.811  41.336  17.738  1.00  0.00     0.090 C
HETATM   15  C15 UNL     1      23.599  40.414  18.871  1.00  0.00     0.047 C
HETATM   16  C16 UNL     1      25.123  40.795  17.081  1.00  0.00     0.047 C
HETATM   17  N4  UNL     1      22.871  41.279  16.652  1.00  0.00    -0.343 N
ATOM     18  H4  UNL     1      22.708  42.184  16.211  1.00  0.00     0.163 HD
HETATM   19  C17 UNL     1      22.145  40.256  16.085  1.00  0.00     0.241 C
HETATM   20  O4  UNL     1      22.214  40.121  14.798  1.00  0.00    -0.271 OA
HETATM   21  C18 UNL     1      21.255  39.232  16.690  1.00  0.00     0.175 C
HETATM   22  N8  UNL     1      19.878  39.466  16.225  1.00  0.00    -0.359 N
ATOM     23  H8  UNL     1      19.771  39.595  15.219  1.00  0.00     0.162 HD
HETATM   24  C23 UNL     1      18.716  39.536  16.953  1.00  0.00     0.135 C
HETATM   25  C24 UNL     1      18.489  39.599  18.402  1.00  0.00     0.161 C
ENDROOT
BRANCH  21  26
HETATM   26  C19 UNL     1      21.605  37.881  16.040  1.00  0.00     0.036 C
BRANCH  26  27
HETATM   27  C20 UNL     1      22.657  37.133  16.782  1.00  0.00     0.022 C
BRANCH  27  28
HETATM   28  C21 UNL     1      23.330  36.104  15.892  1.00  0.00     0.122 C
BRANCH  28  29
HETATM   29  N5  UNL     1      22.359  35.348  15.132  1.00  0.00    -0.367 N
HETATM   30  C22 UNL     1      22.303  34.056  15.181  1.00  0.00     0.196 C
HETATM   31  N6  UNL     1      23.219  33.350  16.004  1.00  0.00    -0.067 NA
HETATM   32  N7  UNL     1      21.360  33.303  14.443  1.00  0.00    -0.067 NA
ATOM     33  H5  UNL     1      21.698  35.849  14.538  1.00  0.00     0.161 HD
ENDBRANCH  28  29
ENDBRANCH  27  28
ENDBRANCH  26  27
ENDBRANCH  21  26
BRANCH  24  34
HETATM   34  O5  UNL     1      17.613  39.548  16.263  1.00  0.00    -0.348 OA
ATOM     35  H5  UNL     1      16.990  38.861  16.466  1.00  0.00     0.219 HD
ENDBRANCH  24  34
BRANCH  25  36
HETATM   36  C25 UNL     1      17.599  38.346  18.650  1.00  0.00     0.035 C
BRANCH  36  37
HETATM   37  C26 UNL     1      18.288  37.139  18.050  1.00  0.00     0.030 C
BRANCH  37  38
HETATM   38  C27 UNL     1      17.597  35.838  18.279  1.00  0.00     0.236 C
BRANCH  38  39
HETATM   39  N9  UNL     1      17.064  35.224  17.111  1.00  0.00    -0.079 N
HETATM   40  C28 UNL     1      17.946  34.356  16.396  1.00  0.00     0.271 C
HETATM   41  C29 UNL     1      15.927  34.381  17.564  1.00  0.00     0.271 C
HETATM   42  C30 UNL     1      16.463  36.154  16.162  1.00  0.00     0.271 C
ENDBRANCH  38  39
ENDBRANCH  37  38
ENDBRANCH  36  37
ENDBRANCH  25  36
BRANCH  13  43
HETATM   43  O3  UNL     1      25.337  42.990  18.071  1.00  0.00    -0.348 OA
ATOM     44  H3  UNL     1      25.834  42.496  17.430  1.00  0.00     0.219 HD
ENDBRANCH  13  43
BRANCH   1  45
HETATM   45  C2  UNL     1      16.868  40.550  20.005  1.00  0.00     0.122 C
HETATM   46  C1  UNL     1      17.397  40.912  21.351  1.00  0.00     0.026 C
ENDBRANCH   1  45
BRANCH   4  47
HETATM   47  C5  UNL     1      19.533  43.274  16.826  1.00  0.00     0.038 C
BRANCH  47  48
HETATM   48  C6  UNL     1      19.473  44.682  16.381  1.00  0.00    -0.020 C
HETATM   49  C7  UNL     1      18.126  45.163  15.897  1.00  0.00     0.009 C
HETATM   50  C8  UNL     1      20.605  45.213  15.571  1.00  0.00     0.009 C
ENDBRANCH  47  48
ENDBRANCH   4  47
BRANCH   7  51
HETATM   51  O2  UNL     1      21.402  42.564  20.993  1.00  0.00    -0.348 OA
ATOM     52  H2  UNL     1      22.052  41.891  21.156  1.00  0.00     0.219 HD
ENDBRANCH   7  51
TORSDOF 14
ENDMDL