MODEL 5
REMARK VINA RESULT: -6.670660965      1.758      4.181
REMARK  11 active torsions:
REMARK  status: ('A' for Active; 'I' for Inactive)
REMARK    1  A    between atoms: C5_8  and  C6_9
REMARK    2  A    between atoms: C6_9  and  C7_10
REMARK    3  A    between atoms: C7_10  and  C8_11
REMARK    4  A    between atoms: C8_11  and  C9_12
REMARK    5  A    between atoms: C9_12  and  N3_13
REMARK    6  A    between atoms: C15_25  and  C16_26
REMARK    7  A    between atoms: N5_36  and  C26_37
REMARK    8  A    between atoms: C26_37  and  C27_38
REMARK    9  A    between atoms: C27_38  and  C28_39
REMARK   10  A    between atoms: C28_39  and  N6_40
REMARK   11  A    between atoms: N9_48  and  N10_50
ROOT
HETATM    1  C1  UNL     1      16.806  30.110  14.151  1.00  0.00     0.024 C
HETATM    2  C2  UNL     1      18.266  29.792  13.791  1.00  0.00     0.017 C
HETATM    3  C3  UNL     1      18.997  29.627  15.119  1.00  0.00     0.144 C
HETATM    4  N1  UNL     1      19.817  30.814  15.275  1.00  0.00    -0.312 N
HETATM    5  C4  UNL     1      19.457  31.599  16.448  1.00  0.00     0.322 C
HETATM    6  O1  UNL     1      18.931  30.982  17.374  1.00  0.00    -0.247 OA
HETATM    7  N2  UNL     1      19.778  33.030  16.343  1.00  0.00    -0.323 N
HETATM    8  C5  UNL     1      20.644  33.925  17.015  1.00  0.00     0.107 C
HETATM    9  C10 UNL     1      22.096  33.423  16.737  1.00  0.00     0.148 C
HETATM   10  N4  UNL     1      22.100  33.244  15.301  1.00  0.00    -0.357 N
ATOM     11  H4  UNL     1      22.647  33.966  14.831  1.00  0.00     0.162 HD
HETATM   12  C11 UNL     1      21.551  32.344  14.401  1.00  0.00     0.249 C
HETATM   13  O2  UNL     1      21.950  32.814  13.257  1.00  0.00    -0.271 OA
HETATM   14  C12 UNL     1      20.713  31.092  14.185  1.00  0.00     0.147 C
HETATM   15  C13 UNL     1      19.665  31.918  13.348  1.00  0.00     0.033 C
HETATM   16  C14 UNL     1      18.931  32.916  14.002  1.00  0.00     0.034 C
HETATM   17  C15 UNL     1      19.263  33.788  15.210  1.00  0.00     0.094 C
HETATM   18  C21 UNL     1      18.827  30.775  12.849  1.00  0.00     0.008 C
HETATM   19  C22 UNL     1      19.711  30.213  11.762  1.00  0.00     0.009 C
HETATM   20  C23 UNL     1      21.219  30.350  12.062  1.00  0.00     0.035 C
HETATM   21  C24 UNL     1      21.412  30.031  13.496  1.00  0.00     0.067 C
HETATM   22  C25 UNL     1      22.785  30.228  14.164  1.00  0.00     0.042 C
HETATM   23  N5  UNL     1      21.466  28.666  13.413  1.00  0.00    -0.361 N
HETATM   24  C30 UNL     1      20.513  27.708  13.141  1.00  0.00     0.070 C
HETATM   25  C31 UNL     1      19.147  27.494  13.476  1.00  0.00     0.099 C
HETATM   26  C32 UNL     1      18.169  28.497  13.074  1.00  0.00     0.020 C
HETATM   27  N9  UNL     1      17.235  28.325  12.167  1.00  0.00    -0.294 N
ATOM     28  H9  UNL     1      16.595  29.096  11.978  1.00  0.00     0.188 HD
ENDROOT
BRANCH   8  29
HETATM   29  C6  UNL     1      20.501  34.360  18.392  1.00  0.00     0.027 C
BRANCH  29  30
HETATM   30  C7  UNL     1      19.810  35.565  18.837  1.00  0.00     0.004 C
BRANCH  30  31
HETATM   31  C8  UNL     1      19.733  36.753  17.947  1.00  0.00     0.027 C
BRANCH  31  32
HETATM   32  C9  UNL     1      18.320  37.382  18.145  1.00  0.00     0.229 C
BRANCH  32  33
HETATM   33  N3  UNL     1      17.942  37.908  16.853  1.00  0.00    -0.079 N
ATOM     34  H33 UNL     1      18.354  38.818  16.645  1.00  0.00     0.274 HD
ATOM     35  H32 UNL     1      18.357  37.405  16.069  1.00  0.00     0.274 HD
ATOM     36  H31 UNL     1      16.921  37.910  16.844  1.00  0.00     0.274 HD
ENDBRANCH  32  33
ENDBRANCH  31  32
ENDBRANCH  30  31
ENDBRANCH  29  30
ENDBRANCH   8  29
BRANCH  17  37
HETATM   37  C16 UNL     1      18.000  34.569  15.438  1.00  0.00     0.009 C
HETATM   38  C17 UNL     1      17.176  34.353  16.607  1.00  0.00     0.007 C
HETATM   39  C18 UNL     1      15.789  34.832  16.213  1.00  0.00     0.000 C
HETATM   40  C19 UNL     1      15.852  35.171  14.750  1.00  0.00     0.000 C
HETATM   41  C20 UNL     1      17.069  34.440  14.211  1.00  0.00     0.007 C
ENDBRANCH  17  37
BRANCH  23  42
HETATM   42  C26 UNL     1      22.630  28.098  12.800  1.00  0.00     0.066 C
BRANCH  42  43
HETATM   43  C27 UNL     1      23.078  27.695  11.514  1.00  0.00     0.064 C
BRANCH  43  44
HETATM   44  C28 UNL     1      22.566  26.237  11.313  1.00  0.00     0.127 C
BRANCH  44  45
HETATM   45  N6  UNL     1      21.759  26.116  10.149  1.00  0.00    -0.367 N
HETATM   46  C29 UNL     1      20.728  25.382  10.119  1.00  0.00     0.196 C
HETATM   47  N7  UNL     1      19.962  25.296   8.944  1.00  0.00    -0.067 NA
HETATM   48  N8  UNL     1      20.330  24.636  11.278  1.00  0.00    -0.067 NA
ATOM     49  H6  UNL     1      22.020  26.637   9.312  1.00  0.00     0.161 HD
ENDBRANCH  44  45
ENDBRANCH  43  44
ENDBRANCH  42  43
ENDBRANCH  23  42
BRANCH  27  50
HETATM   50  N10 UNL     1      17.079  27.163  11.462  1.00  0.00    -0.249 N
HETATM   51  N11 UNL     1      17.514  27.071  10.281  1.00  0.00    -0.331 N
ATOM     52 2H11 UNL     1      17.981  27.876   9.865  1.00  0.00     0.178 HD
ATOM     53 1H11 UNL     1      17.397  26.205   9.756  1.00  0.00     0.178 HD
ATOM     54  H10 UNL     1      16.609  26.366  11.893  1.00  0.00     0.207 HD
ENDBRANCH  27  50
TORSDOF 11
ENDMDL