MODEL 4
REMARK VINA RESULT: -9.087495649      2.997      6.664
REMARK  12 active torsions:
REMARK  status: ('A' for Active; 'I' for Inactive)
REMARK    1  A    between atoms: C2_3  and  C3_4
REMARK       I    between atoms: C3_4  and  N2_6
REMARK    2  A    between atoms: N2_6  and  C4_8
REMARK    3  A    between atoms: C4_8  and  C5_9
REMARK    4  A    between atoms: C16_20  and  C17_21
REMARK       I    between atoms: C17_21  and  N3_23
REMARK    5  A    between atoms: N3_23  and  C18_25
REMARK    6  A    between atoms: C18_25  and  C19_26
REMARK    7  A    between atoms: C18_25  and  C23_34
REMARK    8  A    between atoms: C19_26  and  C20_27
REMARK    9  A    between atoms: C20_27  and  C21_28
REMARK   10  A    between atoms: C21_28  and  N4_29
REMARK       I    between atoms: C23_34  and  N7_36
REMARK   11  A    between atoms: C24_38  and  C25_39
REMARK   12  A    between atoms: C25_39  and  N8_40
REMARK       I    between atoms: N9_43  and  C28_44
ROOT
HETATM    1  C1  UNL     1      19.558  35.003  18.712  1.00  0.00     0.222 C
HETATM    2  N1  UNL     1      18.640  35.463  18.144  1.00  0.00    -0.450 NA
HETATM    3  C2  UNL     1      17.534  36.042  17.482  1.00  0.00     0.176 C
HETATM    4  C8  UNL     1      17.799  36.121  15.953  1.00  0.00     0.067 C
HETATM    5  C9  UNL     1      16.799  35.193  15.456  1.00  0.00    -0.015 A
HETATM    6  C10 UNL     1      15.672  35.735  16.275  1.00  0.00     0.020 C
HETATM    7  C11 UNL     1      16.256  35.315  17.627  1.00  0.00     0.042 C
HETATM    8  C12 UNL     1      16.152  33.846  17.567  1.00  0.00    -0.005 C
HETATM    9  C13 UNL     1      14.906  33.376  16.768  1.00  0.00     0.005 C
HETATM   10  C14 UNL     1      15.151  33.246  15.309  1.00  0.00     0.007 C
HETATM   11  C15 UNL     1      16.326  34.086  14.750  1.00  0.00     0.014 A
HETATM   12  C16 UNL     1      17.418  33.896  15.596  1.00  0.00     0.054 A
HETATM   13  C31 UNL     1      17.206  33.096  16.826  1.00  0.00     0.025 C
ENDROOT
BRANCH   3  14
HETATM   14  C3  UNL     1      17.335  37.437  17.966  1.00  0.00     0.260 C
HETATM   15  O1  UNL     1      16.723  37.799  18.992  1.00  0.00    -0.269 OA
HETATM   16  N2  UNL     1      17.883  38.516  17.212  1.00  0.00    -0.358 N
ATOM     17  H2  UNL     1      18.400  38.319  16.355  1.00  0.00     0.162 HD
BRANCH  16  18
HETATM   18  C4  UNL     1      17.713  39.914  17.654  1.00  0.00     0.126 C
BRANCH  18  19
HETATM   19  C5  UNL     1      16.563  40.563  16.930  1.00  0.00    -0.005 C
HETATM   20  C6  UNL     1      15.356  40.747  17.798  1.00  0.00     0.011 C
HETATM   21  C7  UNL     1      17.007  41.874  16.330  1.00  0.00     0.011 C
ENDBRANCH  18  19
ENDBRANCH  16  18
ENDBRANCH   3  14
BRANCH  12  22
HETATM   22  C17 UNL     1      18.742  33.657  14.965  1.00  0.00     0.228 C
HETATM   23  O2  UNL     1      18.899  33.334  13.758  1.00  0.00    -0.273 OA
HETATM   24  N3  UNL     1      19.975  33.784  15.715  1.00  0.00    -0.347 N
ATOM     25  H3  UNL     1      19.926  34.041  16.701  1.00  0.00     0.163 HD
BRANCH  24  26
HETATM   26  C18 UNL     1      21.262  33.562  15.125  1.00  0.00     0.177 C
BRANCH  26  27
HETATM   27  C19 UNL     1      22.233  34.681  15.172  1.00  0.00     0.036 C
BRANCH  27  28
HETATM   28  C20 UNL     1      21.964  35.840  16.037  1.00  0.00     0.022 C
BRANCH  28  29
HETATM   29  C21 UNL     1      22.763  37.069  15.782  1.00  0.00     0.122 C
BRANCH  29  30
HETATM   30  N4  UNL     1      21.844  38.140  15.361  1.00  0.00    -0.367 N
HETATM   31  C22 UNL     1      21.381  38.985  16.229  1.00  0.00     0.196 C
HETATM   32  N5  UNL     1      21.716  38.936  17.601  1.00  0.00    -0.067 NA
HETATM   33  N6  UNL     1      20.503  39.988  15.751  1.00  0.00    -0.067 NA
ATOM     34  H4  UNL     1      21.571  38.218  14.382  1.00  0.00     0.161 HD
ENDBRANCH  29  30
ENDBRANCH  28  29
ENDBRANCH  27  28
ENDBRANCH  26  27
BRANCH  26  35
HETATM   35  C23 UNL     1      21.954  32.401  15.833  1.00  0.00     0.244 C
HETATM   36  O3  UNL     1      22.185  32.529  17.089  1.00  0.00    -0.271 OA
HETATM   37  N7  UNL     1      22.354  31.229  15.236  1.00  0.00    -0.337 N
HETATM   38  C24 UNL     1      21.863  30.347  14.519  1.00  0.00     0.094 C
ATOM     39  H7  UNL     1      23.333  31.030  15.441  1.00  0.00     0.167 HD
BRANCH  38  40
HETATM   40  C25 UNL     1      20.497  30.209  13.973  1.00  0.00     0.317 C
BRANCH  40  41
HETATM   41  N8  UNL     1      20.454  29.296  12.835  1.00  0.00     0.096 N
HETATM   42  C26 UNL     1      21.564  28.397  12.933  1.00  0.00     0.292 C
HETATM   43  C27 UNL     1      21.645  27.414  11.807  1.00  0.00     0.156 C
HETATM   44  N9  UNL     1      20.363  27.119  11.194  1.00  0.00    -0.353 N
HETATM   45  C28 UNL     1      20.256  25.901  10.469  1.00  0.00     0.184 C
HETATM   46  C29 UNL     1      19.211  27.994  11.286  1.00  0.00     0.156 C
HETATM   47  N10 UNL     1      20.219  25.889   9.176  1.00  0.00    -0.374 N
HETATM   48  N11 UNL     1      20.190  24.655  11.149  1.00  0.00    -0.064 NA
ATOM     49 2H10 UNL     1      20.267  26.783   8.688  1.00  0.00     0.158 HD
ATOM     50 1H10 UNL     1      20.143  25.016   8.656  1.00  0.00     0.158 HD
HETATM   51  C30 UNL     1      19.230  28.583  12.702  1.00  0.00     0.292 C
ENDBRANCH  40  41
ENDBRANCH  38  40
ENDBRANCH  26  35
ENDBRANCH  24  26
ENDBRANCH  12  22
TORSDOF 12
ENDMDL