MODEL 3
REMARK VINA RESULT: -7.430459545      1.947      8.156
REMARK  12 active torsions:
REMARK  status: ('A' for Active; 'I' for Inactive)
REMARK    1  A    between atoms: C2_2  and  C3_3
REMARK    2  A    between atoms: C7_9  and  C8_10
REMARK    3  A    between atoms: C8_10  and  C9_11
REMARK    4  A    between atoms: C11_16  and  C12_17
REMARK    5  A    between atoms: C12_17  and  N3_18
REMARK    6  A    between atoms: C18_27  and  C19_28
REMARK    7  A    between atoms: C19_28  and  C20_29
REMARK    8  A    between atoms: C20_29  and  C21_30
REMARK    9  A    between atoms: C21_30  and  C22_31
REMARK   10  A    between atoms: C22_31  and  C23_32
REMARK   11  A    between atoms: C23_32  and  N5_33
REMARK   12  A    between atoms: C28_41  and  O3_42
ROOT
HETATM    1  C9  UNL     1      20.362  32.628  15.572  1.00  0.00     0.181 C
HETATM    2  N2  UNL     1      19.522  31.706  16.309  1.00  0.00    -0.346 N
ATOM      3  H2  UNL     1      19.960  31.194  17.076  1.00  0.00     0.163 HD
HETATM    4  C10 UNL     1      18.151  31.448  16.066  1.00  0.00     0.242 C
HETATM    5  O1  UNL     1      17.386  31.128  17.033  1.00  0.00    -0.271 OA
HETATM    6  C11 UNL     1      17.493  31.518  14.727  1.00  0.00     0.204 C
HETATM    7  N4  UNL     1      17.008  30.290  14.214  1.00  0.00    -0.344 N
ATOM      8  H4  UNL     1      16.148  29.958  14.651  1.00  0.00     0.163 HD
HETATM    9  C17 UNL     1      17.515  29.449  13.200  1.00  0.00     0.241 C
HETATM   10  O2  UNL     1      16.817  29.232  12.137  1.00  0.00    -0.271 OA
HETATM   11  C18 UNL     1      18.844  28.726  13.198  1.00  0.00     0.175 C
HETATM   12  N7  UNL     1      19.415  28.590  14.497  1.00  0.00    -0.359 N
ATOM     13  H7  UNL     1      18.742  28.272  15.194  1.00  0.00     0.162 HD
HETATM   14  C28 UNL     1      20.673  28.793  15.020  1.00  0.00     0.135 C
HETATM   15  C29 UNL     1      21.703  29.775  14.897  1.00  0.00     0.161 C
HETATM   16  C30 UNL     1      22.941  28.962  14.426  1.00  0.00     0.035 C
HETATM   17  C31 UNL     1      22.771  29.200  12.933  1.00  0.00     0.022 C
HETATM   18  C32 UNL     1      22.510  30.666  12.941  1.00  0.00     0.127 C
HETATM   19  N8  UNL     1      21.664  30.917  14.104  1.00  0.00    -0.338 N
HETATM   20  C33 UNL     1      20.971  32.137  14.353  1.00  0.00     0.243 C
HETATM   21  O4  UNL     1      20.899  32.887  13.316  1.00  0.00    -0.271 OA
ENDROOT
BRANCH  11  22
HETATM   22  C19 UNL     1      18.448  27.285  12.823  1.00  0.00     0.035 C
BRANCH  22  23
HETATM   23  C20 UNL     1      18.855  26.867  11.456  1.00  0.00     0.002 C
BRANCH  23  24
HETATM   24  C21 UNL     1      20.378  27.156  11.423  1.00  0.00     0.002 C
BRANCH  24  25
HETATM   25  C22 UNL     1      21.138  26.147  10.651  1.00  0.00     0.030 C
BRANCH  25  26
HETATM   26  C23 UNL     1      22.436  25.829  11.320  1.00  0.00     0.260 C
BRANCH  26  27
HETATM   27  N5  UNL     1      23.626  25.973  10.558  1.00  0.00     0.006 N
HETATM   28  C24 UNL     1      23.608  25.110   9.362  1.00  0.00     0.297 C
HETATM   29  C25 UNL     1      23.961  27.284  10.121  1.00  0.00     0.261 C
HETATM   30  C26 UNL     1      25.467  27.410  10.415  1.00  0.00     0.047 C
HETATM   31  C27 UNL     1      25.498  26.620  11.730  1.00  0.00     0.144 C
HETATM   32  N6  UNL     1      24.680  25.496  11.357  1.00  0.00    -0.047 NA
ENDBRANCH  26  27
ENDBRANCH  25  26
ENDBRANCH  24  25
ENDBRANCH  23  24
ENDBRANCH  22  23
ENDBRANCH  11  22
BRANCH  14  33
HETATM   33  O3  UNL     1      21.024  27.841  15.850  1.00  0.00    -0.348 OA
ATOM     34  H3  UNL     1      21.288  27.049  15.396  1.00  0.00     0.219 HD
ENDBRANCH  14  33
BRANCH   6  35
HETATM   35  C12 UNL     1      16.547  32.684  14.784  1.00  0.00     0.307 C
BRANCH  35  36
HETATM   36  N3  UNL     1      17.090  33.983  14.580  1.00  0.00     0.090 N
HETATM   37  C13 UNL     1      15.896  34.879  14.372  1.00  0.00     0.272 C
HETATM   38  C14 UNL     1      15.251  34.801  15.727  1.00  0.00     0.032 C
HETATM   39  C15 UNL     1      16.420  34.745  16.673  1.00  0.00     0.032 C
HETATM   40  C16 UNL     1      17.616  34.668  15.741  1.00  0.00     0.272 C
ENDBRANCH  35  36
ENDBRANCH   6  35
BRANCH   1  41
HETATM   41  C8  UNL     1      21.292  33.282  16.561  1.00  0.00     0.076 C
BRANCH  41  42
HETATM   42  C7  UNL     1      21.410  34.738  16.521  1.00  0.00    -0.026 A
HETATM   43  C3  UNL     1      22.179  35.508  15.695  1.00  0.00    -0.035 A
HETATM   44  C4  UNL     1      21.928  36.829  16.014  1.00  0.00     0.095 A
HETATM   45  N1  UNL     1      21.036  36.847  17.001  1.00  0.00    -0.368 N
HETATM   46  C5  UNL     1      20.689  35.611  17.345  1.00  0.00     0.012 A
ATOM     47  H1  UNL     1      20.669  37.694  17.435  1.00  0.00     0.165 HD
HETATM   48  C6  UNL     1      19.694  35.230  18.415  1.00  0.00     0.068 C
BRANCH  43  49
HETATM   49  C2  UNL     1      23.153  35.164  14.626  1.00  0.00     0.036 C
HETATM   50  C1  UNL     1      24.446  34.666  15.183  1.00  0.00     0.010 C
ENDBRANCH  43  49
ENDBRANCH  41  42
ENDBRANCH   1  41
TORSDOF 12
ENDMDL