MODEL 4
REMARK VINA RESULT: -8.218921661      2.950      5.091
REMARK  14 active torsions:
REMARK  status: ('A' for Active; 'I' for Inactive)
REMARK    1  A    between atoms: C2_2  and  C3_3
REMARK    2  A    between atoms: C3_3  and  N1_4
REMARK    3  A    between atoms: C6_8  and  C7_9
REMARK    4  A    between atoms: C7_9  and  C8_10
REMARK    5  A    between atoms: C17_26  and  O3_27
REMARK    6  A    between atoms: C18_31  and  C19_32
REMARK    7  A    between atoms: C19_32  and  C20_33
REMARK    8  A    between atoms: C24_40  and  C25_41
REMARK    9  A    between atoms: C25_41  and  C26_42
REMARK   10  A    between atoms: C26_42  and  C27_43
REMARK   11  A    between atoms: C27_43  and  C28_44
REMARK   12  A    between atoms: C28_44  and  C29_45
REMARK   13  A    between atoms: C29_45  and  C30_46
REMARK   14  A    between atoms: C31_49  and  O7_50
ROOT
HETATM    1  N1  UNL     1      18.112  40.375  18.984  1.00  0.00    -0.251 N
HETATM    2  C4  UNL     1      19.466  40.683  19.285  1.00  0.00     0.268 A
HETATM    3  O1  UNL     1      20.096  41.477  20.049  1.00  0.00    -0.269 OA
HETATM    4  C5  UNL     1      19.827  39.667  18.313  1.00  0.00     0.242 A
HETATM    5  C6  UNL     1      20.742  39.946  17.197  1.00  0.00     0.046 C
HETATM    6  C15 UNL     1      22.159  39.623  17.617  1.00  0.00     0.250 C
HETATM    7  O2  UNL     1      22.394  40.027  18.817  1.00  0.00    -0.268 OA
HETATM    8  N4  UNL     1      23.165  38.987  16.917  1.00  0.00    -0.350 N
ATOM      9  H4  UNL     1      24.000  39.544  16.733  1.00  0.00     0.163 HD
HETATM   10  C16 UNL     1      23.186  37.587  16.394  1.00  0.00     0.206 C
HETATM   11  C17 UNL     1      22.061  36.847  17.011  1.00  0.00     0.130 C
HETATM   12  N5  UNL     1      20.954  36.183  16.617  1.00  0.00    -0.360 N
ATOM     13  H5  UNL     1      20.330  36.846  16.156  1.00  0.00     0.162 HD
HETATM   14  C18 UNL     1      20.328  34.893  16.604  1.00  0.00     0.175 C
HETATM   15  C23 UNL     1      19.226  34.892  17.670  1.00  0.00     0.241 C
HETATM   16  O4  UNL     1      19.015  33.763  18.185  1.00  0.00    -0.271 OA
HETATM   17  N6  UNL     1      18.506  36.049  18.048  1.00  0.00    -0.347 N
ATOM     18  H6  UNL     1      18.575  36.292  19.036  1.00  0.00     0.163 HD
HETATM   19  C24 UNL     1      17.702  36.928  17.274  1.00  0.00     0.161 C
HETATM   20  C31 UNL     1      17.845  38.355  17.288  1.00  0.00     0.157 C
HETATM   21  N7  UNL     1      18.466  39.323  18.078  1.00  0.00    -0.249 N
ENDROOT
BRANCH   5  22
HETATM   22  C7  UNL     1      20.627  41.144  16.373  1.00  0.00     0.046 C
BRANCH  22  23
HETATM   23  C8  UNL     1      21.676  41.617  15.501  1.00  0.00     0.045 A
HETATM   24  N2  UNL     1      22.389  42.743  15.686  1.00  0.00    -0.357 N
HETATM   25  C9  UNL     1      23.262  42.888  14.686  1.00  0.00     0.033 A
ATOM     26  H2  UNL     1      22.279  43.387  16.469  1.00  0.00     0.166 HD
HETATM   27  C10 UNL     1      24.243  43.991  14.497  1.00  0.00     0.070 C
HETATM   28  C11 UNL     1      23.140  41.843  13.807  1.00  0.00     0.067 A
HETATM   29  N3  UNL     1      23.554  41.257  12.660  1.00  0.00    -0.364 N
HETATM   30  C14 UNL     1      22.143  41.057  14.332  1.00  0.00     0.021 A
HETATM   31  C12 UNL     1      22.848  40.134  12.455  1.00  0.00     0.089 A
ATOM     32  H3  UNL     1      24.288  41.612  12.048  1.00  0.00     0.165 HD
HETATM   33  C13 UNL     1      21.946  39.963  13.477  1.00  0.00     0.033 A
ENDBRANCH  22  23
ENDBRANCH   5  22
BRANCH   1  34
HETATM   34  C3  UNL     1      16.911  41.009  19.517  1.00  0.00     0.179 C
BRANCH  34  35
HETATM   35  C2  UNL     1      15.681  40.700  18.814  1.00  0.00    -0.015 C
HETATM   36  C1  UNL     1      15.322  41.397  17.757  1.00  0.00     0.008 C
ENDBRANCH  34  35
ENDBRANCH   1  34
BRANCH  20  37
HETATM   37  O7  UNL     1      17.212  38.906  16.270  1.00  0.00    -0.347 OA
ATOM     38  H7  UNL     1      17.766  39.536  15.824  1.00  0.00     0.219 HD
ENDBRANCH  20  37
BRANCH  19  39
HETATM   39  C25 UNL     1      16.265  36.539  17.659  1.00  0.00     0.034 C
BRANCH  39  40
HETATM   40  C26 UNL     1      15.570  35.606  16.778  1.00  0.00     0.002 C
BRANCH  40  41
HETATM   41  C27 UNL     1      16.259  35.580  15.416  1.00  0.00     0.001 C
BRANCH  41  42
HETATM   42  C28 UNL     1      16.065  34.264  14.764  1.00  0.00     0.010 C
BRANCH  42  43
HETATM   43  C29 UNL     1      16.492  33.095  15.639  1.00  0.00     0.113 C
BRANCH  43  44
HETATM   44  C30 UNL     1      17.763  32.499  15.215  1.00  0.00     0.172 C
HETATM   45  O5  UNL     1      18.219  31.489  15.796  1.00  0.00    -0.648 OA
HETATM   46  O6  UNL     1      18.481  33.046  14.169  1.00  0.00    -0.648 OA
ENDBRANCH  43  44
ENDBRANCH  42  43
ENDBRANCH  41  42
ENDBRANCH  40  41
ENDBRANCH  39  40
ENDBRANCH  19  39
BRANCH  11  47
HETATM   47  O3  UNL     1      22.321  36.934  18.308  1.00  0.00    -0.348 OA
ATOM     48  H3  UNL     1      22.568  36.046  18.536  1.00  0.00     0.219 HD
ENDBRANCH  11  47
BRANCH  14  49
HETATM   49  C19 UNL     1      21.203  33.700  16.728  1.00  0.00     0.038 C
BRANCH  49  50
HETATM   50  C20 UNL     1      21.932  33.358  15.464  1.00  0.00    -0.020 C
HETATM   51  C21 UNL     1      23.403  33.724  15.686  1.00  0.00     0.009 C
HETATM   52  C22 UNL     1      21.893  31.904  15.108  1.00  0.00     0.009 C
ENDBRANCH  49  50
ENDBRANCH  14  49
TORSDOF 14
ENDMDL