MODEL 2
REMARK VINA RESULT: -6.983107086      9.089     15.671
REMARK  12 active torsions:
REMARK  status: ('A' for Active; 'I' for Inactive)
REMARK    1  A    between atoms: C3_3  and  C4_4
REMARK    2  A    between atoms: C6_6  and  C7_7
REMARK    3  A    between atoms: C7_7  and  C8_8
REMARK    4  A    between atoms: C12_18  and  C13_19
REMARK    5  A    between atoms: C13_19  and  C14_20
REMARK    6  A    between atoms: C14_20  and  C15_21
REMARK    7  A    between atoms: C15_21  and  N3_22
REMARK    8  A    between atoms: C19_31  and  C20_32
REMARK    9  A    between atoms: C20_32  and  C21_33
REMARK   10  A    between atoms: C24_36  and  O3_37
REMARK   11  A    between atoms: C25_41  and  C26_42
REMARK   12  A    between atoms: C26_42  and  C27_43
ROOT
HETATM    1  C1  UNL     1      22.290  28.840  13.626  1.00  0.00     0.012 C
HETATM    2  C2  UNL     1      21.505  28.994  14.515  1.00  0.00    -0.111 C
HETATM    3  C3  UNL     1      20.532  29.191  15.590  1.00  0.00     0.150 C
ENDROOT
BRANCH   3   4
HETATM    4  C4  UNL     1      20.532  30.662  15.918  1.00  0.00     0.020 A
HETATM    5  C5  UNL     1      19.680  31.607  15.392  1.00  0.00     0.034 A
HETATM    6  C6  UNL     1      20.037  32.822  15.971  1.00  0.00    -0.037 A
HETATM    7  C32 UNL     1      21.073  32.545  16.806  1.00  0.00     0.095 A
HETATM    8  N9  UNL     1      21.372  31.253  16.777  1.00  0.00    -0.368 N
ATOM      9  H9  UNL     1      22.110  30.794  17.312  1.00  0.00     0.165 HD
BRANCH   6  10
HETATM   10  C7  UNL     1      19.330  34.060  15.661  1.00  0.00     0.094 C
BRANCH  10  11
HETATM   11  C8  UNL     1      19.047  35.008  16.774  1.00  0.00     0.293 C
HETATM   12  N1  UNL     1      19.962  36.091  16.741  1.00  0.00    -0.041 N
HETATM   13  C9  UNL     1      21.132  35.822  17.541  1.00  0.00     0.275 C
ATOM     14  H12 UNL     1      20.213  36.338  15.784  1.00  0.00     0.280 HD
ATOM     15  H11 UNL     1      19.514  36.964  17.018  1.00  0.00     0.280 HD
HETATM   16  C10 UNL     1      20.814  35.835  19.040  1.00  0.00     0.050 C
HETATM   17  C11 UNL     1      22.278  36.707  17.317  1.00  0.00     0.248 C
HETATM   18  O1  UNL     1      23.128  36.698  18.299  1.00  0.00    -0.271 OA
HETATM   19  N2  UNL     1      22.613  37.539  16.259  1.00  0.00    -0.346 N
HETATM   20  C12 UNL     1      21.915  38.660  15.694  1.00  0.00     0.177 C
ATOM     21  H2  UNL     1      23.501  37.318  15.808  1.00  0.00     0.163 HD
HETATM   22  C17 UNL     1      22.076  39.922  16.505  1.00  0.00     0.246 C
HETATM   23  O2  UNL     1      23.287  40.171  16.764  1.00  0.00    -0.271 OA
HETATM   24  N6  UNL     1      21.040  40.769  16.951  1.00  0.00    -0.320 N
HETATM   25  C18 UNL     1      21.241  42.198  16.602  1.00  0.00     0.159 C
HETATM   26  C19 UNL     1      19.837  40.410  17.669  1.00  0.00     0.065 C
HETATM   27  C24 UNL     1      18.825  39.793  16.795  1.00  0.00     0.160 C
HETATM   28  N7  UNL     1      18.141  38.608  16.743  1.00  0.00    -0.356 N
HETATM   29  C25 UNL     1      17.530  37.793  17.800  1.00  0.00     0.176 C
ATOM     30  H7  UNL     1      18.038  38.224  15.804  1.00  0.00     0.162 HD
HETATM   31  C30 UNL     1      17.032  36.555  17.097  1.00  0.00     0.243 C
HETATM   32  O4  UNL     1      15.883  36.690  16.553  1.00  0.00    -0.271 OA
HETATM   33  N8  UNL     1      17.648  35.325  16.967  1.00  0.00    -0.326 N
HETATM   34  C31 UNL     1      16.781  34.129  17.013  1.00  0.00     0.155 C
BRANCH  20  35
HETATM   35  C13 UNL     1      22.295  38.894  14.245  1.00  0.00     0.036 C
BRANCH  35  36
HETATM   36  C14 UNL     1      21.772  40.124  13.617  1.00  0.00     0.022 C
BRANCH  36  37
HETATM   37  C15 UNL     1      22.816  40.693  12.646  1.00  0.00     0.122 C
BRANCH  37  38
HETATM   38  N3  UNL     1      22.935  39.844  11.466  1.00  0.00    -0.367 N
HETATM   39  C16 UNL     1      23.908  39.962  10.633  1.00  0.00     0.196 C
HETATM   40  N4  UNL     1      24.914  40.934  10.834  1.00  0.00    -0.067 NA
HETATM   41  N5  UNL     1      23.920  39.077   9.521  1.00  0.00    -0.067 NA
ATOM     42  H3  UNL     1      22.224  39.134  11.296  1.00  0.00     0.161 HD
ENDBRANCH  37  38
ENDBRANCH  36  37
ENDBRANCH  35  36
ENDBRANCH  20  35
BRANCH  26  43
HETATM   43  C20 UNL     1      19.998  39.890  19.041  1.00  0.00     0.065 C
BRANCH  43  44
HETATM   44  C21 UNL     1      20.145  40.826  20.175  1.00  0.00    -0.017 C
HETATM   45  C22 UNL     1      19.107  41.914  20.282  1.00  0.00     0.010 C
HETATM   46  C23 UNL     1      21.491  41.414  20.437  1.00  0.00     0.010 C
ENDBRANCH  43  44
ENDBRANCH  26  43
BRANCH  27  47
HETATM   47  O3  UNL     1      18.518  40.613  15.818  1.00  0.00    -0.345 OA
ATOM     48  H3  UNL     1      17.978  40.166  15.177  1.00  0.00     0.219 HD
ENDBRANCH  27  47
BRANCH  29  49
HETATM   49  C26 UNL     1      16.341  38.514  18.361  1.00  0.00     0.038 C
BRANCH  49  50
HETATM   50  C27 UNL     1      16.506  39.691  19.213  1.00  0.00    -0.020 C
HETATM   51  C28 UNL     1      15.805  40.899  18.566  1.00  0.00     0.009 C
HETATM   52  C29 UNL     1      16.270  39.645  20.667  1.00  0.00     0.009 C
ENDBRANCH  49  50
ENDBRANCH  29  49
ENDBRANCH  10  11
ENDBRANCH   6  10
ENDBRANCH   3   4
TORSDOF 12
ENDMDL