MODEL 3
REMARK VINA RESULT: -9.710421455      2.192      3.531
REMARK  15 active torsions:
REMARK  status: ('A' for Active; 'I' for Inactive)
REMARK    1  A    between atoms: C2_2  and  C3_3
REMARK    2  A    between atoms: C3_3  and  C4_4
REMARK    3  A    between atoms: N2_9  and  C6_10
REMARK    4  A    between atoms: C6_10  and  O2_11
REMARK    5  A    between atoms: C6_10  and  N3_13
REMARK       I    between atoms: N4_16  and  C9_17
REMARK    6  A    between atoms: C9_17  and  C10_19
REMARK    7  A    between atoms: C10_19  and  C11_20
REMARK    8  A    between atoms: C11_20  and  C12_21
REMARK    9  A    between atoms: C12_21  and  C13_22
REMARK   10  A    between atoms: C13_22  and  C14_23
REMARK   11  A    between atoms: C14_23  and  N5_24
REMARK   12  A    between atoms: S1_33  and  C20_34
REMARK   13  A    between atoms: C20_34  and  C21_35
REMARK   14  A    between atoms: C21_35  and  C22_36
REMARK   15  A    between atoms: C26_40  and  N8_41
ROOT
HETATM    1  C4  UNL     1      17.334  30.375  14.869  1.00  0.00     0.166 C
HETATM    2  N1  UNL     1      17.916  31.079  16.029  1.00  0.00    -0.330 N
ATOM      3  H1  UNL     1      17.590  30.761  16.941  1.00  0.00     0.165 HD
HETATM    4  C5  UNL     1      18.882  32.156  16.060  1.00  0.00     0.326 C
HETATM    5  O1  UNL     1      18.709  32.882  17.067  1.00  0.00    -0.247 OA
HETATM    6  N2  UNL     1      19.937  32.548  15.220  1.00  0.00    -0.265 N
HETATM    7  C18 UNL     1      19.944  32.742  13.754  1.00  0.00     0.147 C
HETATM    8  C19 UNL     1      20.577  31.524  13.145  1.00  0.00     0.091 C
HETATM    9  S1  UNL     1      19.335  30.330  12.633  1.00  0.00    -0.147 SA
HETATM   10  C29 UNL     1      18.343  29.802  13.978  1.00  0.00     0.199 C
HETATM   11  O4  UNL     1      18.535  28.611  14.270  1.00  0.00    -0.284 OA
ENDROOT
BRANCH   6  12
HETATM   12  C6  UNL     1      21.142  32.884  15.809  1.00  0.00     0.225 C
BRANCH  12  13
HETATM   13  O2  UNL     1      21.756  31.831  16.397  1.00  0.00    -0.332 OA
ATOM     14  H2  UNL     1      22.128  31.221  15.771  1.00  0.00     0.221 HD
ENDBRANCH  12  13
BRANCH  12  15
HETATM   15  N3  UNL     1      21.900  34.042  15.966  1.00  0.00    -0.344 N
HETATM   16  C7  UNL     1      22.017  34.547  17.353  1.00  0.00     0.146 C
HETATM   17  C8  UNL     1      23.112  35.578  17.387  1.00  0.00     0.145 C
HETATM   18  N4  UNL     1      22.737  36.655  16.507  1.00  0.00    -0.349 N
HETATM   19  C9  UNL     1      22.699  37.990  16.961  1.00  0.00     0.219 C
HETATM   20  C16 UNL     1      22.377  36.333  15.153  1.00  0.00     0.145 C
HETATM   21  O3  UNL     1      22.993  38.158  18.192  1.00  0.00    -0.273 OA
HETATM   22  C17 UNL     1      22.478  34.815  14.917  1.00  0.00     0.146 C
BRANCH  19  23
HETATM   23  C10 UNL     1      22.339  39.069  16.038  1.00  0.00     0.103 C
BRANCH  23  24
HETATM   24  C11 UNL     1      21.269  39.941  16.568  1.00  0.00     0.009 C
BRANCH  24  25
HETATM   25  C12 UNL     1      19.924  39.325  16.664  1.00  0.00     0.002 C
BRANCH  25  26
HETATM   26  C13 UNL     1      19.378  39.318  18.101  1.00  0.00     0.020 C
BRANCH  26  27
HETATM   27  C14 UNL     1      17.887  39.052  17.992  1.00  0.00     0.122 C
BRANCH  27  28
HETATM   28  N5  UNL     1      17.584  37.757  18.567  1.00  0.00    -0.367 N
HETATM   29  C15 UNL     1      17.009  36.814  17.919  1.00  0.00     0.196 C
HETATM   30  N6  UNL     1      16.752  35.581  18.556  1.00  0.00    -0.067 NA
HETATM   31  N7  UNL     1      16.635  36.994  16.570  1.00  0.00    -0.067 NA
ATOM     32  H5  UNL     1      17.841  37.588  19.539  1.00  0.00     0.161 HD
ENDBRANCH  27  28
ENDBRANCH  26  27
ENDBRANCH  25  26
ENDBRANCH  24  25
ENDBRANCH  23  24
ENDBRANCH  19  23
ENDBRANCH  12  15
ENDBRANCH   6  12
BRANCH   1  33
HETATM   33  C3  UNL     1      16.355  31.319  14.234  1.00  0.00     0.033 C
BRANCH  33  34
HETATM   34  C2  UNL     1      15.574  32.160  15.191  1.00  0.00    -0.002 C
HETATM   35  C1  UNL     1      15.627  33.632  14.817  1.00  0.00     0.005 C
ENDBRANCH  33  34
ENDBRANCH   1  33
BRANCH   9  36
HETATM   36  C20 UNL     1      20.267  28.953  11.985  1.00  0.00     0.076 C
BRANCH  36  37
HETATM   37  C21 UNL     1      21.098  28.196  12.918  1.00  0.00     0.048 C
BRANCH  37  38
HETATM   38  C22 UNL     1      22.522  28.036  12.606  1.00  0.00    -0.055 A
HETATM   39  C23 UNL     1      23.486  28.821  13.175  1.00  0.00     0.008 A
HETATM   40  C24 UNL     1      24.833  28.625  12.846  1.00  0.00     0.018 A
HETATM   41  C25 UNL     1      25.227  27.647  11.950  1.00  0.00     0.037 A
HETATM   42  C26 UNL     1      26.437  27.224  11.442  1.00  0.00     0.126 A
HETATM   43  C27 UNL     1      24.265  26.851  11.373  1.00  0.00     0.062 A
HETATM   44  N9  UNL     1      26.200  26.205  10.586  1.00  0.00    -0.285 N
HETATM   45  N10 UNL     1      24.902  25.982  10.545  1.00  0.00    -0.298 N
ATOM     46  H9  UNL     1      26.908  25.693  10.060  1.00  0.00     0.188 HD
ATOM     47  H10 UNL     1      24.445  25.267   9.978  1.00  0.00     0.187 HD
HETATM   48  C28 UNL     1      22.948  27.059  11.707  1.00  0.00     0.039 A
BRANCH  42  49
HETATM   49  N8  UNL     1      27.600  27.705  11.723  1.00  0.00    -0.384 N
ATOM     50  H82 UNL     1      27.813  28.693  11.854  1.00  0.00     0.157 HD
ATOM     51  H81 UNL     1      28.463  27.175  11.854  1.00  0.00     0.157 HD
ENDBRANCH  42  49
ENDBRANCH  37  38
ENDBRANCH  36  37
ENDBRANCH   9  36
TORSDOF 15
ENDMDL