MODEL 2
REMARK VINA RESULT: -6.933854449      2.658      8.643
REMARK  11 active torsions:
REMARK  status: ('A' for Active; 'I' for Inactive)
REMARK    1  A    between atoms: C2_2  and  N1_3
REMARK    2  A    between atoms: N1_3  and  C3_4
REMARK    3  A    between atoms: N2_10  and  C9_11
REMARK    4  A    between atoms: C9_11  and  C10_12
REMARK       I    between atoms: C10_12  and  N3_14
REMARK    5  A    between atoms: C16_21  and  C17_22
REMARK    6  A    between atoms: C17_22  and  C18_23
REMARK    7  A    between atoms: C22_30  and  C23_31
REMARK    8  A    between atoms: C23_31  and  C24_32
REMARK    9  A    between atoms: C24_32  and  C25_33
REMARK   10  A    between atoms: C25_33  and  C26_34
REMARK   11  A    between atoms: C26_34  and  N5_35
REMARK       I    between atoms: N5_35  and  C27_37
ROOT
HETATM    1  N1  UNL     1      27.799  26.916   5.111  1.00  0.00     0.021 N
HETATM    2  C5  UNL     1      27.570  26.070   6.290  1.00  0.00     0.265 C
HETATM    3  C6  UNL     1      27.732  24.625   5.980  1.00  0.00     0.032 C
HETATM    4  C7  UNL     1      27.001  23.752   6.980  1.00  0.00     0.022 C
HETATM    5  C8  UNL     1      25.815  23.062   6.326  1.00  0.00     0.126 C
HETATM    6  N2  UNL     1      26.238  22.140   5.291  1.00  0.00    -0.342 N
HETATM    7  C15 UNL     1      26.119  22.293   3.914  1.00  0.00     0.243 C
HETATM    8  O2  UNL     1      27.143  21.937   3.222  1.00  0.00    -0.271 OA
HETATM    9  C16 UNL     1      25.004  22.803   3.090  1.00  0.00     0.177 C
HETATM   10  N4  UNL     1      23.853  23.236   3.806  1.00  0.00    -0.346 N
ATOM     11  H4  UNL     1      23.447  22.554   4.447  1.00  0.00     0.163 HD
HETATM   12  C21 UNL     1      23.191  24.501   3.743  1.00  0.00     0.241 C
HETATM   13  O3  UNL     1      21.953  24.414   3.538  1.00  0.00    -0.271 OA
HETATM   14  C22 UNL     1      23.857  25.807   3.899  1.00  0.00     0.186 C
HETATM   15  N8  UNL     1      24.762  25.966   2.787  1.00  0.00    -0.288 N
ATOM     16  H8  UNL     1      24.633  25.480   1.900  1.00  0.00     0.174 HD
HETATM   17  S1  UNL     1      26.077  27.040   3.075  1.00  0.00     0.339 S
HETATM   18  O4  UNL     1      25.537  28.371   3.389  1.00  0.00    -0.181 OA
HETATM   19  O5  UNL     1      26.726  27.201   1.690  1.00  0.00    -0.181 OA
HETATM   20  N9  UNL     1      27.212  26.361   4.059  1.00  0.00    -0.125 N
ATOM     21  H9  UNL     1      27.496  25.408   3.834  1.00  0.00     0.208 HD
ENDROOT
BRANCH  14  22
HETATM   22  C23 UNL     1      22.900  26.939   4.035  1.00  0.00     0.035 C
BRANCH  22  23
HETATM   23  C24 UNL     1      22.541  27.685   2.798  1.00  0.00     0.004 C
BRANCH  23  24
HETATM   24  C25 UNL     1      21.124  27.380   2.336  1.00  0.00     0.020 C
BRANCH  24  25
HETATM   25  C26 UNL     1      20.073  27.838   3.292  1.00  0.00     0.122 C
BRANCH  25  26
HETATM   26  N5  UNL     1      19.059  26.791   3.331  1.00  0.00    -0.365 N
HETATM   27  C27 UNL     1      18.746  26.080   4.520  1.00  0.00     0.181 C
HETATM   28  N6  UNL     1      19.581  25.376   5.177  1.00  0.00    -0.374 N
HETATM   29  N7  UNL     1      17.406  26.176   4.988  1.00  0.00    -0.064 NA
ATOM     30  H62 UNL     1      20.543  25.308   4.842  1.00  0.00     0.158 HD
ATOM     31  H61 UNL     1      19.357  24.865   6.031  1.00  0.00     0.158 HD
ATOM     32  H5  UNL     1      18.557  26.561   2.474  1.00  0.00     0.162 HD
ENDBRANCH  25  26
ENDBRANCH  24  25
ENDBRANCH  23  24
ENDBRANCH  22  23
ENDBRANCH  14  22
BRANCH   9  33
HETATM   33  C17 UNL     1      24.612  21.685   2.096  1.00  0.00     0.038 C
BRANCH  33  34
HETATM   34  C18 UNL     1      23.590  20.753   2.641  1.00  0.00    -0.020 C
HETATM   35  C19 UNL     1      24.158  19.335   2.466  1.00  0.00     0.009 C
HETATM   36  C20 UNL     1      22.292  20.766   1.871  1.00  0.00     0.009 C
ENDBRANCH  33  34
ENDBRANCH   9  33
BRANCH   1  37
HETATM   37  C2  UNL     1      29.251  26.870   4.902  1.00  0.00     0.261 C
HETATM   38  C1  UNL     1      29.733  27.614   3.717  1.00  0.00     0.037 C
ENDBRANCH   1  37
BRANCH   1  39
HETATM   39  C3  UNL     1      27.490  28.251   5.511  1.00  0.00     0.261 C
HETATM   40  C4  UNL     1      26.669  28.379   6.753  1.00  0.00     0.037 C
ENDBRANCH   1  39
BRANCH   6  41
HETATM   41  C9  UNL     1      26.873  20.927   5.870  1.00  0.00     0.228 C
BRANCH  41  42
HETATM   42  C10 UNL     1      25.777  20.167   6.515  1.00  0.00     0.237 C
HETATM   43  O1  UNL     1      24.821  19.661   5.889  1.00  0.00    -0.272 OA
HETATM   44  N3  UNL     1      25.783  19.983   7.930  1.00  0.00    -0.351 N
HETATM   45  C11 UNL     1      24.821  19.278   8.751  1.00  0.00     0.126 C
HETATM   46  C14 UNL     1      26.800  20.499   8.815  1.00  0.00     0.126 C
HETATM   47  C12 UNL     1      25.554  18.942  10.028  1.00  0.00     0.021 C
HETATM   48  C13 UNL     1      27.006  19.327   9.769  1.00  0.00     0.021 C
ENDBRANCH  41  42
ENDBRANCH   6  41
TORSDOF 11
ENDMDL