MODEL 5
REMARK VINA RESULT: -8.030979032      4.345      7.761
REMARK  15 active torsions:
REMARK  status: ('A' for Active; 'I' for Inactive)
REMARK    1  A    between atoms: N1_2  and  C2_3
REMARK       I    between atoms: N1_2  and  C26_43
REMARK    2  A    between atoms: C2_3  and  C3_4
REMARK    3  A    between atoms: C3_4  and  C4_5
REMARK    4  A    between atoms: C4_5  and  C5_6
REMARK    5  A    between atoms: N2_8  and  C7_9
REMARK    6  A    between atoms: C7_9  and  O1_10
REMARK    7  A    between atoms: C7_9  and  N3_12
REMARK    8  A    between atoms: C12_18  and  C13_19
REMARK    9  A    between atoms: C14_20  and  C15_21
REMARK   10  A    between atoms: C17_28  and  C18_29
REMARK   11  A    between atoms: C18_29  and  C19_30
REMARK   12  A    between atoms: C19_30  and  C20_31
REMARK   13  A    between atoms: C20_31  and  C21_32
REMARK   14  A    between atoms: C21_32  and  C22_33
REMARK   15  A    between atoms: C22_33  and  C23_34
ROOT
HETATM    1  C5  UNL     1      21.270  13.004   8.911  1.00  0.00     0.105 C
HETATM    2  C6  UNL     1      22.189  13.998   8.249  1.00  0.00     0.163 C
HETATM    3  N2  UNL     1      21.879  14.445   6.941  1.00  0.00    -0.263 N
HETATM    4  C16 UNL     1      20.755  14.342   6.034  1.00  0.00     0.326 C
HETATM    5  O4  UNL     1      20.719  15.264   5.178  1.00  0.00    -0.247 OA
HETATM    6  N5  UNL     1      19.671  13.469   5.854  1.00  0.00    -0.329 N
ATOM      7  H5  UNL     1      19.059  13.840   5.127  1.00  0.00     0.165 HD
HETATM    8  C17 UNL     1      19.133  12.245   6.336  1.00  0.00     0.178 C
HETATM    9  C24 UNL     1      20.044  11.438   7.177  1.00  0.00     0.242 C
HETATM   10  O5  UNL     1      19.932  10.195   7.017  1.00  0.00    -0.271 OA
HETATM   11  N8  UNL     1      21.023  11.844   8.135  1.00  0.00    -0.348 N
HETATM   12  C25 UNL     1      21.981  10.733   8.292  1.00  0.00     0.153 C
ENDROOT
BRANCH   3  13
HETATM   13  C7  UNL     1      22.932  15.192   6.377  1.00  0.00     0.226 C
BRANCH  13  14
HETATM   14  O1  UNL     1      23.538  14.513   5.409  1.00  0.00    -0.332 OA
ATOM     15  H1  UNL     1      23.867  15.096   4.736  1.00  0.00     0.221 HD
ENDBRANCH  13  14
BRANCH  13  16
HETATM   16  N3  UNL     1      23.496  16.428   6.561  1.00  0.00    -0.333 N
HETATM   17  C8  UNL     1      23.551  17.224   7.733  1.00  0.00     0.147 C
HETATM   18  C9  UNL     1      23.847  18.712   7.405  1.00  0.00     0.141 C
HETATM   19  N4  UNL     1      25.100  18.748   6.759  1.00  0.00    -0.394 N
HETATM   20  C10 UNL     1      26.104  19.657   7.211  1.00  0.00     0.148 C
HETATM   21  C11 UNL     1      25.264  17.935   5.769  1.00  0.00     0.087 C
HETATM   22  C12 UNL     1      24.169  17.037   5.374  1.00  0.00     0.149 C
BRANCH  22  23
HETATM   23  C13 UNL     1      23.202  17.788   4.549  1.00  0.00     0.010 C
HETATM   24  C14 UNL     1      23.648  18.715   3.730  1.00  0.00     0.082 C
BRANCH  24  25
HETATM   25  C15 UNL     1      22.741  19.492   2.886  1.00  0.00     0.198 C
HETATM   26  O2  UNL     1      22.858  19.475   1.646  1.00  0.00    -0.645 OA
HETATM   27  O3  UNL     1      21.756  20.245   3.507  1.00  0.00    -0.645 OA
ENDBRANCH  24  25
ENDBRANCH  22  23
ENDBRANCH  13  16
ENDBRANCH   3  13
BRANCH   1  28
HETATM   28  C4  UNL     1      20.081  13.713   9.488  1.00  0.00     0.028 C
BRANCH  28  29
HETATM   29  C3  UNL     1      19.391  12.824  10.484  1.00  0.00     0.022 C
BRANCH  29  30
HETATM   30  C2  UNL     1      18.006  12.399  10.097  1.00  0.00     0.125 C
BRANCH  30  31
HETATM   31  N1  UNL     1      17.255  11.851  11.186  1.00  0.00    -0.360 N
HETATM   32  C1  UNL     1      16.015  12.498  11.625  1.00  0.00     0.152 C
HETATM   33  C26 UNL     1      17.666  10.691  11.851  1.00  0.00     0.183 C
HETATM   34  N9  UNL     1      17.718  10.631  13.159  1.00  0.00    -0.374 N
HETATM   35  N10 UNL     1      18.031   9.565  11.087  1.00  0.00    -0.064 NA
ATOM     36  H92 UNL     1      17.454  11.446  13.712  1.00  0.00     0.158 HD
ATOM     37  H91 UNL     1      18.017   9.785  13.643  1.00  0.00     0.158 HD
ENDBRANCH  30  31
ENDBRANCH  29  30
ENDBRANCH  28  29
ENDBRANCH   1  28
BRANCH   8  38
HETATM   38  C18 UNL     1      18.719  11.379   5.166  1.00  0.00     0.035 C
BRANCH  38  39
HETATM   39  C19 UNL     1      17.241  11.211   5.128  1.00  0.00     0.002 C
BRANCH  39  40
HETATM   40  C20 UNL     1      16.635  11.691   3.828  1.00  0.00     0.000 C
BRANCH  40  41
HETATM   41  C21 UNL     1      17.584  11.661   2.694  1.00  0.00     0.007 C
BRANCH  41  42
HETATM   42  C22 UNL     1      17.412  12.686   1.636  1.00  0.00     0.072 C
BRANCH  42  43
HETATM   43  C23 UNL     1      18.555  13.581   1.437  1.00  0.00     0.086 C
HETATM   44  N6  UNL     1      19.062  13.856   0.305  1.00  0.00    -0.391 N
ATOM     45  H62 UNL     1      18.676  13.430  -0.537  1.00  0.00     0.157 HD
ATOM     46  H61 UNL     1      19.858  14.479   0.168  1.00  0.00     0.157 HD
HETATM   47  N7  UNL     1      19.101  14.184   2.629  1.00  0.00    -0.088 NA
ENDBRANCH  42  43
ENDBRANCH  41  42
ENDBRANCH  40  41
ENDBRANCH  39  40
ENDBRANCH  38  39
ENDBRANCH   8  38
TORSDOF 15
ENDMDL