MODEL 1
REMARK VINA RESULT: -6.604867413      0.000      0.000
REMARK  12 active torsions:
REMARK  status: ('A' for Active; 'I' for Inactive)
REMARK    1  A    between atoms: C2_2  and  N1_3
REMARK    2  A    between atoms: C5_8  and  C6_9
REMARK    3  A    between atoms: C6_9  and  C7_10
REMARK    4  A    between atoms: C10_16  and  C11_17
REMARK    5  A    between atoms: C11_17  and  C12_18
REMARK    6  A    between atoms: C14_25  and  C15_26
REMARK    7  A    between atoms: C15_26  and  C16_27
REMARK    8  A    between atoms: C19_32  and  O4_33
REMARK    9  A    between atoms: C20_35  and  C21_36
REMARK   10  A    between atoms: C21_36  and  C22_37
REMARK   11  A    between atoms: C26_44  and  C27_45
REMARK   12  A    between atoms: C27_45  and  C28_46
ROOT
HETATM    1  C7  UNL     1      26.923  27.425   3.695  1.00  0.00     0.102 C
HETATM    2  C8  UNL     1      27.899  26.289   3.944  1.00  0.00     0.137 C
HETATM    3  N3  UNL     1      28.070  25.898   5.295  1.00  0.00    -0.358 N
ATOM      4  H3  UNL     1      29.008  26.064   5.659  1.00  0.00     0.162 HD
HETATM    5  C9  UNL     1      27.201  25.332   6.214  1.00  0.00     0.240 C
HETATM    6  O1  UNL     1      26.997  25.996   7.301  1.00  0.00    -0.271 OA
HETATM    7  C10 UNL     1      26.457  24.030   6.107  1.00  0.00     0.184 C
HETATM    8  N5  UNL     1      27.058  23.106   5.212  1.00  0.00    -0.346 N
ATOM      9  H5  UNL     1      28.052  23.268   5.047  1.00  0.00     0.163 HD
HETATM   10  C13 UNL     1      26.534  22.019   4.523  1.00  0.00     0.241 C
HETATM   11  O3  UNL     1      27.255  20.956   4.537  1.00  0.00    -0.271 OA
HETATM   12  C14 UNL     1      25.277  21.890   3.772  1.00  0.00     0.175 C
HETATM   13  N6  UNL     1      24.120  22.508   4.336  1.00  0.00    -0.359 N
ATOM     14  H6  UNL     1      24.010  22.366   5.339  1.00  0.00     0.162 HD
HETATM   15  C19 UNL     1      23.108  23.279   3.739  1.00  0.00     0.135 C
HETATM   16  C20 UNL     1      23.170  24.654   3.210  1.00  0.00     0.159 C
HETATM   17  N7  UNL     1      24.489  24.930   2.687  1.00  0.00    -0.347 N
ATOM     18  H7  UNL     1      25.247  24.613   3.291  1.00  0.00     0.163 HD
HETATM   19  C25 UNL     1      24.918  25.541   1.525  1.00  0.00     0.241 C
HETATM   20  O5  UNL     1      25.590  24.849   0.676  1.00  0.00    -0.271 OA
HETATM   21  C26 UNL     1      24.700  26.961   1.099  1.00  0.00     0.177 C
HETATM   22  N8  UNL     1      25.870  27.777   1.341  1.00  0.00    -0.347 N
ATOM     23  H8  UNL     1      25.921  28.624   0.776  1.00  0.00     0.163 HD
HETATM   24  C31 UNL     1      26.930  27.601   2.211  1.00  0.00     0.224 C
HETATM   25  O6  UNL     1      28.120  27.580   1.715  1.00  0.00    -0.273 OA
ENDROOT
BRANCH   1  26
HETATM   26  C6  UNL     1      27.338  28.689   4.417  1.00  0.00     0.092 C
BRANCH  26  27
HETATM   27  C5  UNL     1      26.458  29.177   5.460  1.00  0.00     0.083 A
HETATM   28  N1  UNL     1      25.436  30.032   5.291  1.00  0.00    -0.346 N
HETATM   29  C3  UNL     1      24.867  30.291   6.503  1.00  0.00     0.109 A
HETATM   30  C4  UNL     1      25.577  29.566   7.402  1.00  0.00     0.106 A
HETATM   31  N2  UNL     1      26.536  28.895   6.767  1.00  0.00    -0.354 N
ATOM     32  H2  UNL     1      27.214  28.271   7.203  1.00  0.00     0.166 HD
BRANCH  28  33
HETATM   33  C2  UNL     1      24.874  30.622   4.071  1.00  0.00     0.125 C
HETATM   34  C1  UNL     1      23.752  29.654   3.636  1.00  0.00     0.027 C
ENDBRANCH  28  33
ENDBRANCH  26  27
ENDBRANCH   1  26
BRANCH  21  35
HETATM   35  C27 UNL     1      24.331  26.906  -0.364  1.00  0.00     0.038 C
BRANCH  35  36
HETATM   36  C28 UNL     1      22.913  27.252  -0.666  1.00  0.00    -0.020 C
HETATM   37  C29 UNL     1      22.621  27.370  -2.129  1.00  0.00     0.009 C
HETATM   38  C30 UNL     1      22.675  28.644  -0.060  1.00  0.00     0.009 C
ENDBRANCH  35  36
ENDBRANCH  21  35
BRANCH   7  39
HETATM   39  C11 UNL     1      26.420  23.433   7.502  1.00  0.00     0.134 C
BRANCH  39  40
HETATM   40  C12 UNL     1      26.909  22.031   7.492  1.00  0.00     0.233 C
HETATM   41  N4  UNL     1      28.279  21.661   7.531  1.00  0.00    -0.062 NA
HETATM   42  O2  UNL     1      26.015  21.117   7.445  1.00  0.00    -0.277 OA
ENDBRANCH  39  40
ENDBRANCH   7  39
BRANCH  16  43
HETATM   43  C21 UNL     1      22.915  25.683   4.279  1.00  0.00     0.037 C
BRANCH  43  44
HETATM   44  C22 UNL     1      21.609  26.368   4.290  1.00  0.00    -0.020 C
HETATM   45  C23 UNL     1      21.238  27.051   2.992  1.00  0.00     0.009 C
HETATM   46  C24 UNL     1      20.433  25.658   4.827  1.00  0.00     0.009 C
ENDBRANCH  43  44
ENDBRANCH  16  43
BRANCH  12  47
HETATM   47  C15 UNL     1      24.978  20.467   3.349  1.00  0.00     0.038 C
BRANCH  47  48
HETATM   48  C16 UNL     1      24.699  20.226   1.923  1.00  0.00    -0.020 C
HETATM   49  C17 UNL     1      25.180  21.510   1.191  1.00  0.00     0.009 C
HETATM   50  C18 UNL     1      23.203  20.179   1.605  1.00  0.00     0.009 C
ENDBRANCH  47  48
ENDBRANCH  12  47
BRANCH  15  51
HETATM   51  O4  UNL     1      21.924  22.755   3.610  1.00  0.00    -0.348 OA
ATOM     52  H4  UNL     1      21.261  22.969   4.256  1.00  0.00     0.219 HD
ENDBRANCH  15  51
TORSDOF 12
ENDMDL