MODEL 5
REMARK VINA RESULT: -7.195188736      2.758      5.519
REMARK  12 active torsions:
REMARK  status: ('A' for Active; 'I' for Inactive)
REMARK    1  A    between atoms: C2_2  and  C4_4
REMARK    2  A    between atoms: C4_4  and  C5_5
REMARK    3  A    between atoms: C12_19  and  C13_20
REMARK    4  A    between atoms: C13_20  and  C14_21
REMARK    5  A    between atoms: C14_21  and  C15_22
REMARK    6  A    between atoms: C15_22  and  C16_23
REMARK    7  A    between atoms: C16_23  and  C17_24
REMARK    8  A    between atoms: C17_24  and  N4_25
REMARK    9  A    between atoms: C19_34  and  C20_35
REMARK   10  A    between atoms: C20_35  and  C21_36
REMARK   11  A    between atoms: C25_43  and  C26_44
REMARK   12  A    between atoms: C26_44  and  C27_45
ROOT
HETATM    1  C5  UNL     1      26.670  25.255   7.239  1.00  0.00     0.177 C
HETATM    2  N1  UNL     1      26.522  23.868   7.576  1.00  0.00    -0.348 N
ATOM      3  H1  UNL     1      25.710  23.665   8.158  1.00  0.00     0.163 HD
HETATM    4  C6  UNL     1      27.282  22.753   7.256  1.00  0.00     0.220 C
HETATM    5  O1  UNL     1      27.883  22.160   8.238  1.00  0.00    -0.274 OA
HETATM    6  C7  UNL     1      27.520  22.119   5.944  1.00  0.00     0.124 C
HETATM    7  C8  UNL     1      26.276  21.906   5.114  1.00  0.00     0.161 C
HETATM    8  N2  UNL     1      25.346  21.008   5.755  1.00  0.00    -0.254 N
HETATM    9  C9  UNL     1      24.890  20.468   6.993  1.00  0.00     0.258 C
HETATM   10  O2  UNL     1      24.743  20.867   8.139  1.00  0.00    -0.270 OA
HETATM   11  C10 UNL     1      24.685  19.218   6.238  1.00  0.00     0.257 C
HETATM   12  N3  UNL     1      24.381  20.210   5.175  1.00  0.00    -0.246 N
HETATM   13  C11 UNL     1      23.550  20.440   4.070  1.00  0.00     0.261 C
HETATM   14  O3  UNL     1      22.265  20.434   4.225  1.00  0.00    -0.269 OA
HETATM   15  C12 UNL     1      23.929  20.706   2.663  1.00  0.00     0.178 C
HETATM   16  N6  UNL     1      22.971  21.577   1.995  1.00  0.00    -0.346 N
ATOM     17  H6  UNL     1      22.179  21.116   1.546  1.00  0.00     0.163 HD
HETATM   18  C18 UNL     1      23.012  22.979   1.900  1.00  0.00     0.241 C
HETATM   19  O4  UNL     1      22.898  23.498   0.730  1.00  0.00    -0.271 OA
HETATM   20  C19 UNL     1      23.179  23.923   3.032  1.00  0.00     0.177 C
HETATM   21  N7  UNL     1      23.889  25.104   2.527  1.00  0.00    -0.346 N
ATOM     22  H7  UNL     1      23.463  25.592   1.738  1.00  0.00     0.163 HD
HETATM   23  C24 UNL     1      25.087  25.631   3.011  1.00  0.00     0.241 C
HETATM   24  O5  UNL     1      26.069  25.869   2.218  1.00  0.00    -0.271 OA
HETATM   25  C25 UNL     1      25.323  25.957   4.469  1.00  0.00     0.177 C
HETATM   26  N8  UNL     1      26.698  25.894   4.764  1.00  0.00    -0.346 N
ATOM     27  H8  UNL     1      27.317  26.164   3.999  1.00  0.00     0.163 HD
HETATM   28  C30 UNL     1      27.353  25.516   5.952  1.00  0.00     0.241 C
HETATM   29  O6  UNL     1      28.627  25.378   5.971  1.00  0.00    -0.271 OA
ENDROOT
BRANCH  15  30
HETATM   30  C13 UNL     1      23.832  19.359   1.930  1.00  0.00     0.035 C
BRANCH  30  31
HETATM   31  C14 UNL     1      24.018  18.172   2.795  1.00  0.00     0.002 C
BRANCH  31  32
HETATM   32  C15 UNL     1      22.818  17.279   2.925  1.00  0.00     0.002 C
BRANCH  32  33
HETATM   33  C16 UNL     1      22.618  16.761   4.316  1.00  0.00     0.021 C
BRANCH  33  34
HETATM   34  C17 UNL     1      21.967  15.412   4.310  1.00  0.00     0.139 C
BRANCH  34  35
HETATM   35  N4  UNL     1      22.957  14.367   4.557  1.00  0.00    -0.343 N
HETATM   36  N5  UNL     1      24.127  14.673   4.788  1.00  0.00    -0.349 N
ATOM     37  H52 UNL     1      24.387  15.659   4.803  1.00  0.00     0.176 HD
ATOM     38  H51 UNL     1      24.818  13.944   4.961  1.00  0.00     0.176 HD
ATOM     39  H4  UNL     1      22.680  13.385   4.540  1.00  0.00     0.179 HD
ENDBRANCH  34  35
ENDBRANCH  33  34
ENDBRANCH  32  33
ENDBRANCH  31  32
ENDBRANCH  30  31
ENDBRANCH  15  30
BRANCH  20  40
HETATM   40  C20 UNL     1      21.974  24.294   3.796  1.00  0.00     0.038 C
BRANCH  40  41
HETATM   41  C21 UNL     1      21.620  25.708   3.996  1.00  0.00    -0.020 C
HETATM   42  C22 UNL     1      20.324  25.690   4.865  1.00  0.00     0.009 C
HETATM   43  C23 UNL     1      21.213  26.407   2.743  1.00  0.00     0.009 C
ENDBRANCH  40  41
ENDBRANCH  20  40
BRANCH  25  44
HETATM   44  C26 UNL     1      24.554  27.173   4.813  1.00  0.00     0.038 C
BRANCH  44  45
HETATM   45  C27 UNL     1      24.761  28.357   3.914  1.00  0.00    -0.020 C
HETATM   46  C28 UNL     1      25.775  29.293   4.499  1.00  0.00     0.009 C
HETATM   47  C29 UNL     1      23.419  29.112   3.874  1.00  0.00     0.009 C
ENDBRANCH  44  45
ENDBRANCH  25  44
BRANCH   1  48
HETATM   48  C4  UNL     1      27.246  26.118   8.331  1.00  0.00     0.038 C
BRANCH  48  49
HETATM   49  C2  UNL     1      27.376  27.563   8.075  1.00  0.00    -0.020 C
HETATM   50  C1  UNL     1      26.110  28.366   8.004  1.00  0.00     0.009 C
HETATM   51  C3  UNL     1      28.189  28.177   9.235  1.00  0.00     0.009 C
ENDBRANCH  48  49
ENDBRANCH   1  48
TORSDOF 12
ENDMDL