MODEL 2
REMARK VINA RESULT: -10.357344966      1.265      2.369
REMARK  10 active torsions:
REMARK  status: ('A' for Active; 'I' for Inactive)
REMARK    1  A    between atoms: C2_2  and  C3_3
REMARK    2  A    between atoms: C3_3  and  C4_4
REMARK    3  A    between atoms: N2_9  and  C7_10
REMARK    4  A    between atoms: C7_10  and  C8_11
REMARK    5  A    between atoms: C8_11  and  C9_12
REMARK    6  A    between atoms: C9_12  and  C10_13
REMARK    7  A    between atoms: C10_13  and  C11_14
REMARK    8  A    between atoms: C11_14  and  C12_15
REMARK    9  A    between atoms: C25_38  and  C26_39
REMARK   10  A    between atoms: C26_39  and  C27_40
ROOT
HETATM    1  C12 UNL     1      22.815  16.549   4.506  1.00  0.00     0.006 C
HETATM    2  C13 UNL     1      22.374  16.636   5.920  1.00  0.00     0.123 C
HETATM    3  N3  UNL     1      22.157  17.959   6.390  1.00  0.00    -0.399 N
ATOM      4  H3  UNL     1      21.504  18.096   7.161  1.00  0.00     0.158 HD
HETATM    5  C14 UNL     1      22.737  18.988   5.899  1.00  0.00     0.097 C
HETATM    6  C15 UNL     1      23.701  18.909   4.782  1.00  0.00     0.151 C
HETATM    7  C16 UNL     1      23.315  17.786   3.866  1.00  0.00     0.053 C
HETATM    8  N4  UNL     1      25.043  18.657   5.244  1.00  0.00    -0.327 N
ATOM      9  H4  UNL     1      25.806  18.719   4.570  1.00  0.00     0.171 HD
HETATM   10  C17 UNL     1      25.344  18.343   6.525  1.00  0.00     0.007 C
HETATM   11  C18 UNL     1      25.578  18.095   7.595  1.00  0.00    -0.084 C
HETATM   12  C19 UNL     1      25.845  17.776   8.934  1.00  0.00     0.096 C
HETATM   13  C20 UNL     1      25.352  18.911   9.832  1.00  0.00     0.021 C
HETATM   14  C21 UNL     1      26.020  20.204   9.467  1.00  0.00     0.103 C
HETATM   15  C22 UNL     1      25.062  21.176   8.862  1.00  0.00     0.217 C
HETATM   16  O1  UNL     1      23.838  20.819   8.854  1.00  0.00    -0.274 OA
HETATM   17  N5  UNL     1      25.475  22.417   8.326  1.00  0.00    -0.352 N
ATOM     18  H5  UNL     1      24.752  23.055   7.994  1.00  0.00     0.162 HD
HETATM   19  C23 UNL     1      26.851  22.846   8.217  1.00  0.00     0.225 C
HETATM   20  C24 UNL     1      27.581  22.236   7.085  1.00  0.00     0.236 C
HETATM   21  O2  UNL     1      28.861  22.241   7.194  1.00  0.00    -0.272 OA
HETATM   22  N6  UNL     1      27.058  21.665   5.932  1.00  0.00    -0.346 N
ATOM     23  H6  UNL     1      27.475  20.795   5.600  1.00  0.00     0.163 HD
HETATM   24  C25 UNL     1      25.925  22.239   5.142  1.00  0.00     0.177 C
HETATM   25  C33 UNL     1      25.779  21.423   3.911  1.00  0.00     0.247 C
HETATM   26  O3  UNL     1      26.884  21.214   3.288  1.00  0.00    -0.271 OA
HETATM   27  N7  UNL     1      24.617  20.875   3.378  1.00  0.00    -0.293 N
ATOM     28  H7  UNL     1      24.499  21.011   2.374  1.00  0.00     0.171 HD
HETATM   29  C34 UNL     1      23.587  20.169   3.999  1.00  0.00     0.258 C
HETATM   30  O4  UNL     1      22.392  20.628   3.902  1.00  0.00    -0.270 OA
ENDROOT
BRANCH   1  31
HETATM   31  C11 UNL     1      21.624  16.035   3.688  1.00  0.00     0.006 C
BRANCH  31  32
HETATM   32  C10 UNL     1      20.599  15.376   4.586  1.00  0.00     0.000 C
BRANCH  32  33
HETATM   33  C9  UNL     1      20.616  13.888   4.470  1.00  0.00     0.002 C
BRANCH  33  34
HETATM   34  C8  UNL     1      19.900  13.237   5.647  1.00  0.00     0.020 C
BRANCH  34  35
HETATM   35  C7  UNL     1      19.612  11.800   5.319  1.00  0.00     0.130 C
BRANCH  35  36
HETATM   36  N2  UNL     1      18.205  11.467   5.301  1.00  0.00    -0.345 N
HETATM   37  C4  UNL     1      17.390  11.463   4.233  1.00  0.00     0.028 A
HETATM   38  C5  UNL     1      16.120  11.087   4.669  1.00  0.00     0.114 A
HETATM   39  N1  UNL     1      16.224  10.881   5.984  1.00  0.00    -0.360 N
HETATM   40  C6  UNL     1      17.466  11.104   6.377  1.00  0.00     0.183 A
ATOM     41  H1  UNL     1      15.458  10.595   6.594  1.00  0.00     0.166 HD
BRANCH  37  42
HETATM   42  C3  UNL     1      17.668  11.802   2.820  1.00  0.00     0.058 C
BRANCH  42  43
HETATM   43  C2  UNL     1      17.563  13.284   2.578  1.00  0.00     0.002 C
HETATM   44  C1  UNL     1      18.394  13.624   1.355  1.00  0.00     0.005 C
ENDBRANCH  42  43
ENDBRANCH  37  42
ENDBRANCH  35  36
ENDBRANCH  34  35
ENDBRANCH  33  34
ENDBRANCH  32  33
ENDBRANCH  31  32
ENDBRANCH   1  31
BRANCH  24  45
HETATM   45  C26 UNL     1      26.214  23.670   4.849  1.00  0.00     0.039 C
BRANCH  45  46
HETATM   46  C27 UNL     1      25.377  24.731   5.420  1.00  0.00    -0.012 C
HETATM   47  C28 UNL     1      24.400  25.409   4.536  1.00  0.00     0.005 C
HETATM   48  C29 UNL     1      24.336  26.927   4.848  1.00  0.00     0.000 C
HETATM   49  C30 UNL     1      25.588  27.595   4.336  1.00  0.00     0.000 C
HETATM   50  C31 UNL     1      26.751  26.756   4.826  1.00  0.00     0.000 C
HETATM   51  C32 UNL     1      26.314  25.838   5.950  1.00  0.00     0.005 C
ENDBRANCH  45  46
ENDBRANCH  24  45
TORSDOF 10
ENDMDL