MODEL 3
REMARK VINA RESULT: -7.565529494      1.287      1.464
REMARK  14 active torsions:
REMARK  status: ('A' for Active; 'I' for Inactive)
REMARK    1  A    between atoms: C3_3  and  N1_4
REMARK    2  A    between atoms: N2_7  and  C6_8
REMARK    3  A    between atoms: C6_8  and  C7_9
REMARK    4  A    between atoms: C7_9  and  C8_10
REMARK    5  A    between atoms: C8_10  and  C9_11
REMARK    6  A    between atoms: C14_22  and  C15_23
REMARK    7  A    between atoms: C15_23  and  C16_24
REMARK    8  A    between atoms: C16_24  and  C17_25
REMARK    9  A    between atoms: C17_25  and  C18_26
REMARK   10  A    between atoms: C18_26  and  N5_27
REMARK   11  A    between atoms: C26_43  and  C27_44
REMARK   12  A    between atoms: C27_44  and  C28_45
REMARK   13  A    between atoms: C28_45  and  C29_46
REMARK   14  A    between atoms: C33_50  and  O5_51
ROOT
HETATM    1  C1  UNL     1      19.557  13.808   3.695  1.00  0.00     0.013 C
HETATM    2  C2  UNL     1      20.114  13.861   4.763  1.00  0.00    -0.089 C
HETATM    3  C3  UNL     1      20.799  13.907   6.041  1.00  0.00     0.335 C
ENDROOT
BRANCH   3   4
HETATM    4  N1  UNL     1      21.587  15.057   6.234  1.00  0.00    -0.002 N
HETATM    5  C4  UNL     1      20.940  16.314   5.925  1.00  0.00     0.272 C
HETATM    6  C5  UNL     1      22.119  17.257   5.636  1.00  0.00     0.271 C
HETATM    7  N2  UNL     1      23.257  16.415   5.831  1.00  0.00    -0.011 N
HETATM    8  C31 UNL     1      23.438  16.095   7.226  1.00  0.00     0.271 C
HETATM    9  C33 UNL     1      22.747  15.127   5.325  1.00  0.00     0.532 C
HETATM   10  C32 UNL     1      22.229  15.188   7.505  1.00  0.00     0.272 C
BRANCH   7  11
HETATM   11  C6  UNL     1      24.435  16.778   5.145  1.00  0.00     0.243 C
BRANCH  11  12
HETATM   12  C7  UNL     1      25.191  17.849   5.943  1.00  0.00     0.030 C
BRANCH  12  13
HETATM   13  C8  UNL     1      25.510  18.945   4.914  1.00  0.00     0.029 C
BRANCH  13  14
HETATM   14  C9  UNL     1      25.406  20.326   5.576  1.00  0.00     0.107 C
HETATM   15  N3  UNL     1      26.709  20.872   5.794  1.00  0.00    -0.354 N
HETATM   16  C10 UNL     1      27.122  21.701   6.866  1.00  0.00     0.218 C
ATOM     17  H3  UNL     1      27.420  20.639   5.100  1.00  0.00     0.162 HD
HETATM   18  O1  UNL     1      28.184  21.430   7.499  1.00  0.00    -0.274 OA
HETATM   19  C11 UNL     1      26.401  22.910   7.342  1.00  0.00     0.112 C
HETATM   20  C12 UNL     1      26.991  24.074   6.575  1.00  0.00     0.112 C
HETATM   21  C13 UNL     1      26.460  25.384   6.961  1.00  0.00     0.218 C
HETATM   22  O2  UNL     1      26.582  25.745   8.161  1.00  0.00    -0.274 OA
HETATM   23  N4  UNL     1      25.813  26.279   6.065  1.00  0.00    -0.348 N
HETATM   24  C14 UNL     1      24.869  25.828   5.033  1.00  0.00     0.176 C
ATOM     25  H4  UNL     1      26.014  27.276   6.141  1.00  0.00     0.163 HD
HETATM   26  C19 UNL     1      25.569  25.598   3.749  1.00  0.00     0.243 C
HETATM   27  O3  UNL     1      26.733  26.087   3.632  1.00  0.00    -0.271 OA
HETATM   28  N6  UNL     1      25.055  24.881   2.643  1.00  0.00    -0.337 N
HETATM   29  C20 UNL     1      25.345  25.272   1.265  1.00  0.00     0.127 C
HETATM   30  C24 UNL     1      24.209  23.714   2.793  1.00  0.00     0.179 C
HETATM   31  C21 UNL     1      24.027  25.656   0.623  1.00  0.00     0.020 C
HETATM   32  C22 UNL     1      23.182  24.402   0.588  1.00  0.00     0.004 C
HETATM   33  C23 UNL     1      22.956  23.944   1.987  1.00  0.00     0.035 C
HETATM   34  C25 UNL     1      24.878  22.449   2.481  1.00  0.00     0.241 C
HETATM   35  O4  UNL     1      25.113  22.181   1.270  1.00  0.00    -0.271 OA
HETATM   36  N7  UNL     1      25.300  21.469   3.421  1.00  0.00    -0.353 N
HETATM   37  C26 UNL     1      24.569  21.161   4.634  1.00  0.00     0.107 C
ATOM     38  H7  UNL     1      26.162  20.957   3.232  1.00  0.00     0.163 HD
BRANCH  24  39
HETATM   39  C15 UNL     1      23.891  26.985   4.780  1.00  0.00     0.035 C
BRANCH  39  40
HETATM   40  C16 UNL     1      22.540  26.397   4.462  1.00  0.00     0.004 C
BRANCH  40  41
HETATM   41  C17 UNL     1      21.795  27.193   3.431  1.00  0.00     0.027 C
BRANCH  41  42
HETATM   42  C18 UNL     1      22.721  28.272   2.861  1.00  0.00     0.229 C
BRANCH  42  43
HETATM   43  N5  UNL     1      22.078  29.556   2.784  1.00  0.00    -0.079 N
ATOM     44  H53 UNL     1      22.216  30.090   3.642  1.00  0.00     0.274 HD
ATOM     45  H52 UNL     1      22.561  30.172   2.130  1.00  0.00     0.274 HD
ATOM     46  H51 UNL     1      21.087  29.477   2.554  1.00  0.00     0.274 HD
ENDBRANCH  42  43
ENDBRANCH  41  42
ENDBRANCH  40  41
ENDBRANCH  39  40
ENDBRANCH  24  39
BRANCH  37  47
HETATM   47  C27 UNL     1      23.292  20.488   4.229  1.00  0.00     0.027 C
BRANCH  47  48
HETATM   48  C28 UNL     1      23.433  19.686   2.951  1.00  0.00     0.002 C
BRANCH  48  49
HETATM   49  C29 UNL     1      22.232  20.008   2.055  1.00  0.00    -0.004 C
HETATM   50  C30 UNL     1      21.376  21.083   2.655  1.00  0.00     0.005 C
ENDBRANCH  48  49
ENDBRANCH  47  48
ENDBRANCH  37  47
ENDBRANCH  13  14
ENDBRANCH  12  13
ENDBRANCH  11  12
ENDBRANCH   7  11
BRANCH   9  51
HETATM   51  O5  UNL     1      23.638  14.102   5.608  1.00  0.00    -0.348 OA
ATOM     52  H5  UNL     1      24.352  14.428   6.144  1.00  0.00     0.214 HD
ENDBRANCH   9  51
ENDBRANCH   3   4
TORSDOF 14
ENDMDL