MODEL 1
REMARK VINA RESULT: -7.835692243      0.000      0.000
REMARK  14 active torsions:
REMARK  status: ('A' for Active; 'I' for Inactive)
REMARK    1  A    between atoms: C5_7  and  C6_8
REMARK    2  A    between atoms: C6_8  and  C7_9
REMARK    3  A    between atoms: C7_9  and  N2_10
REMARK    4  A    between atoms: C8_11  and  C9_12
REMARK    5  A    between atoms: C9_12  and  C10_13
REMARK    6  A    between atoms: C13_16  and  O1_17
REMARK    7  A    between atoms: C14_21  and  C15_22
REMARK    8  A    between atoms: C15_22  and  C16_23
REMARK    9  A    between atoms: C16_23  and  C17_24
REMARK   10  A    between atoms: C17_24  and  N4_25
REMARK   11  A    between atoms: C19_30  and  O2_31
REMARK   12  A    between atoms: C20_35  and  C21_36
REMARK   13  A    between atoms: C21_36  and  C22_37
REMARK   14  A    between atoms: C26_44  and  C27_45
ROOT
HETATM    1  C1  UNL     1      21.465  14.699   8.575  1.00  0.00     0.018 C
HETATM    2  C2  UNL     1      22.155  14.969   7.614  1.00  0.00    -0.076 C
HETATM    3  C3  UNL     1      22.977  15.319   6.472  1.00  0.00     0.034 A
HETATM    4  C4  UNL     1      23.455  14.464   5.506  1.00  0.00     0.108 A
HETATM    5  N1  UNL     1      24.199  15.156   4.583  1.00  0.00    -0.368 N
ATOM      6  H1  UNL     1      24.665  14.761   3.768  1.00  0.00     0.165 HD
HETATM    7  C5  UNL     1      24.202  16.431   4.945  1.00  0.00     0.011 A
HETATM    8  C32 UNL     1      23.445  16.565   6.127  1.00  0.00     0.047 A
ENDROOT
BRANCH   7   9
HETATM    9  C6  UNL     1      24.858  17.592   4.285  1.00  0.00     0.073 C
BRANCH   9  10
HETATM   10  C7  UNL     1      25.288  18.568   5.299  1.00  0.00     0.121 C
BRANCH  10  11
HETATM   11  N2  UNL     1      25.133  19.948   5.155  1.00  0.00    -0.214 NA
HETATM   12  C8  UNL     1      25.374  20.789   6.342  1.00  0.00     0.154 C
HETATM   13  C13 UNL     1      26.585  21.583   6.196  1.00  0.00     0.136 C
HETATM   14  N3  UNL     1      26.874  22.867   5.737  1.00  0.00    -0.339 N
HETATM   15  C14 UNL     1      26.818  24.194   6.142  1.00  0.00     0.062 C
ATOM     16  H3  UNL     1      27.251  22.815   4.790  1.00  0.00     0.167 HD
HETATM   17  C19 UNL     1      25.609  24.955   5.780  1.00  0.00     0.159 C
HETATM   18  N7  UNL     1      24.808  24.982   4.655  1.00  0.00    -0.356 N
HETATM   19  C20 UNL     1      24.154  23.951   3.902  1.00  0.00     0.176 C
ATOM     20  H7  UNL     1      24.650  25.921   4.288  1.00  0.00     0.162 HD
HETATM   21  C25 UNL     1      24.985  23.531   2.717  1.00  0.00     0.241 C
HETATM   22  O3  UNL     1      25.213  24.497   1.932  1.00  0.00    -0.271 OA
HETATM   23  N8  UNL     1      25.497  22.269   2.412  1.00  0.00    -0.346 N
HETATM   24  C26 UNL     1      24.873  21.002   2.249  1.00  0.00     0.181 C
ATOM     25  H8  UNL     1      26.508  22.253   2.281  1.00  0.00     0.163 HD
HETATM   26  C30 UNL     1      23.796  20.639   3.172  1.00  0.00     0.257 C
HETATM   27  O4  UNL     1      22.626  20.725   2.690  1.00  0.00    -0.270 OA
HETATM   28  N9  UNL     1      23.922  20.210   4.512  1.00  0.00    -0.282 N
HETATM   29  C31 UNL     1      22.690  20.023   5.260  1.00  0.00     0.175 C
BRANCH  12  30
HETATM   30  C9  UNL     1      25.104  20.051   7.577  1.00  0.00     0.034 C
BRANCH  30  31
HETATM   31  C10 UNL     1      25.394  20.533   8.932  1.00  0.00    -0.021 C
HETATM   32  C11 UNL     1      25.787  19.557   9.996  1.00  0.00     0.009 C
HETATM   33  C12 UNL     1      24.149  21.266   9.524  1.00  0.00     0.009 C
ENDBRANCH  30  31
ENDBRANCH  12  30
BRANCH  13  34
HETATM   34  O1  UNL     1      27.639  20.920   6.585  1.00  0.00    -0.348 OA
ATOM     35  H1  UNL     1      28.433  21.277   6.206  1.00  0.00     0.219 HD
ENDBRANCH  13  34
BRANCH  15  36
HETATM   36  C15 UNL     1      27.275  24.579   7.521  1.00  0.00     0.063 C
BRANCH  36  37
HETATM   37  C16 UNL     1      28.459  25.508   7.542  1.00  0.00     0.026 C
BRANCH  37  38
HETATM   38  C17 UNL     1      28.191  26.505   8.685  1.00  0.00     0.122 C
BRANCH  38  39
HETATM   39  N4  UNL     1      27.024  27.284   8.319  1.00  0.00    -0.367 N
HETATM   40  C18 UNL     1      27.213  28.519   7.971  1.00  0.00     0.196 C
HETATM   41  N5  UNL     1      28.499  29.118   7.939  1.00  0.00    -0.067 NA
HETATM   42  N6  UNL     1      26.093  29.329   7.602  1.00  0.00    -0.067 NA
ATOM     43  H4  UNL     1      26.089  26.875   8.335  1.00  0.00     0.161 HD
ENDBRANCH  38  39
ENDBRANCH  37  38
ENDBRANCH  36  37
ENDBRANCH  15  36
BRANCH  17  44
HETATM   44  O2  UNL     1      25.253  25.768   6.746  1.00  0.00    -0.345 OA
ATOM     45  H2  UNL     1      24.346  25.631   6.994  1.00  0.00     0.219 HD
ENDBRANCH  17  44
BRANCH  19  46
HETATM   46  C21 UNL     1      22.800  24.406   3.430  1.00  0.00     0.038 C
BRANCH  46  47
HETATM   47  C22 UNL     1      22.265  25.695   3.905  1.00  0.00    -0.020 C
HETATM   48  C23 UNL     1      20.868  25.357   4.505  1.00  0.00     0.009 C
HETATM   49  C24 UNL     1      22.117  26.814   2.946  1.00  0.00     0.009 C
ENDBRANCH  46  47
ENDBRANCH  19  46
BRANCH  24  50
HETATM   50  C27 UNL     1      24.505  20.726   0.778  1.00  0.00     0.009 C
HETATM   51  C28 UNL     1      25.572  21.223  -0.149  1.00  0.00     0.012 C
HETATM   52  C29 UNL     1      24.161  19.316   0.497  1.00  0.00     0.012 C
ENDBRANCH  24  50
ENDBRANCH  10  11
ENDBRANCH   9  10
ENDBRANCH   7   9
TORSDOF 14
ENDMDL