MODEL 5
REMARK VINA RESULT: -6.322306888      3.895      8.863
REMARK  13 active torsions:
REMARK  status: ('A' for Active; 'I' for Inactive)
REMARK    1  A    between atoms: C4_4  and  C5_5
REMARK    2  A    between atoms: C5_5  and  C6_6
REMARK    3  A    between atoms: C9_12  and  C10_13
REMARK    4  A    between atoms: C10_13  and  C11_14
REMARK    5  A    between atoms: C11_14  and  C12_15
REMARK    6  A    between atoms: C12_15  and  N2_16
REMARK    7  A    between atoms: C14_21  and  O2_22
REMARK    8  A    between atoms: C15_26  and  C16_27
REMARK    9  A    between atoms: C16_27  and  C17_28
REMARK   10  A    between atoms: C20_31  and  O3_32
REMARK   11  A    between atoms: C21_36  and  C22_37
REMARK   12  A    between atoms: C24_41  and  C25_42
REMARK   13  A    between atoms: C25_42  and  C26_43
ROOT
HETATM    1  C1  UNL     1      19.807  13.155   5.970  1.00  0.00     0.017 C
HETATM    2  C2  UNL     1      19.871  13.514   4.816  1.00  0.00    -0.090 C
HETATM    3  C3  UNL     1      19.969  13.925   3.461  1.00  0.00     0.060 C
HETATM    4  C4  UNL     1      20.312  15.072   2.999  1.00  0.00    -0.014 C
ENDROOT
BRANCH   4   5
HETATM    5  C5  UNL     1      20.689  16.252   3.804  1.00  0.00     0.057 C
BRANCH   5   6
HETATM    6  C6  UNL     1      21.857  16.955   3.278  1.00  0.00     0.012 C
HETATM    7  C7  UNL     1      22.759  17.730   3.759  1.00  0.00     0.099 C
HETATM    8  C8  UNL     1      23.805  18.232   2.800  1.00  0.00     0.268 C
HETATM    9  N9  UNL     1      22.839  18.127   5.136  1.00  0.00    -0.354 N
HETATM   10  O1  UNL     1      24.295  17.336   2.002  1.00  0.00    -0.266 OA
HETATM   11  N1  UNL     1      24.271  19.559   2.711  1.00  0.00    -0.344 N
HETATM   12  C9  UNL     1      23.545  20.768   2.635  1.00  0.00     0.159 C
ATOM     13  H1  UNL     1      25.286  19.661   2.699  1.00  0.00     0.163 HD
HETATM   14  C14 UNL     1      23.732  21.774   3.690  1.00  0.00     0.139 C
HETATM   15  N5  UNL     1      24.830  22.462   4.164  1.00  0.00    -0.339 N
HETATM   16  C15 UNL     1      26.091  22.256   4.785  1.00  0.00     0.062 C
ATOM     17  H5  UNL     1      24.688  23.461   4.018  1.00  0.00     0.167 HD
HETATM   18  C20 UNL     1      26.472  21.006   5.392  1.00  0.00     0.159 C
HETATM   19  N6  UNL     1      26.277  20.391   6.637  1.00  0.00    -0.356 N
HETATM   20  C21 UNL     1      25.194  19.944   7.419  1.00  0.00     0.178 C
ATOM     21  H6  UNL     1      27.166  20.218   7.106  1.00  0.00     0.162 HD
HETATM   22  C23 UNL     1      23.928  19.513   6.797  1.00  0.00     0.087 C
HETATM   23  C24 UNL     1      24.044  18.303   5.871  1.00  0.00    -0.003 C
HETATM   24  C32 UNL     1      21.601  18.434   5.841  1.00  0.00     0.156 C
BRANCH  12  25
HETATM   25  C10 UNL     1      23.796  21.338   1.248  1.00  0.00     0.035 C
BRANCH  25  26
HETATM   26  C11 UNL     1      25.215  21.650   0.964  1.00  0.00     0.022 C
BRANCH  26  27
HETATM   27  C12 UNL     1      25.234  22.970   0.187  1.00  0.00     0.122 C
BRANCH  27  28
HETATM   28  N2  UNL     1      24.131  23.816   0.566  1.00  0.00    -0.367 N
HETATM   29  C13 UNL     1      24.238  24.932   1.158  1.00  0.00     0.196 C
HETATM   30  N3  UNL     1      23.116  25.718   1.503  1.00  0.00    -0.067 NA
HETATM   31  N4  UNL     1      25.530  25.422   1.490  1.00  0.00    -0.067 NA
ATOM     32  H2  UNL     1      23.191  23.491   0.342  1.00  0.00     0.161 HD
ENDBRANCH  27  28
ENDBRANCH  26  27
ENDBRANCH  25  26
ENDBRANCH  12  25
BRANCH  14  33
HETATM   33  O2  UNL     1      22.573  22.030   4.258  1.00  0.00    -0.348 OA
ATOM     34  H2  UNL     1      22.548  22.942   4.526  1.00  0.00     0.219 HD
ENDBRANCH  14  33
BRANCH  16  35
HETATM   35  C16 UNL     1      26.444  23.490   5.661  1.00  0.00     0.065 C
BRANCH  35  36
HETATM   36  C17 UNL     1      26.191  24.768   4.975  1.00  0.00    -0.017 C
HETATM   37  C18 UNL     1      25.026  25.559   5.522  1.00  0.00     0.010 C
HETATM   38  C19 UNL     1      27.387  25.715   5.044  1.00  0.00     0.010 C
ENDBRANCH  35  36
ENDBRANCH  16  35
BRANCH  18  39
HETATM   39  O3  UNL     1      27.186  20.232   4.607  1.00  0.00    -0.345 OA
ATOM     40  H3  UNL     1      27.718  19.598   5.075  1.00  0.00     0.219 HD
ENDBRANCH  18  39
BRANCH  20  41
HETATM   41  C22 UNL     1      24.820  20.863   8.561  1.00  0.00     0.254 C
HETATM   42  N7  UNL     1      25.709  21.914   8.907  1.00  0.00    -0.060 NA
HETATM   43  O4  UNL     1      23.752  20.686   9.173  1.00  0.00    -0.275 OA
ENDBRANCH  20  41
BRANCH  23  44
HETATM   44  C25 UNL     1      24.786  17.210   6.485  1.00  0.00     0.110 C
BRANCH  44  45
HETATM   45  C26 UNL     1      23.999  16.036   6.846  1.00  0.00     0.020 A
HETATM   46  N8  UNL     1      23.484  15.786   8.068  1.00  0.00    -0.362 N
HETATM   47  C27 UNL     1      22.849  14.614   8.118  1.00  0.00     0.006 A
ATOM     48  H8  UNL     1      23.569  16.420   8.862  1.00  0.00     0.165 HD
HETATM   49  C28 UNL     1      22.184  14.058   9.307  1.00  0.00     0.068 C
HETATM   50  C29 UNL     1      22.940  14.050   6.872  1.00  0.00     0.033 A
HETATM   51  C30 UNL     1      23.651  14.935   6.090  1.00  0.00    -0.037 A
HETATM   52  C31 UNL     1      23.934  14.722   4.648  1.00  0.00     0.050 C
ENDBRANCH  44  45
ENDBRANCH  23  44
ENDBRANCH   5   6
ENDBRANCH   4   5
TORSDOF 13
ENDMDL