MODEL 3
REMARK VINA RESULT: -6.279423853      1.452      1.958
REMARK  11 active torsions:
REMARK  status: ('A' for Active; 'I' for Inactive)
REMARK    1  A    between atoms: C2_2  and  C4_4
REMARK    2  A    between atoms: C4_4  and  C5_5
REMARK    3  A    between atoms: C7_10  and  C8_11
REMARK    4  A    between atoms: C8_11  and  C9_12
REMARK    5  A    between atoms: C9_12  and  C10_13
REMARK    6  A    between atoms: C10_13  and  N2_14
REMARK    7  A    between atoms: C13_23  and  C14_24
REMARK    8  A    between atoms: C14_24  and  C15_25
REMARK    9  A    between atoms: C20_32  and  C21_33
REMARK   10  A    between atoms: C25_40  and  C26_41
REMARK   11  A    between atoms: C26_41  and  C27_42
ROOT
HETATM    1  C5  UNL     1      23.911  22.963   3.691  1.00  0.00     0.177 C
HETATM    2  N1  UNL     1      22.823  23.909   3.651  1.00  0.00    -0.346 N
ATOM      3  H1  UNL     1      21.921  23.498   3.410  1.00  0.00     0.163 HD
HETATM    4  C6  UNL     1      22.782  25.269   3.880  1.00  0.00     0.241 C
HETATM    5  O1  UNL     1      22.089  25.681   4.890  1.00  0.00    -0.271 OA
HETATM    6  C7  UNL     1      23.415  26.395   3.146  1.00  0.00     0.177 C
HETATM    7  N5  UNL     1      24.030  27.284   4.102  1.00  0.00    -0.343 N
ATOM      8  H5  UNL     1      23.781  27.088   5.072  1.00  0.00     0.163 HD
HETATM    9  C12 UNL     1      24.890  28.348   3.950  1.00  0.00     0.265 C
HETATM   10  O2  UNL     1      24.493  29.474   4.455  1.00  0.00    -0.266 OA
HETATM   11  C13 UNL     1      26.237  28.446   3.292  1.00  0.00     0.082 C
HETATM   12  N6  UNL     1      27.247  28.755   4.259  1.00  0.00    -0.319 N
HETATM   13  C18 UNL     1      28.099  29.941   3.988  1.00  0.00     0.159 C
HETATM   14  C19 UNL     1      27.540  28.131   5.485  1.00  0.00     0.247 C
HETATM   15  O3  UNL     1      27.652  28.890   6.532  1.00  0.00    -0.271 OA
HETATM   16  C20 UNL     1      27.756  26.709   5.832  1.00  0.00     0.180 C
HETATM   17  N7  UNL     1      26.549  26.103   6.368  1.00  0.00    -0.346 N
ATOM     18  H7  UNL     1      25.833  26.766   6.666  1.00  0.00     0.163 HD
HETATM   19  C24 UNL     1      26.212  24.777   6.539  1.00  0.00     0.241 C
HETATM   20  O4  UNL     1      25.704  24.481   7.696  1.00  0.00    -0.271 OA
HETATM   21  C25 UNL     1      26.316  23.610   5.654  1.00  0.00     0.182 C
HETATM   22  N9  UNL     1      26.272  23.854   4.250  1.00  0.00    -0.346 N
ATOM     23  H9  UNL     1      27.057  24.365   3.847  1.00  0.00     0.163 HD
HETATM   24  C31 UNL     1      25.231  23.451   3.350  1.00  0.00     0.241 C
HETATM   25  O5  UNL     1      25.528  23.540   2.124  1.00  0.00    -0.271 OA
ENDROOT
BRANCH   6  26
HETATM   26  C8  UNL     1      22.389  27.144   2.290  1.00  0.00     0.036 C
BRANCH  26  27
HETATM   27  C9  UNL     1      22.104  26.511   0.976  1.00  0.00     0.022 C
BRANCH  27  28
HETATM   28  C10 UNL     1      21.683  27.657   0.029  1.00  0.00     0.122 C
BRANCH  28  29
HETATM   29  N2  UNL     1      20.574  27.229  -0.796  1.00  0.00    -0.367 N
HETATM   30  C11 UNL     1      19.342  27.515  -0.542  1.00  0.00     0.196 C
HETATM   31  N3  UNL     1      18.347  27.040  -1.423  1.00  0.00    -0.067 NA
HETATM   32  N4  UNL     1      19.011  28.287   0.598  1.00  0.00    -0.067 NA
ATOM     33  H2  UNL     1      20.778  26.670  -1.625  1.00  0.00     0.161 HD
ENDBRANCH  28  29
ENDBRANCH  27  28
ENDBRANCH  26  27
ENDBRANCH   6  26
BRANCH   1  34
HETATM   34  C4  UNL     1      23.521  21.822   2.731  1.00  0.00     0.038 C
BRANCH  34  35
HETATM   35  C2  UNL     1      22.194  21.231   3.132  1.00  0.00    -0.020 C
HETATM   36  C1  UNL     1      22.518  19.969   3.929  1.00  0.00     0.009 C
HETATM   37  C3  UNL     1      21.483  20.817   1.860  1.00  0.00     0.009 C
ENDBRANCH  34  35
ENDBRANCH   1  34
BRANCH  11  38
HETATM   38  C14 UNL     1      26.471  27.431   2.264  1.00  0.00     0.067 C
BRANCH  38  39
HETATM   39  C15 UNL     1      26.124  27.744   0.836  1.00  0.00    -0.017 C
HETATM   40  C16 UNL     1      25.575  26.587   0.054  1.00  0.00     0.010 C
HETATM   41  C17 UNL     1      25.482  29.051   0.557  1.00  0.00     0.010 C
ENDBRANCH  38  39
ENDBRANCH  11  38
BRANCH  21  42
HETATM   42  C26 UNL     1      27.542  22.747   5.995  1.00  0.00     0.091 C
BRANCH  42  43
HETATM   43  C27 UNL     1      27.326  21.885   7.170  1.00  0.00     0.011 A
HETATM   44  C28 UNL     1      26.793  20.601   7.073  1.00  0.00     0.026 A
HETATM   45  C29 UNL     1      26.741  20.084   8.352  1.00  0.00     0.019 A
HETATM   46  C30 UNL     1      27.241  21.067   9.167  1.00  0.00     0.088 A
HETATM   47  N8  UNL     1      27.595  22.158   8.449  1.00  0.00    -0.369 N
ATOM     48  H8  UNL     1      27.991  23.024   8.815  1.00  0.00     0.165 HD
ENDBRANCH  42  43
ENDBRANCH  21  42
BRANCH  16  49
HETATM   49  C21 UNL     1      28.834  26.534   6.912  1.00  0.00     0.009 C
HETATM   50  C22 UNL     1      29.794  25.437   6.653  1.00  0.00     0.012 C
HETATM   51  C23 UNL     1      28.207  26.334   8.271  1.00  0.00     0.012 C
ENDBRANCH  16  49
TORSDOF 11
ENDMDL