MODEL 2
REMARK VINA RESULT: -6.598840393      2.166      4.505
REMARK  12 active torsions:
REMARK  status: ('A' for Active; 'I' for Inactive)
REMARK    1  A    between atoms: C4_6  and  C5_7
REMARK    2  A    between atoms: C5_7  and  C6_8
REMARK    3  A    between atoms: C8_13  and  C9_14
REMARK    4  A    between atoms: C9_14  and  C10_15
REMARK    5  A    between atoms: C18_25  and  O3_26
REMARK    6  A    between atoms: C19_30  and  C20_31
REMARK    7  A    between atoms: C20_31  and  C21_32
REMARK    8  A    between atoms: C21_32  and  C22_33
REMARK    9  A    between atoms: C22_33  and  C23_34
REMARK   10  A    between atoms: C23_34  and  N5_35
REMARK   11  A    between atoms: C25_43  and  C26_44
REMARK   12  A    between atoms: C26_44  and  N7_45
ROOT
HETATM    1  C6  UNL     1      26.122  23.069   6.600  1.00  0.00     0.153 C
HETATM    2  C7  UNL     1      26.730  22.045   5.750  1.00  0.00     0.230 C
HETATM    3  O1  UNL     1      27.972  22.220   5.466  1.00  0.00    -0.273 OA
HETATM    4  N2  UNL     1      26.161  20.891   5.196  1.00  0.00    -0.347 N
ATOM      5  H2  UNL     1      26.777  20.081   5.135  1.00  0.00     0.163 HD
HETATM    6  C8  UNL     1      24.825  20.696   4.701  1.00  0.00     0.177 C
HETATM    7  C13 UNL     1      24.743  20.443   3.246  1.00  0.00     0.243 C
HETATM    8  O2  UNL     1      25.768  19.847   2.737  1.00  0.00    -0.271 OA
HETATM    9  N3  UNL     1      23.733  20.749   2.341  1.00  0.00    -0.338 N
HETATM   10  C14 UNL     1      22.879  19.978   1.420  1.00  0.00     0.127 C
HETATM   11  C15 UNL     1      21.513  20.502   1.889  1.00  0.00     0.022 C
HETATM   12  C16 UNL     1      21.794  21.924   2.407  1.00  0.00     0.035 C
HETATM   13  C17 UNL     1      23.203  22.105   2.032  1.00  0.00     0.161 C
HETATM   14  C18 UNL     1      24.001  23.139   2.688  1.00  0.00     0.135 C
HETATM   15  N4  UNL     1      23.718  24.191   3.529  1.00  0.00    -0.359 N
ATOM     16  H4  UNL     1      23.844  23.904   4.500  1.00  0.00     0.162 HD
HETATM   17  C19 UNL     1      23.309  25.544   3.475  1.00  0.00     0.175 C
HETATM   18  C24 UNL     1      23.748  26.256   4.750  1.00  0.00     0.241 C
HETATM   19  O4  UNL     1      23.141  27.329   4.972  1.00  0.00    -0.271 OA
HETATM   20  N6  UNL     1      24.740  25.787   5.626  1.00  0.00    -0.346 N
ATOM     21  H6  UNL     1      24.501  25.740   6.618  1.00  0.00     0.163 HD
HETATM   22  C25 UNL     1      26.108  25.352   5.237  1.00  0.00     0.181 C
HETATM   23  C30 UNL     1      26.650  24.432   6.247  1.00  0.00     0.164 C
HETATM   24  O5  UNL     1      27.626  24.753   6.901  1.00  0.00    -0.295 OA
ENDROOT
BRANCH   1  25
HETATM   25  C5  UNL     1      26.354  22.915   8.068  1.00  0.00     0.062 C
BRANCH  25  26
HETATM   26  C4  UNL     1      26.559  21.568   8.574  1.00  0.00    -0.034 A
HETATM   27  C3  UNL     1      27.793  20.887   8.667  1.00  0.00     0.095 A
HETATM   28  N1  UNL     1      27.600  19.678   9.217  1.00  0.00    -0.368 N
HETATM   29  C2  UNL     1      26.297  19.529   9.491  1.00  0.00     0.011 A
ATOM     30  H1  UNL     1      28.326  18.985   9.397  1.00  0.00     0.165 HD
HETATM   31  C1  UNL     1      25.676  18.331  10.104  1.00  0.00     0.068 C
HETATM   32  C31 UNL     1      25.657  20.690   9.096  1.00  0.00    -0.032 A
HETATM   33  C32 UNL     1      24.196  20.863   9.211  1.00  0.00     0.050 C
ENDBRANCH  25  26
ENDBRANCH   1  25
BRANCH  22  34
HETATM   34  C26 UNL     1      26.897  26.621   5.195  1.00  0.00     0.268 C
BRANCH  34  35
HETATM   35  N7  UNL     1      27.217  27.252   3.986  1.00  0.00    -0.076 N
HETATM   36  C27 UNL     1      26.796  26.668   2.762  1.00  0.00     0.271 C
HETATM   37  C28 UNL     1      28.647  27.587   3.863  1.00  0.00     0.271 C
HETATM   38  C29 UNL     1      26.584  28.617   3.982  1.00  0.00     0.271 C
ENDBRANCH  34  35
ENDBRANCH  22  34
BRANCH   6  39
HETATM   39  C9  UNL     1      24.028  19.724   5.507  1.00  0.00     0.038 C
BRANCH  39  40
HETATM   40  C10 UNL     1      24.695  18.576   6.132  1.00  0.00    -0.020 C
HETATM   41  C11 UNL     1      23.686  17.996   7.164  1.00  0.00     0.009 C
HETATM   42  C12 UNL     1      24.972  17.422   5.183  1.00  0.00     0.009 C
ENDBRANCH  39  40
ENDBRANCH   6  39
BRANCH  17  43
HETATM   43  C20 UNL     1      23.643  26.344   2.282  1.00  0.00     0.035 C
BRANCH  43  44
HETATM   44  C21 UNL     1      22.741  26.285   1.121  1.00  0.00     0.004 C
BRANCH  44  45
HETATM   45  C22 UNL     1      23.378  26.221  -0.215  1.00  0.00     0.027 C
BRANCH  45  46
HETATM   46  C23 UNL     1      24.737  25.526  -0.147  1.00  0.00     0.229 C
BRANCH  46  47
HETATM   47  N5  UNL     1      24.690  24.178  -0.611  1.00  0.00    -0.079 N
ATOM     48  H53 UNL     1      23.787  23.968  -1.037  1.00  0.00     0.274 HD
ATOM     49  H52 UNL     1      25.290  24.051  -1.427  1.00  0.00     0.274 HD
ATOM     50  H51 UNL     1      24.916  23.502   0.119  1.00  0.00     0.274 HD
ENDBRANCH  46  47
ENDBRANCH  45  46
ENDBRANCH  44  45
ENDBRANCH  43  44
ENDBRANCH  17  43
BRANCH  14  51
HETATM   51  O3  UNL     1      25.253  22.922   2.334  1.00  0.00    -0.348 OA
ATOM     52  H3  UNL     1      25.731  22.748   3.136  1.00  0.00     0.219 HD
ENDBRANCH  14  51
TORSDOF 12
ENDMDL