MODEL 3
REMARK VINA RESULT: -6.161267953      6.749     11.065
REMARK  13 active torsions:
REMARK  status: ('A' for Active; 'I' for Inactive)
REMARK    1  A    between atoms: C3_5  and  C4_6
REMARK    2  A    between atoms: C7_9  and  C8_10
REMARK    3  A    between atoms: C8_10  and  C9_11
REMARK    4  A    between atoms: C10_14  and  C11_15
REMARK    5  A    between atoms: C11_15  and  C12_16
REMARK    6  A    between atoms: C12_16  and  C13_17
REMARK    7  A    between atoms: C17_23  and  C18_24
REMARK    8  A    between atoms: C18_24  and  C19_25
REMARK    9  A    between atoms: C23_32  and  C24_33
REMARK   10  A    between atoms: C24_33  and  C25_34
REMARK   11  A    between atoms: C26_39  and  O4_40
REMARK   12  A    between atoms: C27_42  and  C28_43
REMARK   13  A    between atoms: C28_43  and  C29_44
ROOT
HETATM    1  C9  UNL     1      17.488  -3.927   5.348  1.00  0.00     0.175 C
HETATM    2  N2  UNL     1      17.014  -2.630   5.129  1.00  0.00    -0.388 N
ATOM      3  H2  UNL     1      16.044  -2.480   4.856  1.00  0.00     0.156 HD
HETATM    4  C10 UNL     1      17.889  -1.519   5.289  1.00  0.00     0.182 C
HETATM    5  N3  UNL     1      17.132  -0.587   6.153  1.00  0.00    -0.330 N
HETATM    6  C15 UNL     1      16.018   0.034   5.457  1.00  0.00     0.155 C
HETATM    7  C16 UNL     1      17.440  -0.350   7.514  1.00  0.00     0.267 C
HETATM    8  O1  UNL     1      16.388  -0.382   8.264  1.00  0.00    -0.266 OA
HETATM    9  C17 UNL     1      18.705  -0.096   8.154  1.00  0.00     0.081 C
HETATM   10  N4  UNL     1      19.526  -1.204   8.481  1.00  0.00    -0.320 N
ATOM     11  H4  UNL     1      20.246  -1.402   7.786  1.00  0.00     0.169 HD
HETATM   12  C22 UNL     1      19.541  -2.081   9.576  1.00  0.00     0.272 C
HETATM   13  O2  UNL     1      20.722  -2.302  10.037  1.00  0.00    -0.266 OA
HETATM   14  C23 UNL     1      18.381  -2.746  10.219  1.00  0.00     0.107 C
HETATM   15  N6  UNL     1      17.708  -3.726   9.403  1.00  0.00    -0.334 N
ATOM     16  H6  UNL     1      16.763  -3.445   9.143  1.00  0.00     0.168 HD
HETATM   17  C26 UNL     1      18.066  -4.971   8.893  1.00  0.00     0.139 C
HETATM   18  C27 UNL     1      19.036  -5.385   7.863  1.00  0.00     0.159 C
HETATM   19  N7  UNL     1      19.464  -4.444   6.915  1.00  0.00    -0.347 N
ATOM     20  H7  UNL     1      20.317  -3.947   7.171  1.00  0.00     0.163 HD
HETATM   21  C32 UNL     1      18.927  -4.066   5.680  1.00  0.00     0.241 C
HETATM   22  O5  UNL     1      19.741  -3.809   4.726  1.00  0.00    -0.271 OA
ENDROOT
BRANCH   1  23
HETATM   23  C8  UNL     1      17.107  -4.905   4.253  1.00  0.00     0.075 C
BRANCH  23  24
HETATM   24  C7  UNL     1      16.888  -6.284   4.741  1.00  0.00    -0.028 A
HETATM   25  C2  UNL     1      17.123  -7.450   4.063  1.00  0.00     0.029 A
HETATM   26  C1  UNL     1      17.672  -7.606   2.847  1.00  0.00     0.043 C
HETATM   27  N1  UNL     1      16.726  -8.491   4.850  1.00  0.00    -0.357 N
HETATM   28  C3  UNL     1      16.250  -8.019   6.008  1.00  0.00     0.029 A
ATOM     29  H1  UNL     1      16.784  -9.477   4.595  1.00  0.00     0.166 HD
HETATM   30  C6  UNL     1      16.339  -6.657   5.969  1.00  0.00     0.038 A
BRANCH  28  31
HETATM   31  C4  UNL     1      15.776  -8.786   7.005  1.00  0.00    -0.002 C
HETATM   32  C5  UNL     1      15.634 -10.241   6.764  1.00  0.00     0.038 C
ENDBRANCH  28  31
ENDBRANCH  23  24
ENDBRANCH   1  23
BRANCH   4  33
HETATM   33  C11 UNL     1      18.084  -0.803   3.971  1.00  0.00     0.046 C
BRANCH  33  34
HETATM   34  C12 UNL     1      19.232   0.148   3.962  1.00  0.00     0.003 C
BRANCH  34  35
HETATM   35  C13 UNL     1      18.820   1.600   4.044  1.00  0.00    -0.004 C
HETATM   36  C14 UNL     1      18.425   2.036   2.634  1.00  0.00     0.005 C
ENDBRANCH  34  35
ENDBRANCH  33  34
ENDBRANCH   4  33
BRANCH  18  37
HETATM   37  C28 UNL     1      20.208  -6.034   8.616  1.00  0.00     0.037 C
BRANCH  37  38
HETATM   38  C29 UNL     1      20.744  -7.217   7.838  1.00  0.00    -0.020 C
HETATM   39  C30 UNL     1      19.550  -8.029   7.382  1.00  0.00     0.009 C
HETATM   40  C31 UNL     1      21.543  -6.757   6.639  1.00  0.00     0.009 C
ENDBRANCH  37  38
ENDBRANCH  18  37
BRANCH  17  41
HETATM   41  O4  UNL     1      17.463  -6.032   9.373  1.00  0.00    -0.348 OA
ATOM     42  H4  UNL     1      16.985  -5.944  10.189  1.00  0.00     0.219 HD
ENDBRANCH  17  41
BRANCH   9  43
HETATM   43  C18 UNL     1      18.703   0.887   9.294  1.00  0.00     0.067 C
BRANCH  43  44
HETATM   44  C19 UNL     1      18.498   2.311   8.959  1.00  0.00    -0.017 C
HETATM   45  C20 UNL     1      19.003   3.219  10.088  1.00  0.00     0.010 C
HETATM   46  C21 UNL     1      18.932   2.811   7.632  1.00  0.00     0.010 C
ENDBRANCH  43  44
ENDBRANCH   9  43
BRANCH  14  47
HETATM   47  C24 UNL     1      18.545  -3.109  11.652  1.00  0.00     0.106 C
BRANCH  47  48
HETATM   48  C25 UNL     1      18.673  -2.123  12.680  1.00  0.00     0.257 C
HETATM   49  N5  UNL     1      18.226  -0.773  12.658  1.00  0.00    -0.058 NA
HETATM   50  O3  UNL     1      19.252  -2.430  13.787  1.00  0.00    -0.272 OA
ENDBRANCH  47  48
ENDBRANCH  14  47
TORSDOF 13
ENDMDL