MODEL 4
REMARK VINA RESULT: -6.540693823      0.972      1.180
REMARK  13 active torsions:
REMARK  status: ('A' for Active; 'I' for Inactive)
REMARK    1  A    between atoms: C2_2  and  C3_3
REMARK    2  A    between atoms: C2_2  and  C31_46
REMARK    3  A    between atoms: C4_4  and  C5_5
REMARK    4  A    between atoms: N1_8  and  C8_9
REMARK    5  A    between atoms: C8_9  and  C9_10
REMARK    6  A    between atoms: C9_10  and  C10_12
REMARK    7  A    between atoms: C10_12  and  C11_13
REMARK    8  A    between atoms: C14_17  and  C15_18
REMARK    9  A    between atoms: C19_25  and  C20_26
REMARK   10  A    between atoms: C20_26  and  C21_27
REMARK   11  A    between atoms: C25_34  and  C26_35
REMARK   12  A    between atoms: C26_35  and  C28_37
REMARK   13  A    between atoms: C30_41  and  O5_42
REMARK       I    between atoms: C31_46  and  N6_48
ROOT
HETATM    1  C5  UNL     1      17.226  -3.633   3.387  1.00  0.00     0.091 C
HETATM    2  C6  UNL     1      17.387  -4.878   3.936  1.00  0.00     0.038 C
HETATM    3  C7  UNL     1      17.207  -5.971   2.981  1.00  0.00     0.183 C
HETATM    4  N1  UNL     1      15.882  -6.158   2.393  1.00  0.00    -0.338 N
HETATM    5  C13 UNL     1      14.708  -6.358   3.151  1.00  0.00     0.243 C
HETATM    6  O2  UNL     1      13.635  -5.730   2.842  1.00  0.00    -0.271 OA
HETATM    7  C14 UNL     1      14.605  -7.286   4.337  1.00  0.00     0.180 C
HETATM    8  N2  UNL     1      14.880  -8.642   3.928  1.00  0.00    -0.346 N
ATOM      9  H2  UNL     1      14.360  -8.956   3.108  1.00  0.00     0.163 HD
HETATM   10  C18 UNL     1      15.744  -9.595   4.472  1.00  0.00     0.241 C
HETATM   11  O3  UNL     1      16.579 -10.130   3.656  1.00  0.00    -0.271 OA
HETATM   12  C19 UNL     1      15.771 -10.043   5.904  1.00  0.00     0.177 C
HETATM   13  N3  UNL     1      15.872  -8.997   6.864  1.00  0.00    -0.346 N
ATOM     14  H3  UNL     1      15.049  -8.813   7.437  1.00  0.00     0.163 HD
HETATM   15  C24 UNL     1      17.025  -8.179   7.098  1.00  0.00     0.241 C
HETATM   16  O4  UNL     1      16.894  -7.267   7.976  1.00  0.00    -0.271 OA
HETATM   17  C25 UNL     1      18.311  -8.292   6.435  1.00  0.00     0.181 C
HETATM   18  N4  UNL     1      18.959  -7.091   6.000  1.00  0.00    -0.343 N
ATOM     19  H4  UNL     1      19.865  -7.258   5.562  1.00  0.00     0.164 HD
HETATM   20  C30 UNL     1      18.611  -5.744   6.051  1.00  0.00     0.217 C
HETATM   21  N5  UNL     1      17.665  -4.994   5.325  1.00  0.00    -0.324 N
ATOM     22  H5  UNL     1      17.060  -4.421   5.912  1.00  0.00     0.169 HD
ENDROOT
BRANCH   1  23
HETATM   23  C4  UNL     1      17.354  -2.458   4.116  1.00  0.00    -0.071 C
HETATM   24  C3  UNL     1      17.485  -1.523   4.806  1.00  0.00    -0.057 C
BRANCH  24  25
HETATM   25  C2  UNL     1      17.644  -0.354   5.654  1.00  0.00     0.076 C
HETATM   26  C1  UNL     1      18.275   0.679   4.997  1.00  0.00     0.039 C
BRANCH  25  27
HETATM   27  C31 UNL     1      17.531  -0.235   7.094  1.00  0.00     0.265 C
HETATM   28  O6  UNL     1      17.238  -1.107   7.906  1.00  0.00    -0.267 OA
HETATM   29  N6  UNL     1      17.817   1.107   7.595  1.00  0.00    -0.299 N
HETATM   30  C32 UNL     1      18.636   1.217   8.614  1.00  0.00     0.203 C
ATOM     31  H6  UNL     1      17.395   1.931   7.167  1.00  0.00     0.171 HD
HETATM   32  N7  UNL     1      18.946   2.486   9.133  1.00  0.00    -0.066 NA
HETATM   33  N8  UNL     1      19.192   0.059   9.202  1.00  0.00    -0.066 NA
ENDBRANCH  25  27
ENDBRANCH  24  25
ENDBRANCH   1  23
BRANCH   4  34
HETATM   34  C8  UNL     1      15.767  -6.235   0.930  1.00  0.00     0.204 C
BRANCH  34  35
HETATM   35  C9  UNL     1      15.887  -4.974   0.204  1.00  0.00     0.144 C
HETATM   36  O1  UNL     1      15.340  -3.920   0.430  1.00  0.00    -0.296 OA
BRANCH  35  37
HETATM   37  C10 UNL     1      16.814  -4.938  -1.003  1.00  0.00     0.079 C
BRANCH  37  38
HETATM   38  C11 UNL     1      17.961  -5.881  -0.862  1.00  0.00     0.003 C
HETATM   39  C12 UNL     1      19.223  -5.281  -0.320  1.00  0.00     0.005 C
ENDBRANCH  37  38
ENDBRANCH  35  37
ENDBRANCH  34  35
ENDBRANCH   4  34
BRANCH  20  40
HETATM   40  O5  UNL     1      19.336  -5.093   6.970  1.00  0.00    -0.333 OA
ATOM     41  H5  UNL     1      20.246  -5.363   6.941  1.00  0.00     0.220 HD
ENDBRANCH  20  40
BRANCH   7  42
HETATM   42  C15 UNL     1      13.225  -7.191   4.969  1.00  0.00     0.009 C
HETATM   43  C16 UNL     1      13.231  -6.735   6.391  1.00  0.00     0.012 C
HETATM   44  C17 UNL     1      12.414  -8.428   4.742  1.00  0.00     0.012 C
ENDBRANCH   7  42
BRANCH  17  45
HETATM   45  C26 UNL     1      19.230  -9.146   7.293  1.00  0.00     0.013 C
HETATM   46  C27 UNL     1      20.605  -8.516   7.377  1.00  0.00     0.012 C
BRANCH  45  47
HETATM   47  C28 UNL     1      19.343 -10.557   6.846  1.00  0.00     0.002 C
HETATM   48  C29 UNL     1      18.615 -11.552   7.723  1.00  0.00     0.005 C
ENDBRANCH  45  47
ENDBRANCH  17  45
BRANCH  12  49
HETATM   49  C20 UNL     1      14.597 -10.963   6.055  1.00  0.00     0.038 C
BRANCH  49  50
HETATM   50  C21 UNL     1      14.113 -11.248   7.420  1.00  0.00    -0.020 C
HETATM   51  C22 UNL     1      12.571 -11.083   7.365  1.00  0.00     0.009 C
HETATM   52  C23 UNL     1      14.372 -12.640   7.906  1.00  0.00     0.009 C
ENDBRANCH  49  50
ENDBRANCH  12  49
TORSDOF 13
ENDMDL