MODEL 1
REMARK VINA RESULT: -9.554128123      0.000      0.000
REMARK  11 active torsions:
REMARK  status: ('A' for Active; 'I' for Inactive)
REMARK    1  A    between atoms: C1_2  and  C2_4
REMARK    2  A    between atoms: C2_4  and  C3_5
REMARK    3  A    between atoms: C2_4  and  N5_13
REMARK    4  A    between atoms: C3_5  and  C4_6
REMARK    5  A    between atoms: C4_6  and  C5_7
REMARK    6  A    between atoms: C5_7  and  N2_8
REMARK       I    between atoms: N5_13  and  C7_15
REMARK    7  A    between atoms: C7_15  and  C8_17
REMARK    8  A    between atoms: C8_17  and  N6_18
REMARK       I    between atoms: N6_18  and  C9_20
REMARK       I    between atoms: C9_20  and  N7_22
REMARK    9  A    between atoms: N7_22  and  C10_24
REMARK   10  A    between atoms: N9_34  and  C18_35
REMARK   11  A    between atoms: C18_35  and  C19_36
ROOT
HETATM    1  C8  UNL     1      18.880  -0.478  12.789  1.00  0.00     0.116 C
HETATM    2  C24 UNL     1      17.434  -0.203  13.106  1.00  0.00     0.046 C
HETATM    3  C25 UNL     1      17.279  -0.467  14.586  1.00  0.00    -0.008 C
HETATM    4  C26 UNL     1      16.300   0.482  15.256  1.00  0.00     0.005 C
HETATM    5  C27 UNL     1      16.569   0.397  16.749  1.00  0.00     0.000 C
HETATM    6  C28 UNL     1      17.411  -0.810  17.112  1.00  0.00     0.000 C
HETATM    7  C29 UNL     1      18.760  -0.803  16.467  1.00  0.00     0.005 C
HETATM    8  C30 UNL     1      18.640  -0.099  15.122  1.00  0.00    -0.008 C
HETATM    9  C31 UNL     1      19.584  -0.613  14.112  1.00  0.00     0.046 C
ENDROOT
BRANCH   1  10
HETATM   10  C7  UNL     1      19.397   0.690  12.007  1.00  0.00     0.246 C
HETATM   11  N5  UNL     1      18.585   1.760  11.625  1.00  0.00    -0.346 N
ATOM     12  H5  UNL     1      17.599   1.747  11.885  1.00  0.00     0.163 HD
HETATM   13  O2  UNL     1      20.628   0.687  11.686  1.00  0.00    -0.271 OA
BRANCH  11  14
HETATM   14  C2  UNL     1      19.116   2.935  10.842  1.00  0.00     0.173 C
BRANCH  14  15
HETATM   15  C1  UNL     1      19.027   4.107  11.702  1.00  0.00     0.254 C
HETATM   16  N1  UNL     1      18.463   4.081  13.027  1.00  0.00    -0.060 NA
HETATM   17  O1  UNL     1      19.446   5.227  11.303  1.00  0.00    -0.275 OA
ENDBRANCH  14  15
BRANCH  14  18
HETATM   18  C3  UNL     1      18.280   2.902   9.599  1.00  0.00     0.036 C
BRANCH  18  19
HETATM   19  C4  UNL     1      18.784   2.391   8.335  1.00  0.00     0.022 C
BRANCH  19  20
HETATM   20  C5  UNL     1      18.902   0.926   8.130  1.00  0.00     0.122 C
BRANCH  20  21
HETATM   21  N2  UNL     1      17.636   0.351   7.661  1.00  0.00    -0.367 N
HETATM   22  C6  UNL     1      17.455   0.125   6.400  1.00  0.00     0.196 C
HETATM   23  N3  UNL     1      16.194  -0.437   6.020  1.00  0.00    -0.067 NA
HETATM   24  N4  UNL     1      18.482   0.437   5.489  1.00  0.00    -0.067 NA
ATOM     25  H2  UNL     1      16.898   0.129   8.329  1.00  0.00     0.161 HD
ENDBRANCH  20  21
ENDBRANCH  19  20
ENDBRANCH  18  19
ENDBRANCH  14  18
ENDBRANCH  11  14
ENDBRANCH   1  10
BRANCH   1  26
HETATM   26  N6  UNL     1      19.044  -1.710  12.011  1.00  0.00    -0.325 N
HETATM   27  C9  UNL     1      18.204  -2.016  10.916  1.00  0.00     0.317 C
HETATM   28  O3  UNL     1      17.291  -1.193  10.621  1.00  0.00    -0.247 OA
HETATM   29  N7  UNL     1      18.309  -3.175  10.125  1.00  0.00    -0.330 N
ATOM     30  H7  UNL     1      19.035  -3.857  10.339  1.00  0.00     0.165 HD
ATOM     31  H6  UNL     1      19.784  -2.363  12.268  1.00  0.00     0.165 HD
BRANCH  29  32
HETATM   32  C10 UNL     1      17.416  -3.422   9.021  1.00  0.00     0.180 C
HETATM   33  C11 UNL     1      16.747  -4.759   9.247  1.00  0.00     0.063 C
HETATM   34  C12 UNL     1      15.888  -5.159   8.083  1.00  0.00     0.252 C
HETATM   35  N8  UNL     1      16.505  -6.198   7.271  1.00  0.00     0.014 N
HETATM   36  C13 UNL     1      15.569  -6.732   6.310  1.00  0.00     0.249 C
HETATM   37  C16 UNL     1      16.918  -7.319   8.060  1.00  0.00     0.249 C
HETATM   38  C17 UNL     1      17.611  -5.613   6.605  1.00  0.00     0.424 C
HETATM   39  C14 UNL     1      16.140  -8.064   5.935  1.00  0.00     0.030 C
HETATM   40  C15 UNL     1      17.061  -8.436   7.057  1.00  0.00     0.030 C
HETATM   41  O4  UNL     1      18.268  -6.375   5.813  1.00  0.00    -0.239 OA
HETATM   42  N9  UNL     1      18.156  -4.307   6.640  1.00  0.00    -0.262 N
HETATM   43  C23 UNL     1      18.138  -3.382   7.729  1.00  0.00     0.250 C
HETATM   44  O5  UNL     1      18.850  -2.360   7.576  1.00  0.00    -0.271 OA
BRANCH  42  45
HETATM   45  C18 UNL     1      18.794  -3.892   5.414  1.00  0.00     0.141 C
BRANCH  45  46
HETATM   46  C19 UNL     1      17.893  -3.184   4.462  1.00  0.00     0.004 C
HETATM   47  C20 UNL     1      18.723  -2.625   3.294  1.00  0.00     0.006 C
HETATM   48  C21 UNL     1      17.521  -2.958   2.406  1.00  0.00     0.001 C
HETATM   49  C22 UNL     1      17.213  -4.061   3.403  1.00  0.00     0.006 C
ENDBRANCH  45  46
ENDBRANCH  42  45
ENDBRANCH  29  32
ENDBRANCH   1  26
TORSDOF 11
ENDMDL