MODEL 5
REMARK VINA RESULT: -6.650004124      2.378      8.984
REMARK  14 active torsions:
REMARK  status: ('A' for Active; 'I' for Inactive)
REMARK    1  A    between atoms: C3_3  and  C4_4
REMARK    2  A    between atoms: C4_4  and  N1_5
REMARK    3  A    between atoms: N1_5  and  C7_8
REMARK    4  A    between atoms: C7_8  and  N2_9
REMARK       I    between atoms: N2_9  and  C8_11
REMARK    5  A    between atoms: C8_11  and  C9_13
REMARK    6  A    between atoms: C11_18  and  C12_19
REMARK    7  A    between atoms: C12_19  and  C13_20
REMARK    8  A    between atoms: C13_20  and  C14_21
REMARK    9  A    between atoms: C17_27  and  C18_28
REMARK   10  A    between atoms: C22_34  and  C23_35
REMARK   11  A    between atoms: C23_35  and  C24_36
REMARK   12  A    between atoms: C27_41  and  O5_42
REMARK   13  A    between atoms: C28_44  and  C29_45
REMARK   14  A    between atoms: C31_49  and  O6_50
ROOT
HETATM    1  C1  UNL     1      20.026  -5.216  10.232  1.00  0.00     0.112 C
HETATM    2  C2  UNL     1      19.535  -3.839  10.282  1.00  0.00    -0.109 C
HETATM    3  C3  UNL     1      19.136  -2.705  10.320  1.00  0.00    -0.079 C
ENDROOT
BRANCH   3   4
HETATM    4  C4  UNL     1      18.652  -1.306  10.341  1.00  0.00     0.331 C
BRANCH   4   5
HETATM    5  N1  UNL     1      18.270  -0.894   9.017  1.00  0.00    -0.049 N
HETATM    6  C5  UNL     1      19.406  -0.909   8.144  1.00  0.00     0.275 C
HETATM    7  C6  UNL     1      17.829   0.506   9.135  1.00  0.00     0.275 C
BRANCH   5   8
HETATM    8  C7  UNL     1      17.210  -1.715   8.470  1.00  0.00     0.362 C
BRANCH   8   9
HETATM    9  N2  UNL     1      17.698  -2.481   7.349  1.00  0.00    -0.335 N
HETATM   10  C8  UNL     1      17.459  -3.872   7.203  1.00  0.00     0.249 C
HETATM   11  O1  UNL     1      16.807  -4.483   8.062  1.00  0.00    -0.271 OA
ATOM     12  H2  UNL     1      18.238  -2.002   6.629  1.00  0.00     0.164 HD
BRANCH  10  13
HETATM   13  C9  UNL     1      17.986  -4.636   6.014  1.00  0.00     0.251 C
HETATM   14  N3  UNL     1      16.878  -5.200   5.358  1.00  0.00    -0.339 N
HETATM   15  C10 UNL     1      16.505  -5.182   3.990  1.00  0.00     0.241 C
ATOM     16  H3  UNL     1      16.236  -5.705   5.967  1.00  0.00     0.163 HD
HETATM   17  O2  UNL     1      15.268  -5.052   3.755  1.00  0.00    -0.271 OA
HETATM   18  C11 UNL     1      17.409  -5.298   2.851  1.00  0.00     0.176 C
HETATM   19  N4  UNL     1      17.372  -6.481   2.062  1.00  0.00    -0.346 N
HETATM   20  C16 UNL     1      16.371  -7.299   1.576  1.00  0.00     0.241 C
ATOM     21  H4  UNL     1      18.302  -6.800   1.792  1.00  0.00     0.163 HD
HETATM   22  O3  UNL     1      16.223  -7.306   0.287  1.00  0.00    -0.271 OA
HETATM   23  C17 UNL     1      15.403  -8.197   2.245  1.00  0.00     0.178 C
HETATM   24  N5  UNL     1      15.904  -9.576   2.294  1.00  0.00    -0.341 N
HETATM   25  C20 UNL     1      15.606 -10.389   1.096  1.00  0.00     0.153 C
HETATM   26  C21 UNL     1      16.611 -10.215   3.285  1.00  0.00     0.243 C
HETATM   27  O4  UNL     1      17.534 -11.030   2.954  1.00  0.00    -0.271 OA
HETATM   28  C22 UNL     1      16.447 -10.086   4.797  1.00  0.00     0.176 C
HETATM   29  N6  UNL     1      16.985  -8.831   5.217  1.00  0.00    -0.359 N
HETATM   30  C27 UNL     1      18.165  -8.292   5.666  1.00  0.00     0.135 C
ATOM     31  H6  UNL     1      16.267  -8.108   5.166  1.00  0.00     0.162 HD
HETATM   32  C28 UNL     1      18.744  -8.029   7.006  1.00  0.00     0.157 C
HETATM   33  N7  UNL     1      19.200  -6.652   7.157  1.00  0.00    -0.360 N
HETATM   34  C31 UNL     1      19.112  -5.519   6.394  1.00  0.00     0.144 C
ATOM     35  H7  UNL     1      19.701  -6.497   8.032  1.00  0.00     0.162 HD
BRANCH  18  36
HETATM   36  C12 UNL     1      17.333  -4.010   2.001  1.00  0.00     0.035 C
BRANCH  36  37
HETATM   37  C13 UNL     1      17.344  -2.853   2.953  1.00  0.00     0.002 C
BRANCH  37  38
HETATM   38  C14 UNL     1      18.766  -2.382   3.251  1.00  0.00    -0.004 C
HETATM   39  C15 UNL     1      18.660  -0.960   3.757  1.00  0.00     0.005 C
ENDBRANCH  37  38
ENDBRANCH  36  37
ENDBRANCH  18  36
BRANCH  23  40
HETATM   40  C18 UNL     1      14.147  -8.221   1.342  1.00  0.00     0.030 C
HETATM   41  C19 UNL     1      13.077  -7.302   1.822  1.00  0.00     0.007 C
ENDBRANCH  23  40
BRANCH  28  42
HETATM   42  C23 UNL     1      16.940 -11.314   5.473  1.00  0.00     0.038 C
BRANCH  42  43
HETATM   43  C24 UNL     1      16.539 -11.496   6.904  1.00  0.00    -0.020 C
HETATM   44  C25 UNL     1      15.009 -11.647   6.976  1.00  0.00     0.009 C
HETATM   45  C26 UNL     1      17.049 -12.905   7.293  1.00  0.00     0.009 C
ENDBRANCH  42  43
ENDBRANCH  28  42
BRANCH  30  46
HETATM   46  O5  UNL     1      19.077  -7.870   4.814  1.00  0.00    -0.348 OA
ATOM     47  H5  UNL     1      19.998  -7.885   5.045  1.00  0.00     0.219 HD
ENDBRANCH  30  46
BRANCH  32  48
HETATM   48  C29 UNL     1      19.992  -8.961   7.022  1.00  0.00     0.029 C
HETATM   49  C30 UNL     1      20.984  -8.376   7.974  1.00  0.00     0.007 C
ENDBRANCH  32  48
BRANCH  34  50
HETATM   50  O6  UNL     1      20.252  -5.124   5.896  1.00  0.00    -0.348 OA
ATOM     51  H6  UNL     1      20.147  -4.561   5.138  1.00  0.00     0.219 HD
ENDBRANCH  34  50
ENDBRANCH  10  13
ENDBRANCH   8   9
ENDBRANCH   5   8
ENDBRANCH   4   5
ENDBRANCH   3   4
TORSDOF 14
ENDMDL