MODEL 4
REMARK VINA RESULT: -5.233918270     16.994     21.693
REMARK  12 active torsions:
REMARK  status: ('A' for Active; 'I' for Inactive)
REMARK    1  A    between atoms: C3_3  and  C4_4
REMARK    2  A    between atoms: C3_3  and  N4_12
REMARK    3  A    between atoms: C4_4  and  N1_5
REMARK       I    between atoms: N1_5  and  C5_7
REMARK       I    between atoms: N4_12  and  C6_14
REMARK    4  A    between atoms: C6_14  and  C7_16
REMARK    5  A    between atoms: C7_16  and  C8_17
REMARK    6  A    between atoms: C8_17  and  C9_18
REMARK    7  A    between atoms: C18_27  and  C19_28
REMARK    8  A    between atoms: C18_27  and  C21_34
REMARK    9  A    between atoms: C19_28  and  N5_29
REMARK   10  A    between atoms: C21_34  and  N8_35
REMARK   11  A    between atoms: C27_43  and  C28_44
REMARK   12  A    between atoms: C31_48  and  O3_49
ROOT
HETATM    1  C1  UNL     1      18.013   0.155  18.706  1.00  0.00     0.014 C
HETATM    2  C2  UNL     1      17.849   1.162  18.061  1.00  0.00    -0.090 C
HETATM    3  C3  UNL     1      17.660   2.388  17.254  1.00  0.00     0.181 C
ENDROOT
BRANCH   3   4
HETATM    4  C4  UNL     1      18.769   2.386  16.229  1.00  0.00     0.160 C
BRANCH   4   5
HETATM    5  N1  UNL     1      19.121   3.770  15.964  1.00  0.00    -0.362 N
HETATM    6  C5  UNL     1      18.684   4.375  14.759  1.00  0.00     0.181 C
HETATM    7  N2  UNL     1      17.534   4.012  14.296  1.00  0.00    -0.374 N
HETATM    8  N3  UNL     1      19.524   5.332  14.138  1.00  0.00    -0.064 NA
ATOM      9  H22 UNL     1      16.929   3.322  14.743  1.00  0.00     0.158 HD
ATOM     10  H21 UNL     1      17.219   4.447  13.429  1.00  0.00     0.158 HD
ATOM     11  H1  UNL     1      19.676   4.299  16.636  1.00  0.00     0.162 HD
ENDBRANCH   4   5
ENDBRANCH   3   4
BRANCH   3  12
HETATM   12  N4  UNL     1      17.723   3.567  18.086  1.00  0.00    -0.343 N
HETATM   13  C6  UNL     1      16.602   4.178  18.666  1.00  0.00     0.235 C
HETATM   14  O1  UNL     1      15.487   3.649  18.423  1.00  0.00    -0.272 OA
ATOM     15  H4  UNL     1      18.638   3.980  18.263  1.00  0.00     0.163 HD
BRANCH  13  16
HETATM   16  C7  UNL     1      16.701   5.431  19.562  1.00  0.00     0.105 C
HETATM   17  C12 UNL     1      17.123   6.494  18.584  1.00  0.00     0.028 C
HETATM   18  C13 UNL     1      16.727   6.231  17.162  1.00  0.00     0.002 C
HETATM   19  C14 UNL     1      16.246   7.452  16.397  1.00  0.00     0.000 C
HETATM   20  C15 UNL     1      15.039   7.178  15.586  1.00  0.00     0.000 C
HETATM   21  C16 UNL     1      13.691   7.297  16.259  1.00  0.00     0.002 C
HETATM   22  C17 UNL     1      13.340   8.663  16.590  1.00  0.00     0.035 C
HETATM   23  C18 UNL     1      12.160   9.148  17.290  1.00  0.00     0.075 C
HETATM   24  N9  UNL     1      12.140   9.082  18.737  1.00  0.00    -0.342 N
HETATM   25  C25 UNL     1      11.213  10.078  19.355  1.00  0.00     0.153 C
HETATM   26  C26 UNL     1      12.795   8.303  19.670  1.00  0.00     0.243 C
HETATM   27  O2  UNL     1      12.070   7.925  20.672  1.00  0.00    -0.271 OA
HETATM   28  C27 UNL     1      14.174   7.782  19.814  1.00  0.00     0.177 C
HETATM   29  N10 UNL     1      14.258   6.342  19.971  1.00  0.00    -0.355 N
HETATM   30  C30 UNL     1      12.940   5.649  19.942  1.00  0.00     0.152 C
HETATM   31  C31 UNL     1      15.373   5.534  20.145  1.00  0.00     0.132 C
BRANCH  16  32
HETATM   32  C8  UNL     1      17.827   5.048  20.464  1.00  0.00     0.032 C
BRANCH  32  33
HETATM   33  C9  UNL     1      18.667   6.049  21.120  1.00  0.00    -0.021 C
HETATM   34  C10 UNL     1      19.665   5.219  22.017  1.00  0.00     0.009 C
HETATM   35  C11 UNL     1      17.953   6.871  22.209  1.00  0.00     0.009 C
ENDBRANCH  32  33
ENDBRANCH  16  32
BRANCH  23  36
HETATM   36  C19 UNL     1      12.431  10.704  17.146  1.00  0.00     0.154 C
BRANCH  36  37
HETATM   37  N5  UNL     1      13.838  10.977  17.071  1.00  0.00    -0.364 N
HETATM   38  C20 UNL     1      14.489  11.731  17.853  1.00  0.00     0.197 C
HETATM   39  N6  UNL     1      15.889  11.892  17.637  1.00  0.00    -0.067 NA
HETATM   40  N7  UNL     1      13.921  12.433  18.941  1.00  0.00    -0.067 NA
ATOM     41  H5  UNL     1      14.359  10.522  16.322  1.00  0.00     0.161 HD
ENDBRANCH  36  37
ENDBRANCH  23  36
BRANCH  23  42
HETATM   42  C21 UNL     1      10.836   9.014  16.639  1.00  0.00     0.268 C
BRANCH  42  43
HETATM   43  N8  UNL     1      10.108   7.896  16.333  1.00  0.00    -0.076 N
HETATM   44  C22 UNL     1       8.641   8.298  16.371  1.00  0.00     0.271 C
HETATM   45  C23 UNL     1      10.169   7.510  14.905  1.00  0.00     0.271 C
HETATM   46  C24 UNL     1      10.089   6.693  17.056  1.00  0.00     0.271 C
ENDBRANCH  42  43
ENDBRANCH  23  42
BRANCH  28  47
HETATM   47  C28 UNL     1      14.722   8.536  21.040  1.00  0.00     0.030 C
HETATM   48  C29 UNL     1      15.821   9.480  20.553  1.00  0.00     0.007 C
ENDBRANCH  28  47
BRANCH  31  49
HETATM   49  O3  UNL     1      15.212   4.619  21.059  1.00  0.00    -0.348 OA
ATOM     50  H3  UNL     1      14.576   4.907  21.702  1.00  0.00     0.219 HD
ENDBRANCH  31  49
ENDBRANCH  13  16
ENDBRANCH   3  12
TORSDOF 12
ENDMDL