MODEL 3
REMARK VINA RESULT: -6.473372475      2.673      6.206
REMARK  13 active torsions:
REMARK  status: ('A' for Active; 'I' for Inactive)
REMARK    1  A    between atoms: C3_3  and  C4_4
REMARK    2  A    between atoms: C4_4  and  C6_6
REMARK    3  A    between atoms: C8_11  and  C9_12
REMARK    4  A    between atoms: C9_12  and  C10_13
REMARK    5  A    between atoms: C13_16  and  O2_17
REMARK    6  A    between atoms: C14_21  and  C15_22
REMARK    7  A    between atoms: C15_22  and  C16_23
REMARK    8  A    between atoms: C20_30  and  C21_31
REMARK    9  A    between atoms: C21_31  and  C22_32
REMARK   10  A    between atoms: C26_39  and  C27_40
REMARK   11  A    between atoms: C27_40  and  C28_41
REMARK   12  A    between atoms: C28_41  and  C29_42
REMARK   13  A    between atoms: C29_42  and  N5_43
ROOT
HETATM    1  C1  UNL     1      16.081 -12.680   3.127  1.00  0.00     0.112 C
HETATM    2  C2  UNL     1      15.601 -11.301   3.234  1.00  0.00    -0.111 C
HETATM    3  C3  UNL     1      15.198 -10.165   3.327  1.00  0.00    -0.100 C
ENDROOT
BRANCH   3   4
HETATM    4  C4  UNL     1      14.679  -8.774   3.471  1.00  0.00     0.093 C
HETATM    5  C5  UNL     1      13.877  -8.701   4.781  1.00  0.00     0.026 C
BRANCH   4   6
HETATM    6  C6  UNL     1      15.806  -7.787   3.488  1.00  0.00     0.194 C
HETATM    7  C7  UNL     1      16.710  -8.027   2.316  1.00  0.00     0.242 C
HETATM    8  O1  UNL     1      16.032  -8.070   1.211  1.00  0.00    -0.271 OA
HETATM    9  N1  UNL     1      18.083  -8.191   2.279  1.00  0.00    -0.347 N
HETATM   10  C8  UNL     1      18.963  -9.253   2.605  1.00  0.00     0.159 C
ATOM     11  H1  UNL     1      18.572  -7.362   1.941  1.00  0.00     0.163 HD
HETATM   12  C13 UNL     1      20.117  -9.017   3.467  1.00  0.00     0.135 C
HETATM   13  N2  UNL     1      20.265  -8.172   4.558  1.00  0.00    -0.359 N
HETATM   14  C14 UNL     1      19.477  -8.170   5.826  1.00  0.00     0.175 C
ATOM     15  H2  UNL     1      20.999  -7.468   4.484  1.00  0.00     0.162 HD
HETATM   16  C19 UNL     1      20.232  -7.212   6.692  1.00  0.00     0.241 C
HETATM   17  O3  UNL     1      21.242  -7.707   7.321  1.00  0.00    -0.271 OA
HETATM   18  N3  UNL     1      19.995  -5.857   6.907  1.00  0.00    -0.346 N
HETATM   19  C20 UNL     1      18.860  -5.128   7.380  1.00  0.00     0.177 C
ATOM     20  H3  UNL     1      20.793  -5.265   6.681  1.00  0.00     0.163 HD
HETATM   21  C25 UNL     1      17.533  -5.661   7.021  1.00  0.00     0.241 C
HETATM   22  O4  UNL     1      17.038  -6.538   7.779  1.00  0.00    -0.271 OA
HETATM   23  N4  UNL     1      16.792  -5.252   5.900  1.00  0.00    -0.346 N
HETATM   24  C26 UNL     1      17.248  -5.037   4.550  1.00  0.00     0.176 C
ATOM     25  H4  UNL     1      15.799  -5.085   6.064  1.00  0.00     0.163 HD
HETATM   26  C31 UNL     1      16.180  -5.268   3.550  1.00  0.00     0.243 C
HETATM   27  O5  UNL     1      15.989  -4.344   2.681  1.00  0.00    -0.271 OA
HETATM   28  N8  UNL     1      15.342  -6.388   3.436  1.00  0.00    -0.340 N
HETATM   29  C32 UNL     1      13.921  -6.183   3.230  1.00  0.00     0.153 C
BRANCH  10  30
HETATM   30  C9  UNL     1      19.349 -10.041   1.367  1.00  0.00     0.037 C
BRANCH  30  31
HETATM   31  C10 UNL     1      18.436 -11.094   0.916  1.00  0.00    -0.020 C
HETATM   32  C11 UNL     1      19.317 -12.309   0.530  1.00  0.00     0.009 C
HETATM   33  C12 UNL     1      17.511 -10.879  -0.209  1.00  0.00     0.009 C
ENDBRANCH  30  31
ENDBRANCH  10  30
BRANCH  12  34
HETATM   34  O2  UNL     1      21.174  -9.720   3.156  1.00  0.00    -0.348 OA
ATOM     35  H2  UNL     1      20.990 -10.505   2.654  1.00  0.00     0.219 HD
ENDBRANCH  12  34
BRANCH  14  36
HETATM   36  C15 UNL     1      19.453  -9.545   6.337  1.00  0.00     0.038 C
BRANCH  36  37
HETATM   37  C16 UNL     1      18.305 -10.360   6.592  1.00  0.00    -0.020 C
HETATM   38  C17 UNL     1      16.960  -9.699   6.538  1.00  0.00     0.009 C
HETATM   39  C18 UNL     1      18.208 -11.690   5.884  1.00  0.00     0.009 C
ENDBRANCH  36  37
ENDBRANCH  14  36
BRANCH  19  40
HETATM   40  C21 UNL     1      18.904  -5.076   8.920  1.00  0.00     0.038 C
BRANCH  40  41
HETATM   41  C22 UNL     1      18.806  -3.654   9.406  1.00  0.00    -0.020 C
HETATM   42  C23 UNL     1      17.331  -3.223   9.411  1.00  0.00     0.009 C
HETATM   43  C24 UNL     1      19.249  -3.621  10.865  1.00  0.00     0.009 C
ENDBRANCH  40  41
ENDBRANCH  19  40
BRANCH  24  44
HETATM   44  C27 UNL     1      17.896  -3.680   4.343  1.00  0.00     0.036 C
BRANCH  44  45
HETATM   45  C28 UNL     1      17.335  -2.579   5.169  1.00  0.00     0.022 C
BRANCH  45  46
HETATM   46  C29 UNL     1      18.546  -1.841   5.776  1.00  0.00     0.122 C
BRANCH  46  47
HETATM   47  N5  UNL     1      18.407  -0.416   5.577  1.00  0.00    -0.367 N
HETATM   48  C30 UNL     1      18.764   0.170   4.483  1.00  0.00     0.196 C
HETATM   49  N6  UNL     1      18.587   1.579   4.387  1.00  0.00    -0.067 NA
HETATM   50  N7  UNL     1      19.323  -0.499   3.363  1.00  0.00    -0.067 NA
ATOM     51  H5  UNL     1      18.012   0.148   6.329  1.00  0.00     0.161 HD
ENDBRANCH  46  47
ENDBRANCH  45  46
ENDBRANCH  44  45
ENDBRANCH  24  44
ENDBRANCH   4   6
ENDBRANCH   3   4
TORSDOF 13
ENDMDL