MODEL 1
REMARK VINA RESULT: -6.056888731      0.000      0.000
REMARK  13 active torsions:
REMARK  status: ('A' for Active; 'I' for Inactive)
REMARK    1  A    between atoms: C2_2  and  C3_3
REMARK    2  A    between atoms: C3_3  and  N1_4
REMARK    3  A    between atoms: C4_5  and  O1_6
REMARK    4  A    between atoms: C5_8  and  C6_9
REMARK    5  A    between atoms: C10_16  and  C11_17
REMARK    6  A    between atoms: C11_17  and  C12_18
REMARK    7  A    between atoms: C12_18  and  C13_19
REMARK    8  A    between atoms: C13_19  and  C14_20
REMARK    9  A    between atoms: C14_20  and  C15_21
REMARK   10  A    between atoms: C17_28  and  C18_29
REMARK   11  A    between atoms: C18_29  and  C19_30
REMARK   12  A    between atoms: C22_35  and  C23_36
REMARK   13  A    between atoms: C24_37  and  C25_38
ROOT
HETATM    1  N1  UNL     1      17.806  -3.964   3.812  1.00  0.00    -0.350 N
HETATM    2  C4  UNL     1      17.297  -5.020   4.596  1.00  0.00     0.138 C
HETATM    3  C5  UNL     1      16.111  -5.284   5.387  1.00  0.00     0.162 C
HETATM    4  N2  UNL     1      16.286  -5.786   6.722  1.00  0.00    -0.347 N
ATOM      5  H2  UNL     1      15.819  -6.681   6.867  1.00  0.00     0.163 HD
HETATM    6  C9  UNL     1      16.937  -5.339   7.853  1.00  0.00     0.241 C
HETATM    7  O2  UNL     1      16.179  -5.049   8.868  1.00  0.00    -0.271 OA
HETATM    8  C10 UNL     1      18.387  -5.125   8.121  1.00  0.00     0.176 C
HETATM    9  N4  UNL     1      18.613  -4.696   9.487  1.00  0.00    -0.346 N
ATOM     10  H4  UNL     1      18.160  -5.259  10.207  1.00  0.00     0.163 HD
HETATM   11  C16 UNL     1      19.370  -3.610   9.953  1.00  0.00     0.240 C
HETATM   12  O4  UNL     1      20.443  -3.861  10.593  1.00  0.00    -0.271 OA
HETATM   13  C17 UNL     1      19.055  -2.161   9.785  1.00  0.00     0.170 C
HETATM   14  N5  UNL     1      18.176  -2.025   8.687  1.00  0.00    -0.400 N
ATOM     15  H5  UNL     1      17.513  -2.765   8.455  1.00  0.00     0.154 HD
HETATM   16  C22 UNL     1      18.236  -0.816   7.902  1.00  0.00     0.126 C
HETATM   17  C26 UNL     1      16.953  -0.732   7.181  1.00  0.00     0.265 C
HETATM   18  N8  UNL     1      17.043  -0.784   5.700  1.00  0.00    -0.070 N
HETATM   19  C27 UNL     1      17.851   0.290   5.328  1.00  0.00     0.272 C
HETATM   20  C28 UNL     1      15.657  -0.391   5.311  1.00  0.00     0.272 C
HETATM   21  C29 UNL     1      17.238  -2.102   5.346  1.00  0.00     0.266 C
HETATM   22  C30 UNL     1      17.919  -2.547   4.112  1.00  0.00     0.051 C
HETATM   23  C31 UNL     1      19.440  -2.305   4.229  1.00  0.00     0.040 C
HETATM   24  C32 UNL     1      17.371  -1.867   2.865  1.00  0.00     0.040 C
ENDROOT
BRANCH   8  25
HETATM   25  C11 UNL     1      19.166  -6.443   8.032  1.00  0.00     0.035 C
BRANCH  25  26
HETATM   26  C12 UNL     1      20.412  -6.312   7.188  1.00  0.00     0.003 C
BRANCH  26  27
HETATM   27  C13 UNL     1      20.875  -7.676   6.693  1.00  0.00     0.009 C
BRANCH  27  28
HETATM   28  C14 UNL     1      19.906  -8.759   7.122  1.00  0.00     0.099 C
BRANCH  28  29
HETATM   29  C15 UNL     1      19.320  -9.496   5.968  1.00  0.00     0.231 C
HETATM   30  N3  UNL     1      18.183  -8.891   5.319  1.00  0.00    -0.062 NA
HETATM   31  O3  UNL     1      19.818 -10.573   5.610  1.00  0.00    -0.277 OA
ENDBRANCH  28  29
ENDBRANCH  27  28
ENDBRANCH  26  27
ENDBRANCH  25  26
ENDBRANCH   8  25
BRANCH   3  32
HETATM   32  C6  UNL     1      15.316  -6.420   4.628  1.00  0.00     0.008 C
HETATM   33  C7  UNL     1      14.628  -5.783   3.437  1.00  0.00     0.012 C
HETATM   34  C8  UNL     1      14.262  -6.987   5.544  1.00  0.00     0.012 C
ENDBRANCH   3  32
BRANCH  13  35
HETATM   35  C18 UNL     1      18.278  -1.758  11.024  1.00  0.00     0.038 C
BRANCH  35  36
HETATM   36  C19 UNL     1      19.090  -1.055  12.071  1.00  0.00    -0.020 C
HETATM   37  C20 UNL     1      19.189  -1.962  13.320  1.00  0.00     0.009 C
HETATM   38  C21 UNL     1      18.378   0.188  12.570  1.00  0.00     0.009 C
ENDBRANCH  35  36
ENDBRANCH  13  35
BRANCH   2  39
HETATM   39  O1  UNL     1      18.135  -6.014   4.594  1.00  0.00    -0.348 OA
ATOM     40  H1  UNL     1      18.899  -5.792   5.113  1.00  0.00     0.219 HD
ENDBRANCH   2  39
BRANCH   1  41
HETATM   41  C3  UNL     1      18.302  -4.310   2.446  1.00  0.00     0.152 C
BRANCH  41  42
HETATM   42  C2  UNL     1      17.258  -4.894   1.577  1.00  0.00    -0.017 C
HETATM   43  C1  UNL     1      17.534  -6.050   0.967  1.00  0.00     0.008 C
ENDBRANCH  41  42
ENDBRANCH   1  41
BRANCH  16  44
HETATM   44  C23 UNL     1      18.550   0.337   8.779  1.00  0.00     0.003 C
HETATM   45  C24 UNL     1      17.797   1.371   9.029  1.00  0.00     0.042 C
BRANCH  45  46
HETATM   46  C25 UNL     1      18.188   2.456   9.906  1.00  0.00     0.109 C
HETATM   47  N6  UNL     1      19.439   2.817  10.085  1.00  0.00    -0.388 N
ATOM     48  H62 UNL     1      20.108   2.269   9.544  1.00  0.00     0.157 HD
ATOM     49  H61 UNL     1      19.715   3.581  10.702  1.00  0.00     0.157 HD
HETATM   50  N7  UNL     1      17.260   3.219  10.657  1.00  0.00    -0.083 NA
ENDBRANCH  45  46
ENDBRANCH  16  44
TORSDOF 13
ENDMDL