MODEL 2
REMARK VINA RESULT: -5.179601909      0.891      1.753
REMARK  15 active torsions:
REMARK  status: ('A' for Active; 'I' for Inactive)
REMARK    1  A    between atoms: C3_3  and  C4_4
REMARK    2  A    between atoms: C5_5  and  C6_6
REMARK    3  A    between atoms: C15_19  and  C16_20
REMARK    4  A    between atoms: C16_20  and  C17_21
REMARK    5  A    between atoms: C18_22  and  C19_23
REMARK    6  A    between atoms: C19_23  and  C20_24
REMARK    7  A    between atoms: C20_24  and  C21_25
REMARK    8  A    between atoms: C21_25  and  C22_26
REMARK    9  A    between atoms: C25_30  and  O2_31
REMARK   10  A    between atoms: C26_33  and  C27_34
REMARK   11  A    between atoms: C27_34  and  C28_35
REMARK   12  A    between atoms: C28_35  and  C29_36
REMARK   13  A    between atoms: C29_36  and  N4_37
REMARK   14  A    between atoms: C31_44  and  O3_45
REMARK   15  A    between atoms: C32_47  and  C33_48
ROOT
HETATM    1  C1  UNL     1      19.060   3.356   9.528  1.00  0.00     0.113 C
HETATM    2  C2  UNL     1      18.726   2.191   8.724  1.00  0.00    -0.097 C
HETATM    3  C3  UNL     1      18.471   1.224   8.065  1.00  0.00    -0.015 C
ENDROOT
BRANCH   3   4
HETATM    4  C4  UNL     1      18.196   0.077   7.301  1.00  0.00    -0.008 C
HETATM    5  C5  UNL     1      17.931  -0.924   6.633  1.00  0.00    -0.035 C
BRANCH   5   6
HETATM    6  C6  UNL     1      17.611  -2.156   5.853  1.00  0.00     0.085 C
HETATM    7  C7  UNL     1      17.575  -1.950   4.566  1.00  0.00     0.031 C
HETATM    8  C8  UNL     1      17.298  -2.880   3.450  1.00  0.00     0.149 C
HETATM    9  N1  UNL     1      16.205  -3.745   3.674  1.00  0.00    -0.397 N
HETATM   10  C9  UNL     1      15.702  -4.646   2.977  1.00  0.00     0.081 C
ATOM     11  H1  UNL     1      15.742  -3.606   4.572  1.00  0.00     0.159 HD
HETATM   12  C10 UNL     1      15.976  -5.212   1.675  1.00  0.00     0.125 C
HETATM   13  C11 UNL     1      16.661  -4.433   0.635  1.00  0.00     0.032 C
HETATM   14  N2  UNL     1      16.804  -6.407   1.834  1.00  0.00    -0.341 N
HETATM   15  C12 UNL     1      18.101  -4.923   0.517  1.00  0.00     0.022 C
HETATM   16  C13 UNL     1      18.160  -6.003   1.545  1.00  0.00     0.127 C
HETATM   17  C14 UNL     1      16.237  -7.684   2.198  1.00  0.00     0.243 C
HETATM   18  O1  UNL     1      17.040  -8.653   2.155  1.00  0.00    -0.271 OA
HETATM   19  C15 UNL     1      14.869  -7.890   2.584  1.00  0.00     0.181 C
HETATM   20  N3  UNL     1      14.521  -8.194   3.933  1.00  0.00    -0.354 N
HETATM   21  C24 UNL     1      13.031  -8.382   4.085  1.00  0.00     0.152 C
HETATM   22  C25 UNL     1      15.249  -8.360   5.096  1.00  0.00     0.137 C
HETATM   23  C26 UNL     1      16.509  -7.699   5.583  1.00  0.00     0.158 C
HETATM   24  N7  UNL     1      16.221  -6.515   6.353  1.00  0.00    -0.357 N
HETATM   25  C31 UNL     1      17.003  -5.611   7.066  1.00  0.00     0.159 C
ATOM     26  H7  UNL     1      15.226  -6.291   6.382  1.00  0.00     0.162 HD
HETATM   27  C32 UNL     1      17.998  -4.609   6.685  1.00  0.00     0.060 C
HETATM   28  N8  UNL     1      17.401  -3.309   6.606  1.00  0.00    -0.349 N
ATOM     29  H8  UNL     1      16.630  -3.201   7.265  1.00  0.00     0.166 HD
BRANCH  19  30
HETATM   30  C16 UNL     1      14.367  -9.091   1.725  1.00  0.00     0.062 C
BRANCH  30  31
HETATM   31  C17 UNL     1      13.703  -8.537   0.498  1.00  0.00    -0.028 C
HETATM   32  C18 UNL     1      13.075  -7.385   0.517  1.00  0.00    -0.031 C
BRANCH  32  33
HETATM   33  C19 UNL     1      12.436  -6.886  -0.731  1.00  0.00     0.027 C
BRANCH  33  34
HETATM   34  C20 UNL     1      10.977  -6.723  -0.456  1.00  0.00     0.004 C
BRANCH  34  35
HETATM   35  C21 UNL     1      10.228  -8.046  -0.449  1.00  0.00    -0.000 C
BRANCH  35  36
HETATM   36  C22 UNL     1       9.418  -8.239   0.801  1.00  0.00    -0.005 C
HETATM   37  C23 UNL     1      10.090  -9.315   1.620  1.00  0.00     0.005 C
ENDBRANCH  35  36
ENDBRANCH  34  35
ENDBRANCH  33  34
ENDBRANCH  32  33
ENDBRANCH  30  31
ENDBRANCH  19  30
BRANCH  22  38
HETATM   38  O2  UNL     1      14.768  -9.243   5.931  1.00  0.00    -0.348 OA
ATOM     39  H2  UNL     1      13.829  -9.381   5.877  1.00  0.00     0.219 HD
ENDBRANCH  22  38
BRANCH  23  40
HETATM   40  C27 UNL     1      17.275  -8.763   6.355  1.00  0.00     0.035 C
BRANCH  40  41
HETATM   41  C28 UNL     1      18.052  -9.639   5.415  1.00  0.00     0.022 C
BRANCH  41  42
HETATM   42  C29 UNL     1      19.502  -9.214   5.314  1.00  0.00     0.122 C
BRANCH  42  43
HETATM   43  N4  UNL     1      19.721  -8.729   3.964  1.00  0.00    -0.367 N
HETATM   44  C30 UNL     1      20.319  -9.444   3.073  1.00  0.00     0.196 C
HETATM   45  N5  UNL     1      20.495  -8.899   1.780  1.00  0.00    -0.067 NA
HETATM   46  N6  UNL     1      20.791 -10.735   3.363  1.00  0.00    -0.067 NA
ATOM     47  H4  UNL     1      19.393  -7.797   3.714  1.00  0.00     0.161 HD
ENDBRANCH  42  43
ENDBRANCH  41  42
ENDBRANCH  40  41
ENDBRANCH  23  40
BRANCH  25  48
HETATM   48  O3  UNL     1      16.809  -5.653   8.357  1.00  0.00    -0.345 OA
ATOM     49  H3  UNL     1      17.416  -6.221   8.816  1.00  0.00     0.219 HD
ENDBRANCH  25  48
BRANCH  27  50
HETATM   50  C33 UNL     1      19.060  -4.963   5.727  1.00  0.00     0.057 C
HETATM   51  C34 UNL     1      20.134  -5.849   6.315  1.00  0.00     0.011 C
ENDBRANCH  27  50
ENDBRANCH   5   6
ENDBRANCH   3   4
TORSDOF 15
ENDMDL