MODEL 3
REMARK VINA RESULT: -5.379755873      2.953      6.945
REMARK  12 active torsions:
REMARK  status: ('A' for Active; 'I' for Inactive)
REMARK    1  A    between atoms: C2_2  and  C3_3
REMARK    2  A    between atoms: C3_3  and  C5_5
REMARK    3  A    between atoms: C7_10  and  C8_11
REMARK    4  A    between atoms: C8_11  and  C9_12
REMARK    5  A    between atoms: C13_17  and  O2_18
REMARK    6  A    between atoms: C14_20  and  C15_21
REMARK    7  A    between atoms: C15_21  and  C16_22
REMARK    8  A    between atoms: C16_22  and  C17_23
REMARK    9  A    between atoms: C17_23  and  N3_24
REMARK   10  A    between atoms: C20_33  and  C21_34
REMARK   11  A    between atoms: C26_42  and  C27_43
REMARK   12  A    between atoms: C27_43  and  C28_44
ROOT
HETATM    1  C5  UNL     1      17.174  -9.681   4.939  1.00  0.00     0.180 C
HETATM    2  N1  UNL     1      16.741  -8.620   4.066  1.00  0.00    -0.346 N
ATOM      3  H1  UNL     1      17.353  -7.805   4.100  1.00  0.00     0.163 HD
HETATM    4  C6  UNL     1      15.673  -8.458   3.185  1.00  0.00     0.241 C
HETATM    5  O1  UNL     1      14.713  -7.700   3.619  1.00  0.00    -0.271 OA
HETATM    6  C7  UNL     1      15.430  -8.990   1.835  1.00  0.00     0.178 C
HETATM    7  N2  UNL     1      15.218  -7.897   0.854  1.00  0.00    -0.351 N
HETATM    8  C12 UNL     1      14.277  -8.325  -0.214  1.00  0.00     0.152 C
HETATM    9  C13 UNL     1      15.718  -6.640   0.816  1.00  0.00     0.161 C
HETATM   10  C14 UNL     1      17.060  -5.994   0.822  1.00  0.00     0.063 C
HETATM   11  N6  UNL     1      17.055  -4.743   1.556  1.00  0.00    -0.325 N
ATOM     12  H6  UNL     1      17.271  -3.932   0.978  1.00  0.00     0.169 HD
HETATM   13  C19 UNL     1      16.814  -4.425   2.888  1.00  0.00     0.245 C
HETATM   14  O3  UNL     1      15.710  -3.818   3.192  1.00  0.00    -0.271 OA
HETATM   15  C20 UNL     1      17.629  -4.657   4.115  1.00  0.00     0.184 C
HETATM   16  N7  UNL     1      16.769  -5.064   5.211  1.00  0.00    -0.345 N
ATOM     17  H7  UNL     1      15.770  -4.939   5.056  1.00  0.00     0.163 HD
HETATM   18  C25 UNL     1      17.124  -5.602   6.445  1.00  0.00     0.241 C
HETATM   19  O4  UNL     1      16.613  -5.080   7.500  1.00  0.00    -0.271 OA
HETATM   20  C26 UNL     1      18.039  -6.734   6.728  1.00  0.00     0.177 C
HETATM   21  N8  UNL     1      17.234  -7.916   6.868  1.00  0.00    -0.346 N
ATOM     22  H8  UNL     1      16.426  -7.787   7.477  1.00  0.00     0.163 HD
HETATM   23  C31 UNL     1      17.332  -9.190   6.345  1.00  0.00     0.241 C
HETATM   24  O5  UNL     1      17.595 -10.147   7.153  1.00  0.00    -0.271 OA
ENDROOT
BRANCH  10  25
HETATM   25  C15 UNL     1      18.233  -6.856   0.985  1.00  0.00     0.063 C
BRANCH  25  26
HETATM   26  C16 UNL     1      18.809  -7.230  -0.363  1.00  0.00     0.026 C
BRANCH  26  27
HETATM   27  C17 UNL     1      20.286  -7.007  -0.423  1.00  0.00     0.122 C
BRANCH  27  28
HETATM   28  N3  UNL     1      20.916  -7.843   0.615  1.00  0.00    -0.367 N
HETATM   29  C18 UNL     1      22.188  -7.838   0.768  1.00  0.00     0.196 C
HETATM   30  N4  UNL     1      22.726  -8.678   1.801  1.00  0.00    -0.067 NA
HETATM   31  N5  UNL     1      23.041  -7.046  -0.036  1.00  0.00    -0.067 NA
ATOM     32  H3  UNL     1      20.335  -8.428   1.216  1.00  0.00     0.161 HD
ENDBRANCH  27  28
ENDBRANCH  26  27
ENDBRANCH  25  26
ENDBRANCH  10  25
BRANCH   9  33
HETATM   33  O2  UNL     1      14.818  -5.683   0.754  1.00  0.00    -0.345 OA
ATOM     34  H2  UNL     1      14.987  -4.934   1.312  1.00  0.00     0.219 HD
ENDBRANCH   9  33
BRANCH   6  35
HETATM   35  C8  UNL     1      14.230  -9.893   1.868  1.00  0.00     0.038 C
BRANCH  35  36
HETATM   36  C9  UNL     1      14.413 -11.182   2.606  1.00  0.00    -0.020 C
HETATM   37  C10 UNL     1      15.084 -12.268   1.771  1.00  0.00     0.009 C
HETATM   38  C11 UNL     1      13.018 -11.666   3.039  1.00  0.00     0.009 C
ENDBRANCH  35  36
ENDBRANCH   6  35
BRANCH  15  39
HETATM   39  C21 UNL     1      18.197  -3.259   4.442  1.00  0.00    -0.022 C
HETATM   40  C22 UNL     1      17.146  -2.321   4.962  1.00  0.00     0.017 C
HETATM   41  C23 UNL     1      18.787  -2.600   3.213  1.00  0.00     0.017 C
HETATM   42  C24 UNL     1      19.313  -3.334   5.449  1.00  0.00     0.017 C
ENDBRANCH  15  39
BRANCH   1  43
HETATM   43  C3  UNL     1      18.479 -10.274   4.430  1.00  0.00     0.013 C
HETATM   44  C4  UNL     1      19.473  -9.203   4.038  1.00  0.00     0.012 C
BRANCH  43  45
HETATM   45  C2  UNL     1      18.332 -11.222   3.295  1.00  0.00     0.002 C
HETATM   46  C1  UNL     1      18.996 -10.567   2.085  1.00  0.00     0.005 C
ENDBRANCH  43  45
ENDBRANCH   1  43
BRANCH  20  47
HETATM   47  C27 UNL     1      18.988  -6.491   7.839  1.00  0.00     0.038 C
BRANCH  47  48
HETATM   48  C28 UNL     1      20.392  -6.883   7.759  1.00  0.00    -0.020 C
HETATM   49  C29 UNL     1      20.607  -8.368   7.882  1.00  0.00     0.009 C
HETATM   50  C30 UNL     1      20.855  -6.533   6.317  1.00  0.00     0.009 C
ENDBRANCH  47  48
ENDBRANCH  20  47
TORSDOF 12
ENDMDL