MODEL 1
REMARK VINA RESULT: -6.870692885      0.000      0.000
REMARK  12 active torsions:
REMARK  status: ('A' for Active; 'I' for Inactive)
REMARK    1  A    between atoms: C2_2  and  C3_3
REMARK    2  A    between atoms: C3_3  and  C4_4
REMARK    3  A    between atoms: C4_4  and  C5_5
REMARK    4  A    between atoms: C4_4  and  C7_7
REMARK    5  A    between atoms: C9_12  and  C10_13
REMARK    6  A    between atoms: C10_13  and  S1_14
REMARK    7  A    between atoms: C13_17  and  C14_18
REMARK    8  A    between atoms: C14_18  and  C15_19
REMARK    9  A    between atoms: C22_32  and  C23_33
REMARK   10  A    between atoms: C25_39  and  C26_40
REMARK   11  A    between atoms: C26_40  and  C27_41
REMARK   12  A    between atoms: C31_49  and  O6_50
ROOT
HETATM    1  C7  UNL     1      17.865  -5.245   6.979  1.00  0.00     0.088 C
HETATM    2  N1  UNL     1      16.981  -6.344   6.629  1.00  0.00    -0.319 N
ATOM      3  H1  UNL     1      16.369  -6.617   7.398  1.00  0.00     0.169 HD
HETATM    4  C8  UNL     1      16.780  -7.103   5.494  1.00  0.00     0.254 C
HETATM    5  O1  UNL     1      15.707  -6.766   4.843  1.00  0.00    -0.268 OA
HETATM    6  C9  UNL     1      17.511  -8.208   4.855  1.00  0.00     0.034 C
HETATM    7  C13 UNL     1      16.918  -9.440   4.415  1.00  0.00     0.041 C
HETATM    8  C18 UNL     1      17.451  -9.838   3.052  1.00  0.00     0.252 C
HETATM    9  O2  UNL     1      18.532 -10.521   2.922  1.00  0.00    -0.268 OA
HETATM   10  N2  UNL     1      16.842  -9.515   1.831  1.00  0.00    -0.344 N
ATOM     11  H2  UNL     1      16.694 -10.287   1.181  1.00  0.00     0.163 HD
HETATM   12  C19 UNL     1      16.398  -8.205   1.387  1.00  0.00     0.172 C
HETATM   13  C20 UNL     1      15.250  -8.347   0.403  1.00  0.00     0.042 C
HETATM   14  C21 UNL     1      17.579  -7.558   0.757  1.00  0.00     0.242 C
HETATM   15  O3  UNL     1      18.085  -8.252  -0.203  1.00  0.00    -0.271 OA
HETATM   16  N3  UNL     1      18.158  -6.327   1.097  1.00  0.00    -0.332 N
ATOM     17  H3  UNL     1      19.132  -6.382   1.397  1.00  0.00     0.165 HD
HETATM   18  C22 UNL     1      17.612  -5.012   1.093  1.00  0.00     0.249 C
HETATM   19  N4  UNL     1      16.695  -4.697   2.158  1.00  0.00    -0.332 N
ATOM     20  H4  UNL     1      15.926  -5.355   2.284  1.00  0.00     0.165 HD
HETATM   21  C24 UNL     1      16.713  -3.611   3.047  1.00  0.00     0.242 C
HETATM   22  O5  UNL     1      15.677  -2.826   3.064  1.00  0.00    -0.271 OA
HETATM   23  C25 UNL     1      17.779  -3.220   3.998  1.00  0.00     0.181 C
HETATM   24  N6  UNL     1      18.481  -4.326   4.603  1.00  0.00    -0.355 N
ATOM     25  H6  UNL     1      18.893  -4.967   3.924  1.00  0.00     0.162 HD
HETATM   26  C31 UNL     1      18.711  -4.698   5.933  1.00  0.00     0.164 C
ENDROOT
BRANCH  23  27
HETATM   27  C26 UNL     1      18.793  -2.275   3.311  1.00  0.00     0.091 C
BRANCH  27  28
HETATM   28  C27 UNL     1      18.655  -0.944   3.899  1.00  0.00     0.011 A
HETATM   29  C28 UNL     1      18.075  -0.673   5.144  1.00  0.00     0.026 A
HETATM   30  C29 UNL     1      18.110   0.684   5.387  1.00  0.00     0.019 A
HETATM   31  C30 UNL     1      18.714   1.239   4.285  1.00  0.00     0.088 A
HETATM   32  N5  UNL     1      19.025   0.254   3.426  1.00  0.00    -0.369 N
ATOM     33  H5  UNL     1      19.484   0.400   2.527  1.00  0.00     0.165 HD
ENDBRANCH  27  28
ENDBRANCH  23  27
BRANCH  26  34
HETATM   34  O6  UNL     1      19.965  -4.507   6.283  1.00  0.00    -0.345 OA
ATOM     35  H6  UNL     1      20.134  -3.681   6.721  1.00  0.00     0.219 HD
ENDBRANCH  26  34
BRANCH  18  36
HETATM   36  C23 UNL     1      16.883  -4.661  -0.177  1.00  0.00     0.277 C
HETATM   37  O4  UNL     1      17.446  -4.609  -1.237  1.00  0.00    -0.303 OA
ENDBRANCH  18  36
BRANCH   1  38
HETATM   38  C4  UNL     1      17.261  -4.304   7.984  1.00  0.00    -0.049 C
BRANCH  38  39
HETATM   39  C3  UNL     1      17.420  -4.777   9.396  1.00  0.00     0.036 C
BRANCH  39  40
HETATM   40  C2  UNL     1      18.780  -5.375   9.645  1.00  0.00    -0.000 C
HETATM   41  C1  UNL     1      19.783  -4.387  10.145  1.00  0.00     0.005 C
ENDBRANCH  39  40
ENDBRANCH  38  39
BRANCH  38  42
HETATM   42  C5  UNL     1      17.358  -2.849   7.752  1.00  0.00     0.032 C
HETATM   43  C6  UNL     1      17.406  -1.919   8.895  1.00  0.00     0.010 C
ENDBRANCH  38  42
ENDBRANCH   1  38
BRANCH   6  44
HETATM   44  C10 UNL     1      18.892  -8.434   5.399  1.00  0.00     0.108 C
BRANCH  44  45
HETATM   45  S1  UNL     1      19.161  -8.749   7.054  1.00  0.00    -0.223 SA
HETATM   46  C11 UNL     1      20.699  -7.855   7.461  1.00  0.00     0.078 C
HETATM   47  C12 UNL     1      19.501 -10.405   7.531  1.00  0.00     0.078 C
ENDBRANCH  44  45
ENDBRANCH   6  44
BRANCH   7  48
HETATM   48  C14 UNL     1      15.598 -10.000   4.557  1.00  0.00    -0.005 C
BRANCH  48  49
HETATM   49  C15 UNL     1      15.019 -10.461   5.838  1.00  0.00     0.001 C
HETATM   50  C16 UNL     1      13.855  -9.475   6.127  1.00  0.00     0.013 C
HETATM   51  C17 UNL     1      15.818 -10.544   7.065  1.00  0.00     0.013 C
ENDBRANCH  48  49
ENDBRANCH   7  48
TORSDOF 12
ENDMDL