MODEL 5
REMARK VINA RESULT: -8.003834521      4.190     11.514
REMARK  18 active torsions:
REMARK  status: ('A' for Active; 'I' for Inactive)
REMARK    1  A    between atoms: C1_4  and  C2_5
REMARK    2  A    between atoms: C1_4  and  N8_38
REMARK    3  A    between atoms: C2_5  and  C3_6
REMARK    4  A    between atoms: C6_12  and  N3_13
REMARK       I    between atoms: N3_13  and  C7_15
REMARK    5  A    between atoms: C7_15  and  C8_17
REMARK    6  A    between atoms: C8_17  and  C9_18
REMARK    7  A    between atoms: C9_18  and  C10_19
REMARK    8  A    between atoms: C10_19  and  C11_20
REMARK    9  A    between atoms: C11_20  and  C12_21
REMARK   10  A    between atoms: C12_21  and  N4_22
REMARK   11  A    between atoms: C14_27  and  C15_28
REMARK   12  A    between atoms: C15_28  and  C16_29
REMARK   13  A    between atoms: C16_29  and  C17_30
REMARK   14  A    between atoms: C17_30  and  C18_31
REMARK   15  A    between atoms: C18_31  and  C19_32
REMARK   16  A    between atoms: C19_32  and  C20_33
REMARK   17  A    between atoms: C20_33  and  N7_34
REMARK       I    between atoms: N9_41  and  C23_42
REMARK   18  A    between atoms: C23_42  and  C24_44
ROOT
HETATM    1  C3  UNL     1      -1.981   8.780  44.071  1.00  0.00     0.012 C
HETATM    2  C4  UNL     1      -2.676  10.082  44.114  1.00  0.00     0.109 C
HETATM    3  C5  UNL     1      -1.764  11.003  44.890  1.00  0.00     0.223 C
HETATM    4  O1  UNL     1      -2.283  12.017  45.422  1.00  0.00    -0.273 OA
HETATM    5  N2  UNL     1      -0.390  10.696  44.987  1.00  0.00    -0.316 N
ATOM      6  H2  UNL     1       0.178  11.241  45.635  1.00  0.00     0.170 HD
HETATM    7  C6  UNL     1       0.205   9.746  44.289  1.00  0.00     0.090 C
HETATM    8  C14 UNL     1      -0.655   8.941  43.355  1.00  0.00     0.058 C
ENDROOT
BRANCH   1   9
HETATM    9  C2  UNL     1      -2.734   7.554  43.772  1.00  0.00     0.081 C
BRANCH   9  10
HETATM   10  C1  UNL     1      -2.038   6.322  44.171  1.00  0.00     0.073 C
HETATM   11  N1  UNL     1      -1.636   5.465  43.233  1.00  0.00    -0.389 N
ATOM     12  H12 UNL     1      -1.871   5.777  42.291  1.00  0.00     0.157 HD
ATOM     13  H11 UNL     1      -1.153   4.611  43.511  1.00  0.00     0.157 HD
BRANCH  10  14
HETATM   14  N8  UNL     1      -1.714   5.891  45.474  1.00  0.00    -0.368 N
HETATM   15  C21 UNL     1      -0.300   5.584  45.794  1.00  0.00     0.144 C
HETATM   16  C22 UNL     1      -0.125   5.685  47.305  1.00  0.00     0.145 C
HETATM   17  N9  UNL     1      -0.935   4.632  47.860  1.00  0.00    -0.347 N
HETATM   18  C23 UNL     1      -0.434   3.750  48.846  1.00  0.00     0.250 C
HETATM   19  C28 UNL     1      -2.297   4.489  47.369  1.00  0.00     0.145 C
HETATM   20  O3  UNL     1      -1.204   2.859  49.343  1.00  0.00    -0.271 OA
HETATM   21  C29 UNL     1      -2.672   5.702  46.537  1.00  0.00     0.144 C
BRANCH  18  22
HETATM   22  C24 UNL     1       0.965   3.847  49.311  1.00  0.00     0.277 C
HETATM   23  C25 UNL     1       1.355   2.558  50.011  1.00  0.00     0.044 C
HETATM   24  C26 UNL     1       0.830   2.765  51.412  1.00  0.00     0.030 C
HETATM   25  C27 UNL     1       0.808   4.244  51.613  1.00  0.00     0.233 C
HETATM   26  N10 UNL     1       1.036   4.859  50.346  1.00  0.00    -0.062 N
ATOM     27 2H10 UNL     1       1.912   5.380  50.320  1.00  0.00     0.278 HD
ATOM     28 1H10 UNL     1       0.401   5.637  50.173  1.00  0.00     0.278 HD
ENDBRANCH  18  22
ENDBRANCH  10  14
ENDBRANCH   9  10
ENDBRANCH   1   9
BRANCH   8  29
HETATM   29  C15 UNL     1      -0.689   9.681  42.077  1.00  0.00     0.013 C
BRANCH  29  30
HETATM   30  C16 UNL     1       0.614  10.010  41.436  1.00  0.00     0.001 C
BRANCH  30  31
HETATM   31  C17 UNL     1       0.591  11.494  40.948  1.00  0.00     0.000 C
BRANCH  31  32
HETATM   32  C18 UNL     1       1.437  11.550  39.714  1.00  0.00     0.002 C
BRANCH  32  33
HETATM   33  C19 UNL     1       2.238  12.756  39.464  1.00  0.00     0.027 C
BRANCH  33  34
HETATM   34  C20 UNL     1       2.713  13.545  40.631  1.00  0.00     0.229 C
BRANCH  34  35
HETATM   35  N7  UNL     1       3.605  14.611  40.319  1.00  0.00    -0.079 N
ATOM     36  H73 UNL     1       3.812  14.614  39.320  1.00  0.00     0.274 HD
ATOM     37  H72 UNL     1       3.125  15.506  40.405  1.00  0.00     0.274 HD
ATOM     38  H71 UNL     1       4.471  14.624  40.857  1.00  0.00     0.274 HD
ENDBRANCH  34  35
ENDBRANCH  33  34
ENDBRANCH  32  33
ENDBRANCH  31  32
ENDBRANCH  30  31
ENDBRANCH  29  30
ENDBRANCH   8  29
BRANCH   7  39
HETATM   39  N3  UNL     1       1.574   9.574  44.502  1.00  0.00    -0.316 N
HETATM   40  C7  UNL     1       2.251   9.003  45.586  1.00  0.00     0.223 C
HETATM   41  O2  UNL     1       1.679   8.535  46.572  1.00  0.00    -0.273 OA
ATOM     42  H3  UNL     1       2.174   9.918  43.752  1.00  0.00     0.170 HD
BRANCH  40  43
HETATM   43  C8  UNL     1       3.756   8.938  45.584  1.00  0.00     0.103 C
BRANCH  43  44
HETATM   44  C9  UNL     1       4.266   8.660  44.210  1.00  0.00     0.009 C
BRANCH  44  45
HETATM   45  C10 UNL     1       4.806   9.873  43.523  1.00  0.00     0.002 C
BRANCH  45  46
HETATM   46  C11 UNL     1       4.320  10.032  42.094  1.00  0.00     0.020 C
BRANCH  46  47
HETATM   47  C12 UNL     1       4.925  11.291  41.505  1.00  0.00     0.122 C
BRANCH  47  48
HETATM   48  N4  UNL     1       5.353  11.103  40.151  1.00  0.00    -0.367 N
HETATM   49  C13 UNL     1       5.965  11.936  39.410  1.00  0.00     0.196 C
HETATM   50  N5  UNL     1       6.305  11.559  38.086  1.00  0.00    -0.067 NA
HETATM   51  N6  UNL     1       6.295  13.215  39.922  1.00  0.00    -0.067 NA
ATOM     52  H4  UNL     1       5.141  10.196  39.732  1.00  0.00     0.161 HD
ENDBRANCH  47  48
ENDBRANCH  46  47
ENDBRANCH  45  46
ENDBRANCH  44  45
ENDBRANCH  43  44
ENDBRANCH  40  43
ENDBRANCH   7  39
TORSDOF 18
ENDMDL