MODEL 5
REMARK VINA RESULT: -5.647971733     13.221     19.755
REMARK  17 active torsions:
REMARK  status: ('A' for Active; 'I' for Inactive)
REMARK    1  A    between atoms: C2_2  and  C3_3
REMARK    2  A    between atoms: C3_3  and  C4_4
REMARK    3  A    between atoms: C5_7  and  O1_8
REMARK    4  A    between atoms: C7_11  and  C8_12
REMARK       I    between atoms: C8_12  and  N2_14
REMARK    5  A    between atoms: N2_14  and  C9_16
REMARK    6  A    between atoms: C9_16  and  C10_17
REMARK    7  A    between atoms: C10_17  and  C11_18
REMARK    8  A    between atoms: C11_18  and  C12_19
REMARK    9  A    between atoms: C12_19  and  C13_20
REMARK   10  A    between atoms: C13_20  and  C14_21
REMARK   11  A    between atoms: C14_21  and  N3_22
REMARK   12  A    between atoms: N3_22  and  C15_24
REMARK   13  A    between atoms: C17_30  and  N5_31
REMARK   14  A    between atoms: N5_31  and  C18_33
REMARK   15  A    between atoms: C20_37  and  C21_38
REMARK   16  A    between atoms: C23_44  and  C24_45
REMARK   17  A    between atoms: C24_45  and  C25_46
ROOT
HETATM    1  C4  UNL     1      10.456  16.326  31.245  1.00  0.00     0.096 C
HETATM    2  N1  UNL     1       9.710  15.265  30.647  1.00  0.00    -0.369 N
ATOM      3  H1  UNL     1       9.913  15.105  29.661  1.00  0.00     0.161 HD
HETATM    4  C5  UNL     1       8.745  14.410  31.193  1.00  0.00     0.113 C
HETATM    5  C6  UNL     1       7.775  14.645  32.272  1.00  0.00     0.118 C
HETATM    6  C7  UNL     1       8.194  14.276  33.654  1.00  0.00     0.184 C
HETATM    7  N4  UNL     1       8.242  12.860  33.913  1.00  0.00    -0.345 N
ATOM      8  H4  UNL     1       7.515  12.314  33.450  1.00  0.00     0.163 HD
HETATM    9  C16 UNL     1       9.128  12.116  34.698  1.00  0.00     0.248 C
HETATM   10  O4  UNL     1       8.656  11.479  35.716  1.00  0.00    -0.271 OA
HETATM   11  C17 UNL     1      10.601  11.949  34.512  1.00  0.00     0.249 C
HETATM   12  C19 UNL     1      11.358  13.155  34.869  1.00  0.00     0.187 C
HETATM   13  O6  UNL     1      11.426  13.473  36.099  1.00  0.00    -0.292 OA
HETATM   14  C20 UNL     1      12.089  14.114  34.028  1.00  0.00     0.218 C
HETATM   15  N6  UNL     1      12.391  13.700  32.687  1.00  0.00    -0.343 N
ATOM     16  H6  UNL     1      12.876  12.812  32.566  1.00  0.00     0.163 HD
HETATM   17  C22 UNL     1      12.063  14.438  31.511  1.00  0.00     0.224 C
HETATM   18  O8  UNL     1      11.885  13.769  30.468  1.00  0.00    -0.273 OA
HETATM   19  C23 UNL     1      11.922  15.908  31.449  1.00  0.00     0.101 C
ENDROOT
BRANCH   6  20
HETATM   20  C8  UNL     1       7.108  14.827  34.573  1.00  0.00     0.240 C
HETATM   21  O2  UNL     1       7.300  14.894  35.802  1.00  0.00    -0.271 OA
HETATM   22  N2  UNL     1       5.880  15.259  34.037  1.00  0.00    -0.359 N
ATOM     23  H2  UNL     1       5.735  15.201  33.029  1.00  0.00     0.162 HD
BRANCH  22  24
HETATM   24  C9  UNL     1       4.819  15.781  34.862  1.00  0.00     0.122 C
BRANCH  24  25
HETATM   25  C10 UNL     1       3.453  15.553  34.279  1.00  0.00     0.020 C
BRANCH  25  26
HETATM   26  C11 UNL     1       2.618  14.733  35.258  1.00  0.00     0.002 C
BRANCH  26  27
HETATM   27  C12 UNL     1       2.774  13.257  35.089  1.00  0.00     0.002 C
BRANCH  27  28
HETATM   28  C13 UNL     1       2.936  12.593  36.440  1.00  0.00     0.020 C
BRANCH  28  29
HETATM   29  C14 UNL     1       3.910  13.305  37.344  1.00  0.00     0.122 C
BRANCH  29  30
HETATM   30  N3  UNL     1       5.275  12.912  37.032  1.00  0.00    -0.368 N
ATOM     31  H3  UNL     1       5.680  13.103  36.115  1.00  0.00     0.161 HD
BRANCH  30  32
HETATM   32  C15 UNL     1       6.023  12.257  38.031  1.00  0.00     0.348 C
HETATM   33  O3  UNL     1       5.633  11.220  38.631  1.00  0.00    -0.284 OA
ENDBRANCH  30  32
ENDBRANCH  29  30
ENDBRANCH  28  29
ENDBRANCH  27  28
ENDBRANCH  26  27
ENDBRANCH  25  26
ENDBRANCH  24  25
ENDBRANCH  22  24
ENDBRANCH   6  20
BRANCH   4  34
HETATM   34  O1  UNL     1       8.641  13.205  30.713  1.00  0.00    -0.349 OA
ATOM     35  H1  UNL     1       8.651  12.474  31.319  1.00  0.00     0.219 HD
ENDBRANCH   4  34
BRANCH  11  36
HETATM   36  N5  UNL     1      10.931  11.319  33.276  1.00  0.00    -0.349 N
ATOM     37  H5  UNL     1      10.986  11.915  32.450  1.00  0.00     0.163 HD
BRANCH  36  38
HETATM   38  C18 UNL     1      11.188   9.949  33.100  1.00  0.00     0.349 C
HETATM   39  O5  UNL     1      10.322   9.114  33.455  1.00  0.00    -0.284 OA
ENDBRANCH  36  38
ENDBRANCH  11  36
BRANCH   1  40
HETATM   40  C3  UNL     1      10.437  17.609  30.451  1.00  0.00     0.026 C
BRANCH  40  41
HETATM   41  C2  UNL     1       9.680  18.739  31.100  1.00  0.00    -0.002 C
HETATM   42  C1  UNL     1      10.465  19.540  32.089  1.00  0.00     0.005 C
ENDBRANCH  40  41
ENDBRANCH   1  40
BRANCH  19  43
HETATM   43  C24 UNL     1      12.769  16.580  30.434  1.00  0.00     0.020 C
BRANCH  43  44
HETATM   44  C25 UNL     1      13.924  17.389  30.890  1.00  0.00    -0.022 C
HETATM   45  C26 UNL     1      14.233  18.659  30.206  1.00  0.00     0.009 C
HETATM   46  C27 UNL     1      13.697  17.711  32.377  1.00  0.00     0.009 C
ENDBRANCH  43  44
ENDBRANCH  19  43
BRANCH  14  47
HETATM   47  C21 UNL     1      13.436  14.335  34.698  1.00  0.00     0.264 C
HETATM   48  O7  UNL     1      13.818  15.457  34.916  1.00  0.00    -0.304 OA
ENDBRANCH  14  47
TORSDOF 17
ENDMDL