MODEL 1
REMARK VINA RESULT: -6.981033874      0.000      0.000
REMARK  17 active torsions:
REMARK  status: ('A' for Active; 'I' for Inactive)
REMARK    1  A    between atoms: S1_2  and  C2_3
REMARK    2  A    between atoms: C2_3  and  C3_4
REMARK    3  A    between atoms: C3_4  and  C4_5
REMARK    4  A    between atoms: C4_5  and  C5_6
REMARK    5  A    between atoms: C5_6  and  C6_7
REMARK    6  A    between atoms: C6_7  and  C7_8
REMARK    7  A    between atoms: C7_8  and  C8_9
REMARK    8  A    between atoms: C9_12  and  O1_13
REMARK    9  A    between atoms: N2_15  and  C10_16
REMARK   10  A    between atoms: C10_16  and  C11_17
REMARK   11  A    between atoms: C12_20  and  O4_21
REMARK   12  A    between atoms: C13_23  and  C14_24
REMARK   13  A    between atoms: C14_24  and  C15_25
REMARK   14  A    between atoms: C15_25  and  C16_26
REMARK   15  A    between atoms: C16_26  and  N3_27
REMARK   16  A    between atoms: C19_36  and  C20_37
REMARK   17  A    between atoms: C20_37  and  C21_38
ROOT
HETATM    1  C8  UNL     1       3.867  10.093  43.104  1.00  0.00     0.177 C
HETATM    2  N1  UNL     1       4.967  10.914  42.586  1.00  0.00    -0.343 N
ATOM      3  H1  UNL     1       5.695  11.114  43.271  1.00  0.00     0.164 HD
HETATM    4  C9  UNL     1       5.204  11.479  41.318  1.00  0.00     0.222 C
HETATM    5  N2  UNL     1       4.721  12.535  40.494  1.00  0.00    -0.285 N
HETATM    6  C12 UNL     1       3.447  13.101  40.283  1.00  0.00     0.144 C
HETATM    7  C13 UNL     1       2.149  12.673  39.733  1.00  0.00     0.159 C
HETATM    8  N6  UNL     1       0.967  13.059  40.457  1.00  0.00    -0.347 N
ATOM      9  H6  UNL     1       0.847  14.070  40.519  1.00  0.00     0.163 HD
HETATM   10  C18 UNL     1      -0.049  12.345  41.093  1.00  0.00     0.241 C
HETATM   11  O5  UNL     1      -1.227  12.349  40.680  1.00  0.00    -0.271 OA
HETATM   12  C19 UNL     1       0.160  11.481  42.364  1.00  0.00     0.177 C
HETATM   13  N7  UNL     1       1.562  11.281  42.460  1.00  0.00    -0.346 N
ATOM     14  H7  UNL     1       1.957  12.190  42.703  1.00  0.00     0.163 HD
HETATM   15  C24 UNL     1       2.601  10.441  42.376  1.00  0.00     0.241 C
HETATM   16  O6  UNL     1       2.653   9.610  41.387  1.00  0.00    -0.271 OA
ENDROOT
BRANCH   1  17
HETATM   17  C7  UNL     1       4.094   8.613  42.959  1.00  0.00     0.035 C
BRANCH  17  18
HETATM   18  C6  UNL     1       3.768   7.684  44.030  1.00  0.00     0.002 C
BRANCH  18  19
HETATM   19  C5  UNL     1       3.661   8.156  45.427  1.00  0.00     0.000 C
BRANCH  19  20
HETATM   20  C4  UNL     1       2.184   8.339  45.824  1.00  0.00     0.001 C
BRANCH  20  21
HETATM   21  C3  UNL     1       1.407   7.201  45.257  1.00  0.00     0.010 C
BRANCH  21  22
HETATM   22  C2  UNL     1       0.207   6.775  46.034  1.00  0.00     0.073 C
BRANCH  22  23
HETATM   23  S1  UNL     1      -0.875   5.680  45.066  1.00  0.00    -0.173 SA
HETATM   24  C1  UNL     1      -1.869   6.596  43.876  1.00  0.00     0.089 C
ENDBRANCH  22  23
ENDBRANCH  21  22
ENDBRANCH  20  21
ENDBRANCH  19  20
ENDBRANCH  18  19
ENDBRANCH  17  18
ENDBRANCH   1  17
BRANCH   4  25
HETATM   25  O1  UNL     1       6.171  10.842  40.702  1.00  0.00    -0.332 OA
ATOM     26  H1  UNL     1       6.793  11.456  40.331  1.00  0.00     0.220 HD
ENDBRANCH   4  25
BRANCH   5  27
HETATM   27  C10 UNL     1       5.751  13.248  39.644  1.00  0.00     0.247 C
BRANCH  27  28
HETATM   28  C11 UNL     1       5.922  12.692  38.340  1.00  0.00     0.192 C
HETATM   29  O2  UNL     1       5.779  11.487  38.023  1.00  0.00    -0.647 OA
HETATM   30  O3  UNL     1       6.287  13.540  37.276  1.00  0.00    -0.647 OA
ENDBRANCH  27  28
ENDBRANCH   5  27
BRANCH  12  31
HETATM   31  C20 UNL     1      -0.842  10.429  42.428  1.00  0.00     0.038 C
BRANCH  31  32
HETATM   32  C21 UNL     1      -1.764  10.300  43.560  1.00  0.00    -0.020 C
HETATM   33  C22 UNL     1      -0.878  10.191  44.833  1.00  0.00     0.009 C
HETATM   34  C23 UNL     1      -2.736  11.374  43.849  1.00  0.00     0.009 C
ENDBRANCH  31  32
ENDBRANCH  12  31
BRANCH   6  35
HETATM   35  O4  UNL     1       3.359  14.348  40.668  1.00  0.00    -0.348 OA
ATOM     36  H4  UNL     1       2.615  14.518  41.233  1.00  0.00     0.219 HD
ENDBRANCH   6  35
BRANCH   7  37
HETATM   37  C14 UNL     1       1.925  13.229  38.316  1.00  0.00     0.035 C
BRANCH  37  38
HETATM   38  C15 UNL     1       2.545  12.447  37.231  1.00  0.00     0.022 C
BRANCH  38  39
HETATM   39  C16 UNL     1       2.521  13.362  35.992  1.00  0.00     0.122 C
BRANCH  39  40
HETATM   40  N3  UNL     1       3.733  14.104  35.914  1.00  0.00    -0.367 N
HETATM   41  C17 UNL     1       3.824  15.109  35.120  1.00  0.00     0.196 C
HETATM   42  N4  UNL     1       2.706  15.462  34.330  1.00  0.00    -0.067 NA
HETATM   43  N5  UNL     1       5.053  15.810  35.085  1.00  0.00    -0.067 NA
ATOM     44  H3  UNL     1       4.532  13.837  36.490  1.00  0.00     0.161 HD
ENDBRANCH  39  40
ENDBRANCH  38  39
ENDBRANCH  37  38
ENDBRANCH   7  37
TORSDOF 17
ENDMDL