MODEL 3
REMARK VINA RESULT: -6.047777439      2.642      8.156
REMARK  17 active torsions:
REMARK  status: ('A' for Active; 'I' for Inactive)
REMARK    1  A    between atoms: C2_2  and  N1_3
REMARK       I    between atoms: N1_3  and  C3_4
REMARK    2  A    between atoms: N1_3  and  C24_41
REMARK    3  A    between atoms: C3_4  and  C4_6
REMARK    4  A    between atoms: C4_6  and  C5_7
REMARK    5  A    between atoms: C4_6  and  C8_10
REMARK    6  A    between atoms: C9_11  and  C10_12
REMARK       I    between atoms: C10_12  and  N2_14
REMARK    7  A    between atoms: N2_14  and  C11_16
REMARK    8  A    between atoms: C11_16  and  C12_17
REMARK    9  A    between atoms: C12_17  and  C13_18
REMARK   10  A    between atoms: C13_18  and  C14_19
REMARK   11  A    between atoms: C14_19  and  C15_20
REMARK   12  A    between atoms: C15_20  and  C16_21
REMARK   13  A    between atoms: C16_21  and  N3_22
REMARK   14  A    between atoms: C18_30  and  C19_31
REMARK   15  A    between atoms: C19_31  and  C20_32
REMARK   16  A    between atoms: C20_32  and  C21_33
REMARK   17  A    between atoms: C21_33  and  N5_34
ROOT
HETATM    1  C8  UNL     1       4.260  12.390  37.328  1.00  0.00     0.148 C
HETATM    2  C9  UNL     1       3.327  13.448  37.426  1.00  0.00     0.104 C
HETATM    3  N4  UNL     1       3.131  14.153  38.664  1.00  0.00    -0.322 N
ATOM      4  H4  UNL     1       2.853  15.133  38.705  1.00  0.00     0.169 HD
HETATM    5  C17 UNL     1       3.353  13.387  39.791  1.00  0.00     0.244 C
HETATM    6  O3  UNL     1       3.319  13.851  40.968  1.00  0.00    -0.271 OA
HETATM    7  C18 UNL     1       3.659  11.905  39.677  1.00  0.00     0.172 C
HETATM    8  N8  UNL     1       3.701  11.406  38.400  1.00  0.00    -0.394 N
HETATM    9  C23 UNL     1       2.651  10.643  37.883  1.00  0.00     0.144 C
ENDROOT
BRANCH   1  10
HETATM   10  C4  UNL     1       5.689  12.279  37.595  1.00  0.00     0.110 C
BRANCH  10  11
HETATM   11  C3  UNL     1       6.326  13.576  37.075  1.00  0.00     0.227 C
HETATM   12  N1  UNL     1       7.487  13.723  36.337  1.00  0.00    -0.346 N
HETATM   13  O1  UNL     1       5.758  14.690  37.342  1.00  0.00    -0.273 OA
BRANCH  12  14
HETATM   14  C2  UNL     1       7.977  15.086  36.073  1.00  0.00     0.122 C
HETATM   15  C1  UNL     1       8.656  15.694  37.289  1.00  0.00     0.026 C
ENDBRANCH  12  14
BRANCH  12  16
HETATM   16  C24 UNL     1       8.248  12.677  35.740  1.00  0.00     0.105 C
HETATM   17  C25 UNL     1       9.440  12.217  36.552  1.00  0.00     0.036 C
HETATM   18  C26 UNL     1      10.775  12.653  36.106  1.00  0.00     0.105 C
HETATM   19  C27 UNL     1      10.972  12.430  34.657  1.00  0.00     0.217 C
HETATM   20  O4  UNL     1      12.122  12.124  34.262  1.00  0.00    -0.274 OA
HETATM   21  N9  UNL     1       9.851  12.580  33.832  1.00  0.00    -0.359 N
HETATM   22  C28 UNL     1       8.582  12.986  34.297  1.00  0.00     0.147 C
ATOM     23  H9  UNL     1       9.957  12.384  32.836  1.00  0.00     0.162 HD
ENDBRANCH  12  16
ENDBRANCH  10  11
BRANCH  10  24
HETATM   24  C5  UNL     1       6.239  12.156  38.974  1.00  0.00    -0.007 C
HETATM   25  C6  UNL     1       6.803  13.414  39.582  1.00  0.00     0.010 C
HETATM   26  C7  UNL     1       7.260  11.019  39.098  1.00  0.00     0.010 C
ENDBRANCH  10  24
ENDBRANCH   1  10
BRANCH   2  27
HETATM   27  C10 UNL     1       2.818  14.269  36.284  1.00  0.00     0.269 C
HETATM   28  O2  UNL     1       1.592  14.393  36.106  1.00  0.00    -0.266 OA
HETATM   29  N2  UNL     1       3.694  14.928  35.412  1.00  0.00    -0.336 N
ATOM     30  H2  UNL     1       4.673  14.783  35.655  1.00  0.00     0.168 HD
BRANCH  29  31
HETATM   31  C11 UNL     1       3.536  15.740  34.286  1.00  0.00     0.064 C
BRANCH  31  32
HETATM   32  C12 UNL     1       4.703  16.310  33.555  1.00  0.00     0.044 C
BRANCH  32  33
HETATM   33  C13 UNL     1       5.647  15.126  33.275  1.00  0.00     0.005 C
BRANCH  33  34
HETATM   34  C14 UNL     1       6.698  15.494  32.298  1.00  0.00     0.002 C
BRANCH  34  35
HETATM   35  C15 UNL     1       6.672  14.562  31.089  1.00  0.00     0.027 C
BRANCH  35  36
HETATM   36  C16 UNL     1       6.943  15.341  29.841  1.00  0.00     0.229 C
BRANCH  36  37
HETATM   37  N3  UNL     1       5.756  15.216  28.980  1.00  0.00    -0.079 N
ATOM     38  H33 UNL     1       5.206  14.379  29.177  1.00  0.00     0.274 HD
ATOM     39  H32 UNL     1       5.034  15.903  29.195  1.00  0.00     0.274 HD
ATOM     40  H31 UNL     1       6.076  15.264  28.012  1.00  0.00     0.274 HD
ENDBRANCH  36  37
ENDBRANCH  35  36
ENDBRANCH  34  35
ENDBRANCH  33  34
ENDBRANCH  32  33
ENDBRANCH  31  32
ENDBRANCH  29  31
ENDBRANCH   2  27
BRANCH   7  41
HETATM   41  C19 UNL     1       2.827  11.329  40.765  1.00  0.00     0.036 C
BRANCH  41  42
HETATM   42  C20 UNL     1       3.379  10.171  41.525  1.00  0.00     0.022 C
BRANCH  42  43
HETATM   43  C21 UNL     1       2.527   9.615  42.615  1.00  0.00     0.122 C
BRANCH  43  44
HETATM   44  N5  UNL     1       3.204   9.280  43.838  1.00  0.00    -0.367 N
HETATM   45  C22 UNL     1       2.549   9.351  44.970  1.00  0.00     0.196 C
HETATM   46  N6  UNL     1       1.207   9.739  44.971  1.00  0.00    -0.067 NA
HETATM   47  N7  UNL     1       3.234   9.080  46.190  1.00  0.00    -0.067 NA
ATOM     48  H5  UNL     1       4.182   8.991  43.824  1.00  0.00     0.161 HD
ENDBRANCH  43  44
ENDBRANCH  42  43
ENDBRANCH  41  42
ENDBRANCH   7  41
TORSDOF 17
ENDMDL