MODEL 1
REMARK VINA RESULT: -8.496730401      0.000      0.000
REMARK  19 active torsions:
REMARK  status: ('A' for Active; 'I' for Inactive)
REMARK    1  A    between atoms: C2_2  and  C3_3
REMARK    2  A    between atoms: C3_3  and  C4_4
REMARK    3  A    between atoms: C4_4  and  N1_5
REMARK    4  A    between atoms: N1_5  and  C5_7
REMARK    5  A    between atoms: C6_10  and  N3_11
REMARK    6  A    between atoms: N3_11  and  C7_13
REMARK    7  A    between atoms: C7_13  and  C8_14
REMARK    8  A    between atoms: C8_14  and  C9_15
REMARK    9  A    between atoms: N4_17  and  C11_18
REMARK   10  A    between atoms: C14_21  and  N5_22
REMARK   11  A    between atoms: N5_22  and  C15_24
REMARK   12  A    between atoms: C15_24  and  C16_25
REMARK   13  A    between atoms: C16_25  and  C17_26
REMARK   14  A    between atoms: C20_29  and  S1_30
REMARK   15  A    between atoms: S1_30  and  N6_33
REMARK   16  A    between atoms: N6_33  and  C21_35
REMARK   17  A    between atoms: C21_35  and  C22_36
REMARK   18  A    between atoms: C22_36  and  N7_37
REMARK       I    between atoms: C23_39  and  N9_41
REMARK   19  A    between atoms: N9_41  and  N10_43
ROOT
HETATM    1  C15 UNL     1       3.206  13.174  40.662  1.00  0.00     0.142 C
ENDROOT
BRANCH   1   2
HETATM    2  N5  UNL     1       4.267  13.901  40.019  1.00  0.00    -0.225 N
ATOM      3  H5  UNL     1       4.876  14.511  40.564  1.00  0.00     0.177 HD
BRANCH   2   4
HETATM    4  C14 UNL     1       4.443  13.777  38.750  1.00  0.00     0.709 A
HETATM    5  N4  UNL     1       5.616  13.266  38.338  1.00  0.00    -0.009 N
HETATM    6  C6  UNL     1       5.764  13.151  37.008  1.00  0.00     0.709 A
HETATM    7  N2  UNL     1       4.814  13.515  36.116  1.00  0.00    -0.021 N
HETATM    8  C5  UNL     1       3.653  14.021  36.552  1.00  0.00     0.707 A
ATOM      9  H2  UNL     1       4.981  13.405  35.115  1.00  0.00     0.203 HD
HETATM   10  N12 UNL     1       3.486  14.144  37.890  1.00  0.00    -0.021 N
ATOM     11  H12 UNL     1       2.612  14.525  38.250  1.00  0.00     0.203 HD
BRANCH   5  12
HETATM   12  C11 UNL     1       6.646  12.870  39.271  1.00  0.00     0.118 C
HETATM   13  C12 UNL     1       7.239  11.522  38.924  1.00  0.00     0.034 C
HETATM   14  C13 UNL     1       7.760  13.851  39.384  1.00  0.00     0.034 C
ENDBRANCH   5  12
BRANCH   6  15
HETATM   15  N3  UNL     1       6.866  12.668  36.537  1.00  0.00    -0.225 N
ATOM     16  H3  UNL     1       7.124  11.711  36.780  1.00  0.00     0.177 HD
BRANCH  15  17
HETATM   17  C7  UNL     1       7.748  13.429  35.678  1.00  0.00     0.138 C
BRANCH  17  18
HETATM   18  C8  UNL     1       8.860  12.460  35.256  1.00  0.00     0.020 C
BRANCH  18  19
HETATM   19  C9  UNL     1       9.882  12.481  36.374  1.00  0.00    -0.003 C
HETATM   20  C10 UNL     1      11.275  12.751  35.845  1.00  0.00     0.005 C
ENDBRANCH  18  19
ENDBRANCH  17  18
ENDBRANCH  15  17
ENDBRANCH   6  15
BRANCH   8  21
HETATM   21  N1  UNL     1       2.693  14.393  35.767  1.00  0.00    -0.225 N
ATOM     22  H1  UNL     1       1.787  14.595  36.190  1.00  0.00     0.177 HD
BRANCH  21  23
HETATM   23  C4  UNL     1       2.812  14.540  34.358  1.00  0.00     0.138 C
BRANCH  23  24
HETATM   24  C3  UNL     1       3.169  15.923  33.889  1.00  0.00     0.020 C
BRANCH  24  25
HETATM   25  C2  UNL     1       4.625  16.239  33.948  1.00  0.00    -0.003 C
HETATM   26  C1  UNL     1       5.513  15.414  33.086  1.00  0.00     0.005 C
ENDBRANCH  24  25
ENDBRANCH  23  24
ENDBRANCH  21  23
ENDBRANCH   8  21
ENDBRANCH   2   4
ENDBRANCH   1   2
BRANCH   1  27
HETATM   27  C16 UNL     1       3.122  11.743  40.176  1.00  0.00     0.058 C
BRANCH  27  28
HETATM   28  C17 UNL     1       3.013  10.887  41.386  1.00  0.00    -0.057 A
HETATM   29  C18 UNL     1       4.109  10.313  41.985  1.00  0.00     0.009 A
HETATM   30  C19 UNL     1       4.055   9.514  43.105  1.00  0.00     0.026 A
HETATM   31  C20 UNL     1       2.803   9.287  43.650  1.00  0.00     0.079 A
HETATM   32  C24 UNL     1       1.665   9.834  43.095  1.00  0.00     0.026 A
HETATM   33  C25 UNL     1       1.782  10.627  41.972  1.00  0.00     0.009 A
BRANCH  31  34
HETATM   34  S1  UNL     1       2.666   8.277  45.079  1.00  0.00     0.258 S
HETATM   35  O1  UNL     1       4.046   7.798  45.414  1.00  0.00    -0.201 OA
HETATM   36  O2  UNL     1       2.148   9.055  46.244  1.00  0.00    -0.201 OA
BRANCH  34  37
HETATM   37  N6  UNL     1       1.661   6.907  44.761  1.00  0.00    -0.314 N
ATOM     38  H6  UNL     1       1.755   6.311  43.939  1.00  0.00     0.172 HD
BRANCH  37  39
HETATM   39  C21 UNL     1       0.681   6.705  45.786  1.00  0.00     0.152 C
BRANCH  39  40
HETATM   40  C22 UNL     1      -0.650   7.204  45.249  1.00  0.00     0.142 C
BRANCH  40  41
HETATM   41  N7  UNL     1      -0.890   8.586  45.608  1.00  0.00    -0.362 N
HETATM   42  C23 UNL     1      -1.598   9.292  44.785  1.00  0.00     0.204 C
HETATM   43  N8  UNL     1      -2.133   8.776  43.583  1.00  0.00    -0.062 NA
HETATM   44  N9  UNL     1      -1.859  10.650  45.097  1.00  0.00    -0.260 N
ATOM     45  H9  UNL     1      -1.841  10.948  46.072  1.00  0.00     0.191 HD
ATOM     46  H7  UNL     1      -0.517   8.986  46.469  1.00  0.00     0.162 HD
BRANCH  44  47
HETATM   47  N10 UNL     1      -2.139  11.587  44.103  1.00  0.00    -0.247 N
HETATM   48  N11 UNL     1      -1.519  11.564  43.004  1.00  0.00    -0.331 N
ATOM     49 2H11 UNL     1      -0.809  10.846  42.857  1.00  0.00     0.178 HD
ATOM     50 1H11 UNL     1      -1.723  12.250  42.278  1.00  0.00     0.178 HD
ATOM     51  H10 UNL     1      -2.851  12.299  44.267  1.00  0.00     0.207 HD
ENDBRANCH  44  47
ENDBRANCH  40  41
ENDBRANCH  39  40
ENDBRANCH  37  39
ENDBRANCH  34  37
ENDBRANCH  31  34
ENDBRANCH  27  28
ENDBRANCH   1  27
TORSDOF 19
ENDMDL