MODEL 4
REMARK VINA RESULT: -7.278785292      1.576      2.509
REMARK  18 active torsions:
REMARK  status: ('A' for Active; 'I' for Inactive)
REMARK    1  A    between atoms: C2_2  and  N1_3
REMARK       I    between atoms: N2_6  and  C5_7
REMARK    2  A    between atoms: N4_9  and  O1_11
REMARK    3  A    between atoms: O1_11  and  C6_12
REMARK    4  A    between atoms: C6_12  and  C7_13
REMARK    5  A    between atoms: C7_13  and  C8_14
REMARK    6  A    between atoms: C8_14  and  C9_15
REMARK    7  A    between atoms: C9_15  and  N5_16
REMARK    8  A    between atoms: N5_16  and  C10_18
REMARK    9  A    between atoms: C10_18  and  C11_20
REMARK       I    between atoms: N6_22  and  C13_23
REMARK   10  A    between atoms: C13_23  and  C14_25
REMARK   11  A    between atoms: C14_25  and  N7_26
REMARK   12  A    between atoms: C14_25  and  C15_30
REMARK   13  A    between atoms: C15_30  and  C16_31
REMARK   14  A    between atoms: C16_31  and  C17_32
REMARK   15  A    between atoms: C17_32  and  N8_33
REMARK       I    between atoms: N8_33  and  C18_35
REMARK   16  A    between atoms: C20_41  and  N11_42
REMARK   17  A    between atoms: N11_42  and  C21_43
REMARK   18  A    between atoms: N11_42  and  C23_45
ROOT
HETATM    1  C11 UNL     1       3.758  12.878  39.317  1.00  0.00     0.089 C
HETATM    2  C12 UNL     1       3.048  12.279  40.475  1.00  0.00     0.139 C
HETATM    3  N6  UNL     1       3.937  11.320  41.083  1.00  0.00    -0.348 N
HETATM    4  C13 UNL     1       3.581  10.574  42.250  1.00  0.00     0.250 C
HETATM    5  O2  UNL     1       2.449  10.864  42.769  1.00  0.00    -0.271 OA
HETATM    6  C19 UNL     1       5.156  11.278  40.366  1.00  0.00     0.152 C
HETATM    7  C20 UNL     1       4.951  12.067  39.086  1.00  0.00     0.113 C
ENDROOT
BRANCH   1   8
HETATM    8  C10 UNL     1       2.797  12.955  38.148  1.00  0.00     0.081 C
HETATM    9  S1  UNL     1       1.867  11.661  37.847  1.00  0.00    -0.065 SA
BRANCH   8  10
HETATM   10  N5  UNL     1       2.697  14.090  37.350  1.00  0.00    -0.384 N
ATOM     11  H5  UNL     1       3.164  14.911  37.735  1.00  0.00     0.160 HD
BRANCH  10  12
HETATM   12  C9  UNL     1       2.068  14.320  36.099  1.00  0.00     0.120 C
BRANCH  12  13
HETATM   13  C8  UNL     1       3.035  14.359  34.953  1.00  0.00     0.022 C
BRANCH  13  14
HETATM   14  C7  UNL     1       3.175  15.662  34.276  1.00  0.00     0.030 C
BRANCH  14  15
HETATM   15  C6  UNL     1       4.496  16.153  33.886  1.00  0.00     0.201 C
BRANCH  15  16
HETATM   16  O1  UNL     1       5.588  15.558  34.552  1.00  0.00    -0.278 OA
BRANCH  16  17
HETATM   17  N4  UNL     1       6.584  15.016  33.867  1.00  0.00    -0.238 N
HETATM   18  C5  UNL     1       7.738  14.646  34.211  1.00  0.00     0.210 C
HETATM   19  N2  UNL     1       8.647  14.070  33.240  1.00  0.00    -0.351 N
HETATM   20  N3  UNL     1       8.168  14.799  35.551  1.00  0.00    -0.062 NA
HETATM   21  C4  UNL     1       9.979  13.760  33.626  1.00  0.00     0.156 C
HETATM   22  C25 UNL     1       8.180  13.815  31.907  1.00  0.00     0.156 C
HETATM   23  C3  UNL     1      10.950  14.115  32.550  1.00  0.00     0.292 C
HETATM   24  N1  UNL     1      10.526  13.800  31.224  1.00  0.00     0.091 N
HETATM   25  C26 UNL     1       9.283  13.106  31.147  1.00  0.00     0.292 C
ATOM     26  H4  UNL     1       6.378  14.872  32.879  1.00  0.00     0.197 HD
BRANCH  24  27
HETATM   27  C2  UNL     1      10.658  14.918  30.314  1.00  0.00     0.268 C
HETATM   28  C1  UNL     1      11.052  16.142  31.094  1.00  0.00     0.037 C
ENDBRANCH  24  27
ENDBRANCH  16  17
ENDBRANCH  15  16
ENDBRANCH  14  15
ENDBRANCH  13  14
ENDBRANCH  12  13
ENDBRANCH  10  12
ENDBRANCH   8  10
ENDBRANCH   1   8
BRANCH   7  29
HETATM   29  N11 UNL     1       6.171  12.667  38.736  1.00  0.00    -0.387 N
BRANCH  29  30
HETATM   30  C21 UNL     1       6.911  13.310  39.788  1.00  0.00     0.118 C
HETATM   31  C22 UNL     1       7.803  14.353  39.156  1.00  0.00     0.026 C
ENDBRANCH  29  30
BRANCH  29  32
HETATM   32  C23 UNL     1       6.935  12.186  37.667  1.00  0.00     0.054 C
HETATM   33  C24 UNL     1       7.929  11.136  38.059  1.00  0.00     0.054 C
ENDBRANCH  29  32
ENDBRANCH   7  29
BRANCH   4  34
HETATM   34  C14 UNL     1       4.349   9.528  42.914  1.00  0.00     0.275 C
BRANCH  34  35
HETATM   35  N7  UNL     1       5.268  10.135  43.877  1.00  0.00    -0.067 N
ATOM     36  H73 UNL     1       5.480  11.107  43.648  1.00  0.00     0.275 HD
ATOM     37  H72 UNL     1       4.827  10.292  44.784  1.00  0.00     0.275 HD
ATOM     38  H71 UNL     1       6.110   9.563  43.951  1.00  0.00     0.275 HD
ENDBRANCH  34  35
BRANCH  34  39
HETATM   39  C15 UNL     1       3.583   8.417  43.508  1.00  0.00     0.044 C
BRANCH  39  40
HETATM   40  C16 UNL     1       3.669   8.456  45.026  1.00  0.00     0.022 C
BRANCH  40  41
HETATM   41  C17 UNL     1       2.299   8.424  45.620  1.00  0.00     0.122 C
BRANCH  41  42
HETATM   42  N8  UNL     1       1.498   7.385  44.961  1.00  0.00    -0.365 N
HETATM   43  C18 UNL     1       0.588   6.617  45.723  1.00  0.00     0.181 C
HETATM   44  N9  UNL     1       0.194   7.047  46.865  1.00  0.00    -0.374 N
HETATM   45  N10 UNL     1       0.119   5.391  45.235  1.00  0.00    -0.064 NA
ATOM     46  H92 UNL     1       0.536   7.940  47.221  1.00  0.00     0.158 HD
ATOM     47  H91 UNL     1      -0.462   6.492  47.415  1.00  0.00     0.158 HD
ATOM     48  H8  UNL     1       1.598   7.219  43.959  1.00  0.00     0.162 HD
ENDBRANCH  41  42
ENDBRANCH  40  41
ENDBRANCH  39  40
ENDBRANCH  34  39
ENDBRANCH   4  34
TORSDOF 18
ENDMDL