MODEL 5
REMARK VINA RESULT: -7.924127372      3.329     10.315
REMARK  20 active torsions:
REMARK  status: ('A' for Active; 'I' for Inactive)
REMARK    1  A    between atoms: C2_2  and  C3_3
REMARK    2  A    between atoms: C5_5  and  C6_6
REMARK    3  A    between atoms: C6_6  and  N1_8
REMARK    4  A    between atoms: N1_8  and  C7_10
REMARK    5  A    between atoms: C7_10  and  C8_11
REMARK    6  A    between atoms: C7_10  and  C15_18
REMARK    7  A    between atoms: C8_11  and  C9_12
REMARK    8  A    between atoms: C15_18  and  O1_19
REMARK    9  A    between atoms: C15_18  and  N2_21
REMARK   10  A    between atoms: N2_21  and  C16_22
REMARK   11  A    between atoms: N2_21  and  C21_31
REMARK   12  A    between atoms: C16_22  and  C17_23
REMARK   13  A    between atoms: C17_23  and  C18_24
REMARK   14  A    between atoms: C18_24  and  C19_25
REMARK   15  A    between atoms: C19_25  and  N3_26
REMARK   16  A    between atoms: C21_31  and  C22_32
REMARK       I    between atoms: N6_35  and  C23_36
REMARK   17  A    between atoms: C23_36  and  C24_38
REMARK   18  A    between atoms: C24_38  and  N7_39
REMARK   19  A    between atoms: C24_38  and  C25_43
REMARK   20  A    between atoms: C25_43  and  C26_44
ROOT
HETATM    1  C7  UNL     1       4.770  13.107  39.735  1.00  0.00     0.157 C
ENDROOT
BRANCH   1   2
HETATM    2  N1  UNL     1       4.262  12.654  41.044  1.00  0.00    -0.371 N
ATOM      3  H1  UNL     1       4.056  13.367  41.744  1.00  0.00     0.161 HD
BRANCH   2   4
HETATM    4  C6  UNL     1       4.039  11.307  41.397  1.00  0.00     0.097 C
HETATM    5  S1  UNL     1       3.997  10.145  40.252  1.00  0.00    -0.063 SA
BRANCH   4   6
HETATM    6  C5  UNL     1       3.853  10.914  42.802  1.00  0.00     0.150 C
HETATM    7  C4  UNL     1       4.775   9.768  43.148  1.00  0.00     0.057 C
HETATM    8  C3  UNL     1       3.579   9.225  43.880  1.00  0.00     0.090 C
HETATM    9  N6  UNL     1       2.721  10.171  43.206  1.00  0.00    -0.334 N
HETATM   10  C23 UNL     1       1.282  10.168  43.119  1.00  0.00     0.252 C
HETATM   11  O4  UNL     1       0.737  11.114  42.502  1.00  0.00    -0.271 OA
BRANCH   8  12
HETATM   12  C2  UNL     1       3.763   9.498  45.363  1.00  0.00     0.021 C
HETATM   13  C1  UNL     1       3.272   8.273  46.103  1.00  0.00     0.007 C
ENDBRANCH   8  12
BRANCH  10  14
HETATM   14  C24 UNL     1       0.410   9.149  43.699  1.00  0.00     0.284 C
BRANCH  14  15
HETATM   15  N7  UNL     1       0.104   9.500  45.093  1.00  0.00    -0.066 N
ATOM     16  H73 UNL     1      -0.162  10.479  45.195  1.00  0.00     0.275 HD
ATOM     17  H72 UNL     1      -0.767   9.077  45.413  1.00  0.00     0.275 HD
ATOM     18  H71 UNL     1       0.894   9.252  45.690  1.00  0.00     0.275 HD
ENDBRANCH  14  15
BRANCH  14  19
HETATM   19  C25 UNL     1      -0.953   9.044  43.042  1.00  0.00     0.155 C
BRANCH  19  20
HETATM   20  C26 UNL     1      -1.953   9.585  43.995  1.00  0.00     0.175 C
HETATM   21  O5  UNL     1      -2.601   8.828  44.765  1.00  0.00    -0.648 OA
HETATM   22  O6  UNL     1      -2.211  10.944  44.073  1.00  0.00    -0.648 OA
ENDBRANCH  19  20
ENDBRANCH  14  19
ENDBRANCH  10  14
ENDBRANCH   4   6
ENDBRANCH   2   4
ENDBRANCH   1   2
BRANCH   1  23
HETATM   23  C8  UNL     1       6.033  13.856  39.859  1.00  0.00     0.038 C
BRANCH  23  24
HETATM   24  C9  UNL     1       7.189  13.020  39.244  1.00  0.00    -0.012 C
HETATM   25  C10 UNL     1       6.624  11.981  38.334  1.00  0.00     0.005 C
HETATM   26  C11 UNL     1       7.691  11.670  37.283  1.00  0.00     0.000 C
HETATM   27  C12 UNL     1       7.894  12.833  36.362  1.00  0.00     0.000 C
HETATM   28  C13 UNL     1       7.549  14.110  37.092  1.00  0.00     0.000 C
HETATM   29  C14 UNL     1       8.054  14.018  38.504  1.00  0.00     0.005 C
ENDBRANCH  23  24
ENDBRANCH   1  23
BRANCH   1  30
HETATM   30  C15 UNL     1       3.671  13.673  38.956  1.00  0.00     0.137 C
BRANCH  30  31
HETATM   31  O1  UNL     1       3.229  14.810  39.436  1.00  0.00    -0.348 OA
ATOM     32  H1  UNL     1       2.301  14.945  39.282  1.00  0.00     0.219 HD
ENDBRANCH  30  31
BRANCH  30  33
HETATM   33  N2  UNL     1       2.990  13.247  37.806  1.00  0.00    -0.354 N
BRANCH  33  34
HETATM   34  C16 UNL     1       2.899  14.211  36.666  1.00  0.00     0.125 C
BRANCH  34  35
HETATM   35  C17 UNL     1       4.156  14.318  35.882  1.00  0.00     0.021 C
BRANCH  35  36
HETATM   36  C18 UNL     1       3.919  15.078  34.572  1.00  0.00     0.021 C
BRANCH  36  37
HETATM   37  C19 UNL     1       5.184  15.687  34.047  1.00  0.00     0.122 C
BRANCH  37  38
HETATM   38  N3  UNL     1       5.452  15.277  32.695  1.00  0.00    -0.367 N
HETATM   39  C20 UNL     1       6.616  14.862  32.303  1.00  0.00     0.196 C
HETATM   40  N4  UNL     1       6.845  14.463  30.954  1.00  0.00    -0.067 NA
HETATM   41  N5  UNL     1       7.681  14.805  33.242  1.00  0.00    -0.067 NA
ATOM     42  H3  UNL     1       4.694  15.315  32.014  1.00  0.00     0.161 HD
ENDBRANCH  37  38
ENDBRANCH  36  37
ENDBRANCH  35  36
ENDBRANCH  34  35
ENDBRANCH  33  34
BRANCH  33  43
HETATM   43  C21 UNL     1       2.343  11.986  37.602  1.00  0.00     0.237 C
BRANCH  43  44
HETATM   44  C22 UNL     1       1.403  11.581  38.661  1.00  0.00     0.191 C
HETATM   45  O2  UNL     1       0.820  10.461  38.486  1.00  0.00    -0.647 OA
HETATM   46  O3  UNL     1       1.139  12.327  39.777  1.00  0.00    -0.647 OA
ENDBRANCH  43  44
ENDBRANCH  33  43
ENDBRANCH  30  33
ENDBRANCH   1  30
TORSDOF 20
ENDMDL