MODEL 4
REMARK VINA RESULT: -7.905153463      3.720     12.124
REMARK  17 active torsions:
REMARK  status: ('A' for Active; 'I' for Inactive)
REMARK    1  A    between atoms: C2_2  and  C3_3
REMARK    2  A    between atoms: C3_3  and  C4_4
REMARK    3  A    between atoms: C4_4  and  C5_5
REMARK    4  A    between atoms: C5_5  and  C6_6
REMARK    5  A    between atoms: C7_9  and  C8_10
REMARK    6  A    between atoms: C8_10  and  C9_11
REMARK    7  A    between atoms: C9_11  and  O1_13
REMARK    8  A    between atoms: C12_19  and  C13_20
REMARK    9  A    between atoms: C13_20  and  C14_21
REMARK   10  A    between atoms: C14_21  and  C15_22
REMARK   11  A    between atoms: C15_22  and  N3_23
REMARK       I    between atoms: N7_34  and  C20_35
REMARK   12  A    between atoms: C20_35  and  C21_37
REMARK   13  A    between atoms: C21_37  and  C22_38
REMARK   14  A    between atoms: C22_38  and  C23_39
REMARK   15  A    between atoms: C23_39  and  C24_40
REMARK   16  A    between atoms: C24_40  and  C25_41
REMARK   17  A    between atoms: C25_41  and  N8_42
ROOT
HETATM    1  C6  UNL     1       4.947  13.208  36.808  1.00  0.00     0.090 C
HETATM    2  N1  UNL     1       6.245  13.332  36.957  1.00  0.00    -0.366 N
ATOM      3  H1  UNL     1       6.564  12.839  37.791  1.00  0.00     0.161 HD
HETATM    4  C7  UNL     1       7.334  13.955  36.289  1.00  0.00     0.177 C
HETATM    5  C11 UNL     1       7.091  15.435  36.132  1.00  0.00     0.241 C
HETATM    6  O2  UNL     1       8.023  16.141  36.585  1.00  0.00    -0.271 OA
HETATM    7  N2  UNL     1       6.008  16.158  35.569  1.00  0.00    -0.346 N
ATOM      8  H2  UNL     1       5.953  17.094  35.972  1.00  0.00     0.163 HD
HETATM    9  C12 UNL     1       4.953  15.959  34.588  1.00  0.00     0.177 C
HETATM   10  C17 UNL     1       4.126  14.797  34.867  1.00  0.00     0.245 C
HETATM   11  O3  UNL     1       3.118  14.711  34.120  1.00  0.00    -0.271 OA
HETATM   12  N6  UNL     1       4.138  13.711  35.770  1.00  0.00    -0.314 N
ATOM     13  H6  UNL     1       3.321  13.117  35.628  1.00  0.00     0.170 HD
ENDROOT
BRANCH   1  14
HETATM   14  C5  UNL     1       4.332  12.423  37.860  1.00  0.00     0.036 C
HETATM   15  C18 UNL     1       3.176  11.618  37.225  1.00  0.00     0.039 C
HETATM   16  C19 UNL     1       2.360  11.269  38.432  1.00  0.00     0.127 C
HETATM   17  N7  UNL     1       2.600  12.334  39.394  1.00  0.00    -0.351 N
HETATM   18  C20 UNL     1       1.894  12.379  40.628  1.00  0.00     0.219 C
HETATM   19  C27 UNL     1       3.587  13.249  38.878  1.00  0.00     0.143 C
HETATM   20  O4  UNL     1       2.156  13.321  41.415  1.00  0.00    -0.273 OA
BRANCH  14  21
HETATM   21  C4  UNL     1       5.209  11.419  38.538  1.00  0.00     0.019 C
BRANCH  21  22
HETATM   22  C3  UNL     1       5.765  11.766  39.857  1.00  0.00     0.001 C
BRANCH  22  23
HETATM   23  C2  UNL     1       7.210  12.291  39.656  1.00  0.00    -0.005 C
HETATM   24  C1  UNL     1       7.266  13.751  40.052  1.00  0.00     0.005 C
ENDBRANCH  22  23
ENDBRANCH  21  22
ENDBRANCH  14  21
BRANCH  18  25
HETATM   25  C21 UNL     1       0.882  11.392  41.029  1.00  0.00     0.103 C
BRANCH  25  26
HETATM   26  C22 UNL     1       1.335  10.582  42.245  1.00  0.00     0.009 C
BRANCH  26  27
HETATM   27  C23 UNL     1       2.404   9.652  41.739  1.00  0.00     0.002 C
BRANCH  27  28
HETATM   28  C24 UNL     1       3.658   9.644  42.537  1.00  0.00     0.020 C
BRANCH  28  29
HETATM   29  C25 UNL     1       3.876   8.443  43.395  1.00  0.00     0.122 C
BRANCH  29  30
HETATM   30  N8  UNL     1       2.668   8.253  44.175  1.00  0.00    -0.367 N
HETATM   31  C26 UNL     1       2.530   8.661  45.381  1.00  0.00     0.196 C
HETATM   32  N9  UNL     1       3.596   9.336  46.012  1.00  0.00    -0.067 NA
HETATM   33  N10 UNL     1       1.327   8.445  46.088  1.00  0.00    -0.067 NA
ATOM     34  H8  UNL     1       1.885   7.767  43.739  1.00  0.00     0.161 HD
ENDBRANCH  29  30
ENDBRANCH  28  29
ENDBRANCH  27  28
ENDBRANCH  26  27
ENDBRANCH  25  26
ENDBRANCH  18  25
ENDBRANCH   1  14
BRANCH   4  35
HETATM   35  C8  UNL     1       7.817  13.338  35.062  1.00  0.00     0.066 C
BRANCH  35  36
HETATM   36  C9  UNL     1       8.691  12.140  35.141  1.00  0.00     0.116 C
HETATM   37  C10 UNL     1      10.145  12.405  35.357  1.00  0.00     0.039 C
BRANCH  36  38
HETATM   38  O1  UNL     1       8.234  11.245  36.148  1.00  0.00    -0.396 OA
ATOM     39  H1  UNL     1       8.760  10.453  36.160  1.00  0.00     0.210 HD
ENDBRANCH  36  38
ENDBRANCH  35  36
ENDBRANCH   4  35
BRANCH   9  40
HETATM   40  C13 UNL     1       5.542  16.055  33.223  1.00  0.00     0.036 C
BRANCH  40  41
HETATM   41  C14 UNL     1       6.010  14.782  32.605  1.00  0.00     0.022 C
BRANCH  41  42
HETATM   42  C15 UNL     1       7.244  15.164  31.760  1.00  0.00     0.122 C
BRANCH  42  43
HETATM   43  N3  UNL     1       6.878  15.756  30.513  1.00  0.00    -0.367 N
HETATM   44  C16 UNL     1       6.863  15.140  29.388  1.00  0.00     0.196 C
HETATM   45  N4  UNL     1       7.212  13.773  29.220  1.00  0.00    -0.067 NA
HETATM   46  N5  UNL     1       6.472  15.869  28.232  1.00  0.00    -0.067 NA
ATOM     47  H3  UNL     1       6.608  16.740  30.517  1.00  0.00     0.161 HD
ENDBRANCH  42  43
ENDBRANCH  41  42
ENDBRANCH  40  41
ENDBRANCH   9  40
TORSDOF 17
ENDMDL