MODEL 2
REMARK VINA RESULT: -5.678209529     14.745     19.808
REMARK  19 active torsions:
REMARK  status: ('A' for Active; 'I' for Inactive)
REMARK    1  A    between atoms: C3_5  and  C4_6
REMARK    2  A    between atoms: C4_6  and  C5_7
REMARK    3  A    between atoms: C5_7  and  C6_8
REMARK    4  A    between atoms: C6_8  and  C7_9
REMARK    5  A    between atoms: C7_9  and  N2_10
REMARK    6  A    between atoms: C9_18  and  C10_19
REMARK    7  A    between atoms: C10_19  and  C11_20
REMARK    8  A    between atoms: C11_20  and  C12_21
REMARK    9  A    between atoms: C12_21  and  C13_22
REMARK   10  A    between atoms: C13_22  and  N4_23
REMARK   11  A    between atoms: C15_31  and  C16_32
REMARK   12  A    between atoms: C16_32  and  C17_33
REMARK   13  A    between atoms: C22_38  and  C23_39
REMARK   14  A    between atoms: C23_39  and  O4_40
REMARK   15  A    between atoms: C25_46  and  C26_47
REMARK   16  A    between atoms: C26_47  and  C27_48
REMARK   17  A    between atoms: C27_48  and  C28_49
REMARK   18  A    between atoms: C28_49  and  C29_50
REMARK   19  A    between atoms: C29_50  and  N7_51
ROOT
HETATM    1  C1  UNL     1      13.051  12.404  33.040  1.00  0.00     0.153 C
HETATM    2  N1  UNL     1      11.614  12.661  32.887  1.00  0.00    -0.341 N
HETATM    3  C2  UNL     1      10.775  12.099  33.880  1.00  0.00     0.243 C
HETATM    4  O1  UNL     1      11.250  11.851  35.056  1.00  0.00    -0.271 OA
HETATM    5  C3  UNL     1       9.352  11.733  33.756  1.00  0.00     0.176 C
HETATM    6  N3  UNL     1       8.505  12.268  34.807  1.00  0.00    -0.346 N
ATOM      7  H3  UNL     1       7.924  11.574  35.277  1.00  0.00     0.163 HD
HETATM    8  C8  UNL     1       8.353  13.551  35.276  1.00  0.00     0.241 C
HETATM    9  O2  UNL     1       8.634  13.787  36.515  1.00  0.00    -0.271 OA
HETATM   10  C9  UNL     1       7.892  14.799  34.566  1.00  0.00     0.176 C
HETATM   11  N5  UNL     1       7.222  14.514  33.345  1.00  0.00    -0.346 N
ATOM     12  H5  UNL     1       6.284  14.123  33.439  1.00  0.00     0.163 HD
HETATM   13  C14 UNL     1       7.678  14.697  32.013  1.00  0.00     0.241 C
HETATM   14  O3  UNL     1       7.319  13.750  31.215  1.00  0.00    -0.271 OA
HETATM   15  C15 UNL     1       8.466  15.774  31.467  1.00  0.00     0.180 C
HETATM   16  N6  UNL     1       9.894  15.753  31.753  1.00  0.00    -0.346 N
ATOM     17  H6  UNL     1      10.375  16.614  31.493  1.00  0.00     0.163 HD
HETATM   18  C24 UNL     1      10.721  14.805  32.303  1.00  0.00     0.241 C
HETATM   19  O5  UNL     1      11.313  15.140  33.406  1.00  0.00    -0.271 OA
HETATM   20  C25 UNL     1      11.047  13.437  31.820  1.00  0.00     0.178 C
ENDROOT
BRANCH  15  21
HETATM   21  C16 UNL     1       8.341  16.079  30.018  1.00  0.00     0.074 C
BRANCH  21  22
HETATM   22  C17 UNL     1       7.847  17.362  29.570  1.00  0.00    -0.047 A
HETATM   23  C18 UNL     1       8.204  18.510  30.256  1.00  0.00     0.008 A
HETATM   24  C19 UNL     1       7.777  19.778  29.912  1.00  0.00     0.001 A
HETATM   25  C20 UNL     1       6.956  19.940  28.842  1.00  0.00     0.001 A
HETATM   26  C21 UNL     1       6.579  18.820  28.135  1.00  0.00     0.010 A
HETATM   27  C22 UNL     1       7.016  17.535  28.490  1.00  0.00    -0.028 A
BRANCH  27  28
HETATM   28  C23 UNL     1       6.510  16.432  27.644  1.00  0.00     0.203 C
BRANCH  28  29
HETATM   29  O4  UNL     1       5.503  15.709  28.309  1.00  0.00    -0.396 OA
ATOM     30  H4  UNL     1       4.988  15.199  27.694  1.00  0.00     0.209 HD
ENDBRANCH  28  29
ENDBRANCH  27  28
ENDBRANCH  21  22
ENDBRANCH  15  21
BRANCH  10  31
HETATM   31  C10 UNL     1       6.799  15.373  35.502  1.00  0.00     0.035 C
BRANCH  31  32
HETATM   32  C11 UNL     1       5.438  15.321  34.948  1.00  0.00     0.004 C
BRANCH  32  33
HETATM   33  C12 UNL     1       4.397  14.557  35.676  1.00  0.00     0.027 C
BRANCH  33  34
HETATM   34  C13 UNL     1       3.130  14.266  34.959  1.00  0.00     0.229 C
BRANCH  34  35
HETATM   35  N4  UNL     1       2.879  12.925  34.570  1.00  0.00    -0.079 N
ATOM     36  H43 UNL     1       2.830  12.875  33.553  1.00  0.00     0.274 HD
ATOM     37  H42 UNL     1       3.710  12.362  34.751  1.00  0.00     0.274 HD
ATOM     38  H41 UNL     1       2.064  12.456  34.968  1.00  0.00     0.274 HD
ENDBRANCH  34  35
ENDBRANCH  33  34
ENDBRANCH  32  33
ENDBRANCH  31  32
ENDBRANCH  10  31
BRANCH  20  39
HETATM   39  C26 UNL     1      11.667  13.365  30.499  1.00  0.00     0.035 C
BRANCH  39  40
HETATM   40  C27 UNL     1      10.946  13.396  29.243  1.00  0.00     0.004 C
BRANCH  40  41
HETATM   41  C28 UNL     1       9.678  12.580  29.147  1.00  0.00     0.027 C
BRANCH  41  42
HETATM   42  C29 UNL     1       8.901  13.218  27.980  1.00  0.00     0.229 C
BRANCH  42  43
HETATM   43  N7  UNL     1       7.487  13.087  28.160  1.00  0.00    -0.079 N
ATOM     44  H73 UNL     1       7.128  13.782  28.816  1.00  0.00     0.274 HD
ATOM     45  H72 UNL     1       6.975  13.379  27.327  1.00  0.00     0.274 HD
ATOM     46  H71 UNL     1       7.233  12.140  28.442  1.00  0.00     0.274 HD
ENDBRANCH  42  43
ENDBRANCH  41  42
ENDBRANCH  40  41
ENDBRANCH  39  40
ENDBRANCH  20  39
BRANCH   5  47
HETATM   47  C4  UNL     1       9.363  10.187  33.850  1.00  0.00     0.035 C
BRANCH  47  48
HETATM   48  C5  UNL     1      10.476   9.613  33.052  1.00  0.00     0.004 C
BRANCH  48  49
HETATM   49  C6  UNL     1      10.774   8.169  33.422  1.00  0.00     0.027 C
BRANCH  49  50
HETATM   50  C7  UNL     1       9.510   7.363  33.620  1.00  0.00     0.229 C
BRANCH  50  51
HETATM   51  N2  UNL     1       9.716   6.541  34.797  1.00  0.00    -0.079 N
ATOM     52  H23 UNL     1      10.389   5.789  34.649  1.00  0.00     0.274 HD
ATOM     53  H22 UNL     1      10.222   7.023  35.540  1.00  0.00     0.274 HD
ATOM     54  H21 UNL     1       8.797   6.207  35.089  1.00  0.00     0.274 HD
ENDBRANCH  50  51
ENDBRANCH  49  50
ENDBRANCH  48  49
ENDBRANCH  47  48
ENDBRANCH   5  47
TORSDOF 19
ENDMDL