MODEL 5
REMARK VINA RESULT: -6.873553615      5.407     12.341
REMARK  16 active torsions:
REMARK  status: ('A' for Active; 'I' for Inactive)
REMARK    1  A    between atoms: C2_2  and  C3_3
REMARK    2  A    between atoms: C3_3  and  C4_4
REMARK    3  A    between atoms: C4_4  and  C5_5
REMARK    4  A    between atoms: C7_10  and  C8_11
REMARK    5  A    between atoms: C8_11  and  O2_12
REMARK    6  A    between atoms: C11_19  and  C12_20
REMARK    7  A    between atoms: C14_26  and  C15_27
REMARK    8  A    between atoms: C15_27  and  C16_28
REMARK    9  A    between atoms: C16_28  and  C17_29
REMARK   10  A    between atoms: C17_29  and  C18_30
REMARK   11  A    between atoms: C18_30  and  C19_31
REMARK   12  A    between atoms: C19_31  and  C20_32
REMARK   13  A    between atoms: C20_32  and  N4_33
REMARK       I    between atoms: N4_33  and  C21_35
REMARK   14  A    between atoms: C21_35  and  C22_37
REMARK   15  A    between atoms: C22_37  and  C23_38
REMARK   16  A    between atoms: C23_38  and  S1_39
ROOT
HETATM    1  C5  UNL     1      -1.975   4.554  45.972  1.00  0.00     0.176 C
HETATM    2  N1  UNL     1      -3.113   4.547  45.095  1.00  0.00    -0.346 N
ATOM      3  H1  UNL     1      -3.873   5.169  45.368  1.00  0.00     0.163 HD
HETATM    4  C6  UNL     1      -3.337   3.814  43.921  1.00  0.00     0.243 C
HETATM    5  O1  UNL     1      -4.408   3.102  43.877  1.00  0.00    -0.271 OA
HETATM    6  C7  UNL     1      -2.513   3.740  42.708  1.00  0.00     0.200 C
HETATM    7  N2  UNL     1      -2.147   4.982  42.088  1.00  0.00    -0.346 N
ATOM      8  H2  UNL     1      -1.200   4.998  41.709  1.00  0.00     0.163 HD
HETATM    9  C9  UNL     1      -2.853   6.168  41.912  1.00  0.00     0.220 C
HETATM   10  O3  UNL     1      -2.220   7.132  41.337  1.00  0.00    -0.274 OA
HETATM   11  C10 UNL     1      -4.226   6.537  42.273  1.00  0.00     0.135 C
HETATM   12  C11 UNL     1      -4.400   7.873  42.920  1.00  0.00     0.154 C
HETATM   13  N3  UNL     1      -3.199   8.611  43.202  1.00  0.00    -0.348 N
ATOM     14  H3  UNL     1      -2.893   9.196  42.424  1.00  0.00     0.163 HD
HETATM   15  C13 UNL     1      -2.365   8.695  44.316  1.00  0.00     0.241 C
HETATM   16  O5  UNL     1      -2.333   9.845  44.917  1.00  0.00    -0.271 OA
HETATM   17  C14 UNL     1      -1.482   7.698  44.957  1.00  0.00     0.176 C
HETATM   18  N5  UNL     1      -2.064   7.128  46.174  1.00  0.00    -0.346 N
ATOM     19  H5  UNL     1      -2.694   7.735  46.699  1.00  0.00     0.163 HD
HETATM   20  C26 UNL     1      -1.857   5.858  46.698  1.00  0.00     0.241 C
HETATM   21  O7  UNL     1      -1.534   5.745  47.914  1.00  0.00    -0.271 OA
ENDROOT
BRANCH  17  22
HETATM   22  C15 UNL     1      -0.204   8.402  45.480  1.00  0.00     0.035 C
BRANCH  22  23
HETATM   23  C16 UNL     1       1.051   7.666  45.110  1.00  0.00     0.002 C
BRANCH  23  24
HETATM   24  C17 UNL     1       2.182   7.869  46.041  1.00  0.00     0.000 C
BRANCH  24  25
HETATM   25  C18 UNL     1       3.352   8.476  45.326  1.00  0.00     0.002 C
BRANCH  25  26
HETATM   26  C19 UNL     1       3.670   7.730  44.073  1.00  0.00     0.020 C
BRANCH  26  27
HETATM   27  C20 UNL     1       4.045   8.658  42.932  1.00  0.00     0.122 C
BRANCH  27  28
HETATM   28  N4  UNL     1       2.929   8.938  42.064  1.00  0.00    -0.361 N
HETATM   29  C21 UNL     1       2.014   9.997  42.229  1.00  0.00     0.218 C
HETATM   30  O6  UNL     1       2.074  10.821  43.169  1.00  0.00    -0.274 OA
ATOM     31  H4  UNL     1       2.791   8.320  41.265  1.00  0.00     0.162 HD
BRANCH  29  32
HETATM   32  C22 UNL     1       0.907  10.165  41.248  1.00  0.00     0.112 C
BRANCH  32  33
HETATM   33  C23 UNL     1       0.688  11.620  40.900  1.00  0.00     0.072 C
BRANCH  33  34
HETATM   34  S1  UNL     1       1.834  12.172  39.664  1.00  0.00    -0.228 SA
HETATM   35  C24 UNL     1       2.354  10.797  38.672  1.00  0.00     0.078 C
HETATM   36  C25 UNL     1       3.252  12.936  40.364  1.00  0.00     0.078 C
ENDBRANCH  33  34
ENDBRANCH  32  33
ENDBRANCH  29  32
ENDBRANCH  27  28
ENDBRANCH  26  27
ENDBRANCH  25  26
ENDBRANCH  24  25
ENDBRANCH  23  24
ENDBRANCH  22  23
ENDBRANCH  17  22
BRANCH  12  37
HETATM   37  C12 UNL     1      -5.378   7.784  44.036  1.00  0.00     0.256 C
HETATM   38  O4  UNL     1      -5.132   7.117  45.012  1.00  0.00    -0.305 OA
ENDBRANCH  12  37
BRANCH   1  39
HETATM   39  C4  UNL     1      -0.697   4.062  45.404  1.00  0.00     0.035 C
BRANCH  39  40
HETATM   40  C3  UNL     1      -0.436   2.665  45.957  1.00  0.00     0.002 C
BRANCH  40  41
HETATM   41  C2  UNL     1      -0.542   1.620  44.867  1.00  0.00    -0.004 C
HETATM   42  C1  UNL     1      -1.765   0.757  45.014  1.00  0.00     0.005 C
ENDBRANCH  40  41
ENDBRANCH  39  40
ENDBRANCH   1  39
BRANCH   6  43
HETATM   43  C8  UNL     1      -3.210   2.925  41.599  1.00  0.00     0.199 C
BRANCH  43  44
HETATM   44  O2  UNL     1      -3.043   1.574  41.751  1.00  0.00    -0.398 OA
ATOM     45  H2  UNL     1      -3.493   1.071  41.082  1.00  0.00     0.209 HD
ENDBRANCH  43  44
ENDBRANCH   6  43
TORSDOF 16
ENDMDL