MODEL 4
REMARK VINA RESULT: -8.136096997      1.473      1.743
REMARK  13 active torsions:
REMARK  status: ('A' for Active; 'I' for Inactive)
REMARK    1  A    between atoms: C2_2  and  C3_4
REMARK    2  A    between atoms: C7_10  and  C8_11
REMARK    3  A    between atoms: C8_11  and  O4_12
REMARK    4  A    between atoms: O4_12  and  C9_13
REMARK    5  A    between atoms: C9_13  and  C10_15
REMARK    6  A    between atoms: C10_15  and  C11_16
REMARK    7  A    between atoms: C11_16  and  C12_17
REMARK    8  A    between atoms: C12_17  and  O6_18
REMARK    9  A    between atoms: O6_18  and  S1_19
REMARK   10  A    between atoms: S1_19  and  C13_22
REMARK   11  A    between atoms: C14_26  and  C15_27
REMARK   12  A    between atoms: C18_31  and  O9_32
REMARK   13  A    between atoms: C19_34  and  O10_36
ROOT
HETATM    1  C3  UNL     1      13.920 -13.333  19.907  1.00  0.00     0.190 C
HETATM    2  O2  UNL     1      13.875 -13.687  18.554  1.00  0.00    -0.331 OA
HETATM    3  C4  UNL     1      15.113 -14.102  18.153  1.00  0.00     0.160 C
HETATM    4  C5  UNL     1      15.659 -13.169  17.057  1.00  0.00     0.078 C
HETATM    5  C6  UNL     1      14.913 -15.420  17.390  1.00  0.00     0.078 C
HETATM    6  O3  UNL     1      15.934 -14.217  19.241  1.00  0.00    -0.338 OA
HETATM    7  C7  UNL     1      15.258 -13.787  20.366  1.00  0.00     0.137 C
HETATM    8  C14 UNL     1      14.891 -15.018  21.248  1.00  0.00     0.082 C
HETATM    9  C18 UNL     1      13.549 -15.465  20.887  1.00  0.00     0.166 C
HETATM   10  C19 UNL     1      12.854 -14.121  20.584  1.00  0.00     0.122 C
HETATM   11  C20 UNL     1      12.363 -13.582  21.886  1.00  0.00     0.052 C
ENDROOT
BRANCH   7  12
HETATM   12  C8  UNL     1      15.998 -12.892  21.287  1.00  0.00     0.221 C
BRANCH  12  13
HETATM   13  O4  UNL     1      17.282 -12.504  21.032  1.00  0.00    -0.318 OA
BRANCH  13  14
HETATM   14  C9  UNL     1      18.467 -13.172  21.098  1.00  0.00     0.258 C
HETATM   15  O5  UNL     1      19.256 -12.937  20.105  1.00  0.00    -0.265 OA
BRANCH  14  16
HETATM   16  C10 UNL     1      18.895 -14.108  22.173  1.00  0.00     0.113 C
BRANCH  16  17
HETATM   17  C11 UNL     1      20.362 -14.471  22.071  1.00  0.00     0.037 C
BRANCH  17  18
HETATM   18  C12 UNL     1      20.798 -15.282  23.281  1.00  0.00     0.191 C
BRANCH  18  19
HETATM   19  O6  UNL     1      19.856 -16.296  23.405  1.00  0.00    -0.269 OA
BRANCH  19  20
HETATM   20  S1  UNL     1      19.758 -16.857  24.979  1.00  0.00     0.369 S
HETATM   21  O7  UNL     1      21.101 -17.114  25.591  1.00  0.00    -0.189 OA
HETATM   22  O8  UNL     1      19.034 -18.194  24.896  1.00  0.00    -0.189 OA
BRANCH  20  23
HETATM   23  C13 UNL     1      18.831 -15.744  26.014  1.00  0.00     0.523 C
HETATM   24  F1  UNL     1      17.891 -15.089  25.252  1.00  0.00    -0.155 F
HETATM   25  F2  UNL     1      18.192 -16.454  27.001  1.00  0.00    -0.155 F
HETATM   26  F3  UNL     1      19.716 -14.879  26.612  1.00  0.00    -0.155 F
ENDBRANCH  20  23
ENDBRANCH  19  20
ENDBRANCH  18  19
ENDBRANCH  17  18
ENDBRANCH  16  17
ENDBRANCH  14  16
ENDBRANCH  13  14
ENDBRANCH  12  13
ENDBRANCH   7  12
BRANCH   1  27
HETATM   27  C2  UNL     1      13.712 -11.873  19.984  1.00  0.00     0.164 C
HETATM   28  C1  UNL     1      13.820 -11.087  21.220  1.00  0.00     0.094 C
HETATM   29  O1  UNL     1      13.435 -11.277  18.967  1.00  0.00    -0.295 OA
ENDBRANCH   1  27
BRANCH   8  30
HETATM   30  C15 UNL     1      15.989 -15.959  21.341  1.00  0.00     0.003 C
HETATM   31  C16 UNL     1      16.176 -17.155  20.875  1.00  0.00     0.004 C
HETATM   32  C17 UNL     1      17.449 -17.890  21.146  1.00  0.00     0.061 C
HETATM   33 CL1  UNL     1      14.978 -17.989  19.933  1.00  0.00    -0.090 Cl
ENDBRANCH   8  30
BRANCH  10  34
HETATM   34  O10 UNL     1      11.801 -14.464  19.729  1.00  0.00    -0.384 OA
ATOM     35  H10 UNL     1      11.147 -13.779  19.652  1.00  0.00     0.210 HD
ENDBRANCH  10  34
BRANCH   9  36
HETATM   36  O9  UNL     1      12.940 -15.992  22.061  1.00  0.00    -0.392 OA
ATOM     37  H9  UNL     1      12.404 -16.730  21.800  1.00  0.00     0.210 HD
ENDBRANCH   9  36
TORSDOF 13
ENDMDL