MODEL 3
REMARK VINA RESULT: -8.383522845      3.821      6.608
REMARK  9 active torsions:
REMARK  status: ('A' for Active; 'I' for Inactive)
REMARK    1  A    between atoms: C5_8  and  C6_9
REMARK    2  A    between atoms: N4_12  and  C7_13
REMARK    3  A    between atoms: C7_13  and  C8_14
REMARK    4  A    between atoms: C8_14  and  C9_15
REMARK    5  A    between atoms: C9_15  and  N5_16
REMARK    6  A    between atoms: N7_27  and  C17_29
REMARK    7  A    between atoms: C17_29  and  C18_30
REMARK    8  A    between atoms: C19_35  and  O2_36
REMARK    9  A    between atoms: O2_36  and  C20_37
ROOT
HETATM    1  C6  UNL     1      16.091 -15.997  21.412  1.00  0.00     0.080 A
HETATM    2  N3  UNL     1      17.392 -15.637  21.399  1.00  0.00    -0.295 N
ATOM      3  H3  UNL     1      18.170 -16.292  21.484  1.00  0.00     0.187 HD
HETATM    4  N4  UNL     1      17.534 -14.330  21.265  1.00  0.00    -0.275 N
HETATM    5  C15 UNL     1      16.296 -13.828  21.187  1.00  0.00     0.154 A
HETATM    6  N6  UNL     1      15.862 -12.562  21.039  1.00  0.00    -0.174 N
ATOM      7  H6  UNL     1      16.545 -11.808  20.973  1.00  0.00     0.186 HD
HETATM    8  C16 UNL     1      14.551 -12.263  20.976  1.00  0.00     0.681 A
HETATM    9  N7  UNL     1      14.240 -11.034  20.836  1.00  0.00    -0.221 N
ATOM     10  H7  UNL     1      15.013 -10.370  20.783  1.00  0.00     0.177 HD
HETATM   11  N8  UNL     1      13.663 -13.279  21.065  1.00  0.00    -0.169 N
ATOM     12  H8  UNL     1      12.670 -13.054  21.017  1.00  0.00     0.186 HD
HETATM   13  C19 UNL     1      14.009 -14.558  21.213  1.00  0.00     0.176 A
HETATM   14  C24 UNL     1      15.364 -14.841  21.276  1.00  0.00     0.090 A
ENDROOT
BRANCH   4  15
HETATM   15  C7  UNL     1      18.831 -13.697  21.236  1.00  0.00     0.152 C
BRANCH  15  16
HETATM   16  C8  UNL     1      19.963 -14.661  21.440  1.00  0.00     0.052 C
BRANCH  16  17
HETATM   17  C9  UNL     1      20.766 -14.298  22.619  1.00  0.00     0.275 C
BRANCH  17  18
HETATM   18  N5  UNL     1      20.501 -15.069  23.807  1.00  0.00     0.097 N
HETATM   19  C10 UNL     1      19.847 -14.202  24.765  1.00  0.00     0.299 C
HETATM   20  C11 UNL     1      20.870 -13.651  25.732  1.00  0.00     0.198 C
HETATM   21  O1  UNL     1      21.524 -14.614  26.454  1.00  0.00    -0.387 OA
HETATM   22  C12 UNL     1      21.682 -15.828  25.837  1.00  0.00     0.203 C
HETATM   23  C13 UNL     1      21.623 -15.771  24.323  1.00  0.00     0.242 C
HETATM   24  C14 UNL     1      21.509 -17.229  23.863  1.00  0.00     0.045 C
ENDBRANCH  17  18
ENDBRANCH  16  17
ENDBRANCH  15  16
ENDBRANCH   4  15
BRANCH   1  25
HETATM   25  C5  UNL     1      15.621 -17.365  21.540  1.00  0.00     0.034 A
HETATM   26  C2  UNL     1      15.520 -18.225  20.460  1.00  0.00     0.036 A
HETATM   27  C1  UNL     1      15.837 -17.923  19.046  1.00  0.00     0.070 C
HETATM   28  N1  UNL     1      15.073 -19.392  20.962  1.00  0.00    -0.303 N
HETATM   29  N2  UNL     1      14.906 -19.272  22.263  1.00  0.00    -0.307 N
ATOM     30  H1  UNL     1      14.893 -20.236  20.419  1.00  0.00     0.186 HD
HETATM   31  C3  UNL     1      14.443 -20.285  23.198  1.00  0.00     0.177 C
HETATM   32  C4  UNL     1      15.236 -18.025  22.659  1.00  0.00     0.125 A
ENDBRANCH   1  25
BRANCH  13  33
HETATM   33  O2  UNL     1      13.127 -15.610  21.305  1.00  0.00    -0.300 OA
BRANCH  33  34
HETATM   34  C20 UNL     1      12.313 -16.097  20.289  1.00  0.00     0.334 C
HETATM   35  C21 UNL     1      11.982 -17.582  20.426  1.00  0.00     0.142 C
HETATM   36  C22 UNL     1      11.414 -17.877  19.043  1.00  0.00     0.271 C
HETATM   37  F3  UNL     1      10.044 -17.687  19.136  1.00  0.00    -0.204 F
HETATM   38  F4  UNL     1      11.738 -19.136  18.617  1.00  0.00    -0.204 F
HETATM   39  C23 UNL     1      12.040 -16.805  18.159  1.00  0.00     0.314 C
HETATM   40  N9  UNL     1      13.003 -16.117  18.994  1.00  0.00    -0.043 N
ATOM     41  H92 UNL     1      13.304 -15.205  18.648  1.00  0.00     0.280 HD
ATOM     42  H91 UNL     1      13.937 -16.526  19.005  1.00  0.00     0.280 HD
ENDBRANCH  33  34
ENDBRANCH  13  33
BRANCH   9  43
HETATM   43  C17 UNL     1      12.923 -10.490  20.745  1.00  0.00     0.209 C
BRANCH  43  44
HETATM   44  C18 UNL     1      12.288 -10.220  22.093  1.00  0.00     0.371 C
HETATM   45  F1  UNL     1      11.568 -11.333  22.478  1.00  0.00    -0.213 F
HETATM   46  F2  UNL     1      13.204  -9.940  23.072  1.00  0.00    -0.213 F
ENDBRANCH  43  44
ENDBRANCH   9  43
TORSDOF 9
ENDMDL