MODEL 2
REMARK VINA RESULT: -7.246357589      1.142      1.313
REMARK  12 active torsions:
REMARK  status: ('A' for Active; 'I' for Inactive)
REMARK    1  A    between atoms: O1_2  and  C2_3
REMARK    2  A    between atoms: C2_3  and  C3_4
REMARK    3  A    between atoms: C3_4  and  O2_5
REMARK    4  A    between atoms: O2_5  and  C4_6
REMARK    5  A    between atoms: C5_8  and  O4_9
REMARK    6  A    between atoms: O4_9  and  C6_10
REMARK    7  A    between atoms: C6_10  and  C7_12
REMARK    8  A    between atoms: C11_19  and  O6_20
REMARK    9  A    between atoms: C12_22  and  O7_23
REMARK   10  A    between atoms: C14_27  and  C15_28
REMARK   11  A    between atoms: C15_28  and  C16_29
REMARK   12  A    between atoms: C16_29  and  C17_30
ROOT
HETATM    1  C4  UNL     1      18.108 -16.602  21.870  1.00  0.00     0.295 C
HETATM    2  O3  UNL     1      18.807 -16.872  23.053  1.00  0.00    -0.325 OA
HETATM    3  C5  UNL     1      20.150 -16.547  22.966  1.00  0.00     0.297 C
HETATM    4  C8  UNL     1      20.388 -15.075  22.784  1.00  0.00     0.030 C
HETATM    5  C9  UNL     1      19.805 -14.190  22.008  1.00  0.00    -0.016 C
HETATM    6  C10 UNL     1      18.698 -14.409  21.052  1.00  0.00     0.075 C
HETATM    7  C11 UNL     1      18.228 -13.201  20.360  1.00  0.00     0.160 C
HETATM    8  C12 UNL     1      16.947 -12.623  20.832  1.00  0.00     0.190 C
HETATM    9  C13 UNL     1      15.833 -13.613  20.997  1.00  0.00     0.157 C
HETATM   10  O8  UNL     1      14.974 -13.132  22.016  1.00  0.00    -0.363 OA
HETATM   11  C14 UNL     1      14.104 -12.635  21.049  1.00  0.00     0.130 C
HETATM   12  C20 UNL     1      14.736 -13.471  19.999  1.00  0.00     0.056 C
HETATM   13  C21 UNL     1      14.026 -14.686  19.528  1.00  0.00     0.016 C
HETATM   14  C22 UNL     1      16.274 -14.959  21.374  1.00  0.00     0.193 C
HETATM   15  O9  UNL     1      15.503 -15.880  21.322  1.00  0.00    -0.292 OA
HETATM   16  C23 UNL     1      17.648 -15.190  21.815  1.00  0.00     0.159 C
HETATM   17 CL1  UNL     1      17.699 -14.598  23.529  1.00  0.00    -0.104 Cl
ENDROOT
BRANCH   8  18
HETATM   18  O7  UNL     1      16.531 -11.660  19.911  1.00  0.00    -0.389 OA
ATOM     19  H7  UNL     1      15.939 -12.071  19.292  1.00  0.00     0.210 HD
ENDBRANCH   8  18
BRANCH   7  20
HETATM   20  O6  UNL     1      19.215 -12.201  20.491  1.00  0.00    -0.392 OA
ATOM     21  H6  UNL     1      18.828 -11.366  20.257  1.00  0.00     0.210 HD
ENDBRANCH   7  20
BRANCH  11  22
HETATM   22  C15 UNL     1      12.695 -12.920  21.436  1.00  0.00     0.033 C
BRANCH  22  23
HETATM   23  C16 UNL     1      11.868 -11.722  21.776  1.00  0.00     0.006 C
BRANCH  23  24
HETATM   24  C17 UNL     1      12.180 -11.350  23.211  1.00  0.00    -0.023 C
HETATM   25  C18 UNL     1      12.197  -9.843  23.315  1.00  0.00     0.009 C
HETATM   26  C19 UNL     1      11.127 -11.916  24.139  1.00  0.00     0.009 C
ENDBRANCH  23  24
ENDBRANCH  22  23
ENDBRANCH  11  22
BRANCH   1  27
HETATM   27  O2  UNL     1      17.149 -17.575  21.703  1.00  0.00    -0.357 OA
BRANCH  27  28
HETATM   28  C3  UNL     1      17.171 -18.532  22.707  1.00  0.00     0.197 C
BRANCH  28  29
HETATM   29  C2  UNL     1      16.005 -18.392  23.650  1.00  0.00     0.193 C
BRANCH  29  30
HETATM   30  O1  UNL     1      14.770 -18.584  23.047  1.00  0.00    -0.394 OA
HETATM   31  C1  UNL     1      14.520 -19.953  22.969  1.00  0.00     0.201 C
ENDBRANCH  29  30
ENDBRANCH  28  29
ENDBRANCH  27  28
ENDBRANCH   1  27
BRANCH   3  32
HETATM   32  O4  UNL     1      20.799 -17.189  21.893  1.00  0.00    -0.279 OA
BRANCH  32  33
HETATM   33  C6  UNL     1      21.259 -18.484  22.085  1.00  0.00     0.370 C
HETATM   34  O5  UNL     1      20.470 -19.474  21.905  1.00  0.00    -0.255 OA
BRANCH  33  35
HETATM   35  C7  UNL     1      22.662 -18.742  22.496  1.00  0.00     0.479 C
HETATM   36  F1  UNL     1      23.135 -17.723  23.319  1.00  0.00    -0.162 F
HETATM   37  F2  UNL     1      23.479 -18.754  21.387  1.00  0.00    -0.162 F
HETATM   38  F3  UNL     1      22.750 -19.977  23.094  1.00  0.00    -0.162 F
ENDBRANCH  33  35
ENDBRANCH  32  33
ENDBRANCH   3  32
TORSDOF 12
ENDMDL