MODEL 5
REMARK VINA RESULT: -8.727076883      3.503     10.076
REMARK  11 active torsions:
REMARK  status: ('A' for Active; 'I' for Inactive)
REMARK    1  A    between atoms: S1_2  and  C2_5
REMARK    2  A    between atoms: N2_9  and  C4_11
REMARK    3  A    between atoms: C4_11  and  C5_12
REMARK    4  A    between atoms: C4_11  and  C6_14
REMARK    5  A    between atoms: C6_14  and  C7_15
REMARK    6  A    between atoms: C7_15  and  C8_16
REMARK    7  A    between atoms: C8_16  and  O3_17
REMARK    8  A    between atoms: C8_16  and  C9_19
REMARK    9  A    between atoms: C8_16  and  C16_34
REMARK   10  A    between atoms: C10_24  and  C11_25
REMARK   11  A    between atoms: C19_39  and  C20_40
ROOT
HETATM    1  C6  UNL     1      19.917 -16.705  23.409  1.00  0.00     0.031 C
ENDROOT
BRANCH   1   2
HETATM    2  C4  UNL     1      18.429 -16.421  23.614  1.00  0.00     0.128 C
BRANCH   2   3
HETATM    3  N2  UNL     1      18.139 -15.372  22.676  1.00  0.00    -0.219 N
HETATM    4  C3  UNL     1      17.113 -15.288  21.917  1.00  0.00     0.682 A
HETATM    5  N1  UNL     1      16.938 -14.252  21.068  1.00  0.00    -0.166 N
HETATM    6  N5  UNL     1      16.141 -16.204  21.914  1.00  0.00    -0.175 N
HETATM    7  C2  UNL     1      15.858 -14.146  20.269  1.00  0.00     0.218 A
ATOM      8  H1  UNL     1      17.649 -13.522  21.030  1.00  0.00     0.186 HD
HETATM    9  N6  UNL     1      14.910 -15.121  20.320  1.00  0.00    -0.317 N
HETATM   10  C19 UNL     1      15.057 -16.157  21.152  1.00  0.00     0.164 A
ATOM     11  H6  UNL     1      14.086 -15.061  19.722  1.00  0.00     0.169 HD
ATOM     12  H5  UNL     1      16.241 -17.000  22.544  1.00  0.00     0.185 HD
ATOM     13  H2  UNL     1      18.821 -14.617  22.608  1.00  0.00     0.178 HD
BRANCH   7  14
HETATM   14  S1  UNL     1      15.575 -12.826  19.192  1.00  0.00     0.204 S
HETATM   15  C1  UNL     1      14.595 -13.331  17.826  1.00  0.00     0.170 C
HETATM   16  O1  UNL     1      16.842 -12.208  18.698  1.00  0.00    -0.220 OA
HETATM   17  O2  UNL     1      14.816 -11.723  19.896  1.00  0.00    -0.220 OA
ENDBRANCH   7  14
BRANCH  10  18
HETATM   18  C20 UNL     1      14.017 -17.243  21.245  1.00  0.00     0.420 C
HETATM   19  F3  UNL     1      12.743 -16.698  21.400  1.00  0.00    -0.206 F
HETATM   20  F4  UNL     1      14.030 -17.974  20.106  1.00  0.00    -0.206 F
ENDBRANCH  10  18
ENDBRANCH   2   3
BRANCH   2  21
HETATM   21  C5  UNL     1      18.015 -16.250  25.015  1.00  0.00     0.247 C
HETATM   22  F1  UNL     1      17.621 -14.919  25.225  1.00  0.00    -0.253 F
ENDBRANCH   2  21
ENDBRANCH   1   2
BRANCH   1  23
HETATM   23  C7  UNL     1      20.798 -16.277  24.522  1.00  0.00     0.049 C
BRANCH  23  24
HETATM   24  C8  UNL     1      21.743 -15.194  24.066  1.00  0.00     0.128 C
BRANCH  24  25
HETATM   25  O3  UNL     1      21.198 -14.540  22.984  1.00  0.00    -0.381 OA
ATOM     26  H3  UNL     1      20.331 -14.224  23.211  1.00  0.00     0.211 HD
ENDBRANCH  24  25
BRANCH  24  27
HETATM   27  C9  UNL     1      23.166 -15.611  23.931  1.00  0.00     0.175 A
HETATM   28  N3  UNL     1      24.274 -14.882  23.960  1.00  0.00    -0.279 N
HETATM   29  N4  UNL     1      25.311 -15.723  23.791  1.00  0.00    -0.277 N
ATOM     30  H3  UNL     1      24.330 -13.871  24.088  1.00  0.00     0.189 HD
HETATM   31  C10 UNL     1      24.865 -16.971  23.656  1.00  0.00     0.211 A
ATOM     32  H4  UNL     1      26.292 -15.447  23.771  1.00  0.00     0.189 HD
HETATM   33  O6  UNL     1      23.559 -16.867  23.745  1.00  0.00    -0.273 OA
BRANCH  31  34
HETATM   34  C11 UNL     1      25.586 -18.264  23.448  1.00  0.00     0.293 C
HETATM   35  F2  UNL     1      26.194 -18.608  24.679  1.00  0.00    -0.200 F
HETATM   36  C12 UNL     1      26.745 -17.973  22.514  1.00  0.00     0.250 C
HETATM   37  O4  UNL     1      27.632 -19.038  22.443  1.00  0.00    -0.385 OA
HETATM   38  C13 UNL     1      27.255 -19.826  21.359  1.00  0.00     0.170 C
HETATM   39  C14 UNL     1      26.057 -20.673  21.662  1.00  0.00     0.052 C
HETATM   40  C15 UNL     1      25.554 -20.453  23.065  1.00  0.00     0.174 C
HETATM   41  O5  UNL     1      24.782 -19.282  23.069  1.00  0.00    -0.343 OA
ENDBRANCH  31  34
ENDBRANCH  24  27
BRANCH  24  42
HETATM   42  C16 UNL     1      21.789 -14.093  25.172  1.00  0.00     0.028 A
HETATM   43  C17 UNL     1      21.058 -14.461  26.438  1.00  0.00     0.008 A
HETATM   44  C18 UNL     1      20.628 -13.343  25.595  1.00  0.00     0.008 A
ENDBRANCH  24  42
ENDBRANCH  23  24
ENDBRANCH   1  23
TORSDOF 11
ENDMDL