MODEL 1
REMARK VINA RESULT: -7.249966751      0.000      0.000
REMARK  13 active torsions:
REMARK  status: ('A' for Active; 'I' for Inactive)
REMARK    1  A    between atoms: O1_2  and  C2_3
REMARK    2  A    between atoms: C4_5  and  C5_6
REMARK    3  A    between atoms: C4_5  and  C12_21
REMARK    4  A    between atoms: C6_7  and  C7_8
REMARK    5  A    between atoms: C9_12  and  C10_13
REMARK    6  A    between atoms: C10_13  and  C11_16
REMARK    7  A    between atoms: C12_21  and  O2_22
REMARK    8  A    between atoms: C14_25  and  C16_27
REMARK    9  A    between atoms: C16_27  and  C17_28
REMARK   10  A    between atoms: C17_28  and  O3_29
REMARK   11  A    between atoms: N2_31  and  O4_33
REMARK   12  A    between atoms: O4_33  and  C18_34
REMARK   13  A    between atoms: C18_34  and  C19_35
REMARK       I    between atoms: C19_35  and  N3_37
ROOT
HETATM    1  C2  UNL     1      15.032 -18.058  20.306  1.00  0.00     0.136 C
HETATM    2  C3  UNL     1      15.606 -19.467  20.662  1.00  0.00     0.057 C
HETATM    3  C4  UNL     1      15.248 -19.511  22.150  1.00  0.00     0.048 C
HETATM    4  C13 UNL     1      13.994 -18.730  22.258  1.00  0.00     0.042 C
HETATM    5  C14 UNL     1      13.623 -18.300  20.842  1.00  0.00     0.026 C
HETATM    6  C15 UNL     1      13.001 -19.388  20.010  1.00  0.00     0.024 C
ENDROOT
BRANCH   3   7
HETATM    7  C5  UNL     1      16.340 -18.780  22.866  1.00  0.00    -0.088 C
HETATM    8  C6  UNL     1      17.258 -18.192  23.385  1.00  0.00    -0.057 C
BRANCH   8   9
HETATM    9  C7  UNL     1      18.373 -17.482  23.950  1.00  0.00     0.075 A
HETATM   10  C8  UNL     1      19.705 -17.607  23.740  1.00  0.00     0.117 A
HETATM   11  N1  UNL     1      20.517 -16.837  24.405  1.00  0.00    -0.357 N
HETATM   12  C9  UNL     1      20.033 -15.956  25.266  1.00  0.00     0.134 A
ATOM     13  H1  UNL     1      21.524 -16.912  24.262  1.00  0.00     0.165 HD
HETATM   14  S1  UNL     1      18.352 -16.214  25.141  1.00  0.00    -0.060 SA
BRANCH  12  15
HETATM   15  C10 UNL     1      20.720 -14.974  26.159  1.00  0.00     0.387 C
HETATM   16  F1  UNL     1      21.828 -15.486  26.750  1.00  0.00    -0.188 F
HETATM   17  F2  UNL     1      19.756 -14.611  27.103  1.00  0.00    -0.188 F
BRANCH  15  18
HETATM   18  C11 UNL     1      20.997 -13.726  25.315  1.00  0.00     0.461 C
HETATM   19  F3  UNL     1      22.291 -13.719  24.877  1.00  0.00    -0.165 F
HETATM   20  F4  UNL     1      20.093 -13.744  24.242  1.00  0.00    -0.165 F
HETATM   21  F5  UNL     1      20.711 -12.618  26.084  1.00  0.00    -0.165 F
ENDBRANCH  15  18
ENDBRANCH  12  15
ENDBRANCH   8   9
ENDBRANCH   3   7
BRANCH   3  22
HETATM   22  C12 UNL     1      15.219 -20.901  22.725  1.00  0.00     0.186 C
BRANCH  22  23
HETATM   23  O2  UNL     1      14.086 -21.375  23.262  1.00  0.00    -0.399 OA
ATOM     24  H2  UNL     1      13.366 -21.628  22.697  1.00  0.00     0.209 HD
ENDBRANCH  22  23
ENDBRANCH   3  22
BRANCH   1  25
HETATM   25  O1  UNL     1      15.665 -17.122  21.057  1.00  0.00    -0.390 OA
HETATM   26  C1  UNL     1      16.313 -16.102  20.387  1.00  0.00     0.202 C
ENDBRANCH   1  25
BRANCH   5  27
HETATM   27  C16 UNL     1      12.722 -17.147  20.759  1.00  0.00     0.044 C
HETATM   28  N2  UNL     1      12.957 -16.071  21.365  1.00  0.00    -0.272 N
ATOM     29  H2  UNL     1      13.811 -16.020  21.922  1.00  0.00     0.193 HD
BRANCH  27  30
HETATM   30  C17 UNL     1      11.493 -17.311  19.953  1.00  0.00     0.219 C
BRANCH  30  31
HETATM   31  O3  UNL     1      11.485 -16.579  18.776  1.00  0.00    -0.395 OA
ATOM     32  H3  UNL     1      12.347 -16.422  18.410  1.00  0.00     0.209 HD
ENDBRANCH  30  31
ENDBRANCH  27  30
BRANCH  28  33
HETATM   33  O4  UNL     1      12.141 -14.941  21.336  1.00  0.00    -0.271 OA
BRANCH  33  34
HETATM   34  C18 UNL     1      12.580 -13.888  20.461  1.00  0.00     0.304 C
BRANCH  34  35
HETATM   35  C19 UNL     1      13.863 -13.364  20.916  1.00  0.00     0.246 C
HETATM   36  O5  UNL     1      14.153 -13.250  22.113  1.00  0.00    -0.271 OA
HETATM   37  N3  UNL     1      14.844 -12.954  19.931  1.00  0.00    -0.346 N
HETATM   38  C20 UNL     1      14.510 -13.200  18.563  1.00  0.00     0.152 C
HETATM   39  C23 UNL     1      16.057 -12.311  20.315  1.00  0.00     0.152 C
HETATM   40  C21 UNL     1      15.611 -12.925  17.605  1.00  0.00     0.187 C
HETATM   41  O6  UNL     1      16.642 -12.132  18.044  1.00  0.00    -0.388 OA
HETATM   42  C22 UNL     1      17.122 -12.573  19.288  1.00  0.00     0.187 C
ENDBRANCH  34  35
ENDBRANCH  33  34
ENDBRANCH  28  33
ENDBRANCH   5  27
TORSDOF 13
ENDMDL