MODEL 1
REMARK VINA RESULT: -8.912432840      0.000      0.000
REMARK  10 active torsions:
REMARK  status: ('A' for Active; 'I' for Inactive)
REMARK    1  A    between atoms: C2_2  and  O1_3
REMARK    2  A    between atoms: O1_3  and  C3_4
REMARK    3  A    between atoms: C4_5  and  O2_6
REMARK    4  A    between atoms: C5_8  and  O3_9
REMARK    5  A    between atoms: O3_9  and  C6_10
REMARK    6  A    between atoms: C6_10  and  C7_11
REMARK    7  A    between atoms: C7_11  and  N1_12
REMARK    8  A    between atoms: N2_15  and  C10_16
REMARK    9  A    between atoms: C11_19  and  C12_20
REMARK   10  A    between atoms: C15_29  and  N7_30
ROOT
HETATM    1  C10 UNL     1      14.140 -16.644  20.860  1.00  0.00     0.696 A
HETATM    2  N3  UNL     1      13.362 -17.224  19.933  1.00  0.00    -0.175 N
ATOM      3  H3  UNL     1      13.524 -18.205  19.707  1.00  0.00     0.186 HD
HETATM    4  C11 UNL     1      12.381 -16.574  19.289  1.00  0.00     0.149 A
HETATM    5  N6  UNL     1      12.182 -15.283  19.598  1.00  0.00    -0.175 N
ATOM      6  H6  UNL     1      11.441 -14.769  19.121  1.00  0.00     0.186 HD
HETATM    7  C15 UNL     1      12.931 -14.642  20.524  1.00  0.00     0.696 A
HETATM    8  N8  UNL     1      13.890 -15.344  21.129  1.00  0.00    -0.022 N
ATOM      9  H8  UNL     1      14.465 -14.875  21.830  1.00  0.00     0.203 HD
ENDROOT
BRANCH   1  10
HETATM   10  N2  UNL     1      15.165 -17.365  21.531  1.00  0.00    -0.211 N
HETATM   11  C9  UNL     1      14.825 -18.514  22.333  1.00  0.00     0.186 C
HETATM   12  C8  UNL     1      16.045 -19.188  22.896  1.00  0.00     0.084 C
HETATM   13  N1  UNL     1      16.957 -18.300  23.461  1.00  0.00    -0.365 N
HETATM   14  C23 UNL     1      17.081 -16.994  22.870  1.00  0.00     0.147 C
HETATM   15  C22 UNL     1      16.541 -16.984  21.435  1.00  0.00     0.161 C
BRANCH  13  16
HETATM   16  C7  UNL     1      18.146 -18.748  24.053  1.00  0.00     0.114 C
BRANCH  16  17
HETATM   17  C6  UNL     1      19.300 -17.851  24.195  1.00  0.00     0.152 C
BRANCH  17  18
HETATM   18  O3  UNL     1      19.669 -17.297  25.367  1.00  0.00    -0.351 OA
BRANCH  18  19
HETATM   19  C5  UNL     1      20.741 -16.429  25.353  1.00  0.00     0.199 C
HETATM   20  C4  UNL     1      21.085 -16.053  23.897  1.00  0.00     0.185 C
HETATM   21  C3  UNL     1      20.829 -14.581  23.746  1.00  0.00     0.227 C
HETATM   22  C25 UNL     1      21.120 -14.062  25.146  1.00  0.00     0.304 C
HETATM   23  C24 UNL     1      20.400 -15.122  25.974  1.00  0.00     0.276 C
HETATM   24  F2  UNL     1      20.570 -12.812  25.327  1.00  0.00    -0.200 F
HETATM   25  F3  UNL     1      22.459 -14.013  25.387  1.00  0.00    -0.200 F
HETATM   26  F1  UNL     1      19.037 -14.815  25.843  1.00  0.00    -0.240 F
BRANCH  20  27
HETATM   27  O2  UNL     1      22.452 -16.249  23.736  1.00  0.00    -0.390 OA
ATOM     28  H2  UNL     1      22.745 -16.781  24.466  1.00  0.00     0.210 HD
ENDBRANCH  20  27
BRANCH  21  29
HETATM   29  O1  UNL     1      19.499 -14.355  23.411  1.00  0.00    -0.377 OA
BRANCH  29  30
HETATM   30  C2  UNL     1      19.352 -14.247  22.028  1.00  0.00     0.164 C
HETATM   31  C1  UNL     1      18.166 -13.425  21.639  1.00  0.00     0.033 C
ENDBRANCH  29  30
ENDBRANCH  21  29
ENDBRANCH  18  19
ENDBRANCH  17  18
ENDBRANCH  16  17
ENDBRANCH  13  16
ENDBRANCH   1  10
BRANCH   4  32
HETATM   32  C12 UNL     1      11.586 -17.280  18.294  1.00  0.00     0.043 A
HETATM   33  C13 UNL     1      11.874 -18.490  17.709  1.00  0.00     0.123 A
HETATM   34  N4  UNL     1      10.879 -18.795  16.837  1.00  0.00    -0.311 N
HETATM   35  N5  UNL     1       9.965 -17.812  16.852  1.00  0.00    -0.311 N
ATOM     36  H4  UNL     1      10.833 -19.636  16.262  1.00  0.00     0.186 HD
HETATM   37  C14 UNL     1      10.384 -16.890  17.730  1.00  0.00     0.123 A
ATOM     38  H5  UNL     1       9.109 -17.774  16.297  1.00  0.00     0.186 HD
ENDBRANCH   4  32
BRANCH   7  39
HETATM   39  N7  UNL     1      12.679 -13.266  20.825  1.00  0.00    -0.217 N
HETATM   40  C16 UNL     1      13.357 -12.231  20.075  1.00  0.00     0.141 C
HETATM   41  C17 UNL     1      13.039 -10.854  20.615  1.00  0.00     0.025 C
HETATM   42  C18 UNL     1      13.143 -10.812  22.125  1.00  0.00    -0.007 A
HETATM   43  C19 UNL     1      11.843 -10.453  22.813  1.00  0.00     0.011 A
HETATM   44  C20 UNL     1      12.342 -11.850  22.803  1.00  0.00     0.009 A
HETATM   45  C21 UNL     1      11.766 -12.873  21.854  1.00  0.00     0.146 C
ENDBRANCH   7  39
TORSDOF 10
ENDMDL