MODEL 1
REMARK VINA RESULT: -8.222908824      0.000      0.000
REMARK  10 active torsions:
REMARK  status: ('A' for Active; 'I' for Inactive)
REMARK    1  A    between atoms: C2_2  and  O1_3
REMARK    2  A    between atoms: C2_2  and  C25_43
REMARK    3  A    between atoms: O1_3  and  C3_4
REMARK    4  A    between atoms: C4_5  and  C5_6
REMARK    5  A    between atoms: C5_6  and  N1_7
REMARK    6  A    between atoms: N1_7  and  C6_10
REMARK    7  A    between atoms: C12_18  and  N2_19
REMARK    8  A    between atoms: N2_19  and  C13_21
REMARK    9  A    between atoms: C14_24  and  N4_25
REMARK   10  A    between atoms: C19_33  and  N6_34
ROOT
HETATM    1  N2  UNL     1      16.265 -15.601  20.670  1.00  0.00    -0.185 N
ATOM      2  H2  UNL     1      16.459 -15.905  19.716  1.00  0.00     0.184 HD
ENDROOT
BRANCH   1   3
HETATM    3  C12 UNL     1      15.560 -14.407  20.749  1.00  0.00     0.121 A
HETATM    4  C3  UNL     1      14.223 -14.389  21.081  1.00  0.00     0.110 A
HETATM    5  C4  UNL     1      13.602 -13.127  21.104  1.00  0.00     0.042 A
HETATM    6  C9  UNL     1      14.310 -11.975  20.807  1.00  0.00     0.130 A
HETATM    7  F1  UNL     1      13.752 -10.723  20.841  1.00  0.00    -0.205 F
HETATM    8  C10 UNL     1      15.660 -12.027  20.474  1.00  0.00     0.087 A
HETATM    9  C11 UNL     1      16.273 -13.248  20.449  1.00  0.00     0.149 A
HETATM   10  F2  UNL     1      17.583 -13.311  20.102  1.00  0.00    -0.203 F
BRANCH   4  11
HETATM   11  O1  UNL     1      13.501 -15.510  21.374  1.00  0.00    -0.338 OA
BRANCH  11  12
HETATM   12  C2  UNL     1      12.593 -16.253  20.659  1.00  0.00     0.190 C
HETATM   13  C1  UNL     1      12.893 -17.775  20.771  1.00  0.00     0.046 C
BRANCH  12  14
HETATM   14  C25 UNL     1      12.659 -15.945  19.189  1.00  0.00     0.381 C
HETATM   15  F3  UNL     1      11.529 -16.153  18.465  1.00  0.00    -0.212 F
HETATM   16  F4  UNL     1      13.745 -16.636  18.605  1.00  0.00    -0.212 F
ENDBRANCH  12  14
ENDBRANCH  11  12
ENDBRANCH   4  11
BRANCH   5  17
HETATM   17  C5  UNL     1      12.181 -13.004  21.467  1.00  0.00     0.277 C
BRANCH  17  18
HETATM   18  N1  UNL     1      11.874 -13.093  22.867  1.00  0.00    -0.067 N
ATOM     19  H12 UNL     1      11.409 -13.970  23.099  1.00  0.00     0.277 HD
ATOM     20  H11 UNL     1      12.714 -13.213  23.434  1.00  0.00     0.277 HD
BRANCH  18  21
HETATM   21  C6  UNL     1      11.088 -11.926  23.291  1.00  0.00     0.186 A
HETATM   22  C7  UNL     1      11.744 -10.626  23.531  1.00  0.00     0.035 A
HETATM   23  C8  UNL     1      11.353 -11.473  24.693  1.00  0.00     0.035 A
ENDBRANCH  18  21
ENDBRANCH  17  18
ENDBRANCH   5  17
ENDBRANCH   1   3
BRANCH   1  24
HETATM   24  C13 UNL     1      16.710 -16.381  21.554  1.00  0.00     0.712 A
HETATM   25  N3  UNL     1      16.144 -17.527  21.959  1.00  0.00    -0.021 N
HETATM   26  C14 UNL     1      16.646 -18.329  22.905  1.00  0.00     0.709 A
ATOM     27  H3  UNL     1      15.270 -17.807  21.514  1.00  0.00     0.203 HD
HETATM   28  N5  UNL     1      17.798 -17.945  23.479  1.00  0.00    -0.021 N
HETATM   29  C19 UNL     1      18.405 -16.788  23.096  1.00  0.00     0.710 A
ATOM     30  H5  UNL     1      18.219 -18.523  24.205  1.00  0.00     0.203 HD
HETATM   31  N7  UNL     1      17.882 -16.006  22.149  1.00  0.00    -0.021 N
ATOM     32  H7  UNL     1      18.350 -15.142  21.875  1.00  0.00     0.203 HD
BRANCH  26  33
HETATM   33  N4  UNL     1      16.043 -19.539  23.327  1.00  0.00    -0.213 N
HETATM   34  C15 UNL     1      15.945 -19.911  24.733  1.00  0.00     0.167 C
HETATM   35  C16 UNL     1      14.604 -20.527  25.053  1.00  0.00     0.188 C
HETATM   36  O2  UNL     1      13.757 -20.342  23.953  1.00  0.00    -0.388 OA
HETATM   37  C17 UNL     1      14.219 -21.093  22.897  1.00  0.00     0.188 C
HETATM   38  C18 UNL     1      15.485 -20.487  22.376  1.00  0.00     0.167 C
ENDBRANCH  26  33
BRANCH  29  39
HETATM   39  N6  UNL     1      19.626 -16.390  23.709  1.00  0.00    -0.208 N
HETATM   40  C20 UNL     1      20.657 -17.348  24.067  1.00  0.00     0.168 C
HETATM   41  C21 UNL     1      21.861 -16.589  24.523  1.00  0.00     0.188 C
HETATM   42  O3  UNL     1      22.221 -15.537  23.697  1.00  0.00    -0.388 OA
HETATM   43  C22 UNL     1      21.271 -14.566  23.574  1.00  0.00     0.193 C
HETATM   44  C23 UNL     1      19.893 -14.997  24.004  1.00  0.00     0.122 C
HETATM   45  C24 UNL     1      19.589 -14.673  25.441  1.00  0.00     0.035 C
ENDBRANCH  29  39
ENDBRANCH   1  24
TORSDOF 10
ENDMDL