MODEL 3
REMARK VINA RESULT: -7.210382040      5.427      7.299
REMARK  12 active torsions:
REMARK  status: ('A' for Active; 'I' for Inactive)
REMARK    1  A    between atoms: O1_2  and  C2_3
REMARK    2  A    between atoms: C2_3  and  C3_5
REMARK    3  A    between atoms: C3_5  and  O3_6
REMARK    4  A    between atoms: O3_6  and  C4_7
REMARK    5  A    between atoms: C4_7  and  C5_8
REMARK    6  A    between atoms: C8_11  and  C9_12
REMARK    7  A    between atoms: C9_12  and  O4_13
REMARK    8  A    between atoms: C10_16  and  S1_17
REMARK    9  A    between atoms: S1_17  and  C11_18
REMARK   10  A    between atoms: C12_21  and  O6_22
REMARK   11  A    between atoms: O6_22  and  S2_23
REMARK   12  A    between atoms: S2_23  and  N1_25
ROOT
HETATM    1  C3  UNL     1      19.444 -15.314  22.852  1.00  0.00     0.227 C
HETATM    2  C10 UNL     1      20.313 -15.517  24.085  1.00  0.00     0.135 C
HETATM    3  C12 UNL     1      21.018 -16.830  23.997  1.00  0.00     0.175 C
HETATM    4  C14 UNL     1      19.999 -17.925  23.962  1.00  0.00     0.124 C
HETATM    5 BR1  UNL     1      20.785 -19.671  24.219  1.00  0.00    -0.086 Br
HETATM    6  C15 UNL     1      19.340 -17.822  22.580  1.00  0.00     0.214 A
HETATM    7  O8  UNL     1      20.174 -17.292  21.595  1.00  0.00    -0.334 OA
HETATM    8  C16 UNL     1      19.024 -16.557  22.164  1.00  0.00     0.275 A
HETATM    9  F3  UNL     1      18.130 -16.344  21.124  1.00  0.00    -0.205 F
ENDROOT
BRANCH   1  10
HETATM   10  C2  UNL     1      20.382 -14.577  21.904  1.00  0.00     0.301 C
HETATM   11  O2  UNL     1      21.484 -14.131  22.239  1.00  0.00    -0.262 OA
BRANCH  10  12
HETATM   12  O1  UNL     1      19.972 -14.398  20.599  1.00  0.00    -0.324 OA
HETATM   13  C1  UNL     1      20.310 -13.175  19.928  1.00  0.00     0.213 C
ENDBRANCH  10  12
ENDBRANCH   1  10
BRANCH   1  14
HETATM   14  O3  UNL     1      18.457 -14.437  23.096  1.00  0.00    -0.357 OA
BRANCH  14  15
HETATM   15  C4  UNL     1      17.163 -14.674  23.123  1.00  0.00     0.234 C
BRANCH  15  16
HETATM   16  C5  UNL     1      16.507 -13.733  22.121  1.00  0.00     0.077 A
HETATM   17  C6  UNL     1      17.097 -13.109  21.050  1.00  0.00     0.037 A
HETATM   18  C7  UNL     1      16.141 -12.363  20.428  1.00  0.00     0.037 A
HETATM   19  C8  UNL     1      14.984 -12.549  21.137  1.00  0.00     0.076 A
HETATM   20  O5  UNL     1      15.255 -13.364  22.123  1.00  0.00    -0.315 OA
BRANCH  19  21
HETATM   21  C9  UNL     1      13.700 -11.892  20.764  1.00  0.00     0.229 C
BRANCH  21  22
HETATM   22  O4  UNL     1      13.741 -11.618  19.380  1.00  0.00    -0.394 OA
ATOM     23  H4  UNL     1      13.326 -12.341  18.927  1.00  0.00     0.209 HD
ENDBRANCH  21  22
ENDBRANCH  19  21
ENDBRANCH  15  16
ENDBRANCH  14  15
ENDBRANCH   1  14
BRANCH   2  24
HETATM   24  S1  UNL     1      19.529 -15.164  25.631  1.00  0.00    -0.089 SA
BRANCH  24  25
HETATM   25  C11 UNL     1      20.478 -14.159  26.764  1.00  0.00     0.416 C
HETATM   26  F1  UNL     1      20.601 -12.840  26.388  1.00  0.00    -0.202 F
HETATM   27  F2  UNL     1      21.661 -14.780  27.072  1.00  0.00    -0.202 F
ENDBRANCH  24  25
ENDBRANCH   2  24
BRANCH   3  28
HETATM   28  O6  UNL     1      22.056 -17.012  24.893  1.00  0.00    -0.284 OA
BRANCH  28  29
HETATM   29  S2  UNL     1      23.572 -16.933  24.192  1.00  0.00     0.135 S
HETATM   30  C13 UNL     1      24.788 -17.786  25.185  1.00  0.00     0.168 C
HETATM   31  O7  UNL     1      23.516 -17.615  22.873  1.00  0.00    -0.222 OA
BRANCH  29  32
HETATM   32  N1  UNL     1      24.085 -15.498  23.983  1.00  0.00    -0.340 N
ATOM     33  H12 UNL     1      24.890 -15.289  23.392  1.00  0.00     0.167 HD
ATOM     34  H11 UNL     1      23.548 -14.792  24.486  1.00  0.00     0.167 HD
ENDBRANCH  29  32
ENDBRANCH  28  29
ENDBRANCH   3  28
TORSDOF 12
ENDMDL