MODEL 2
REMARK VINA RESULT: -8.419267908      3.323      5.848
REMARK  11 active torsions:
REMARK  status: ('A' for Active; 'I' for Inactive)
REMARK    1  A    between atoms: O1_2  and  C2_3
REMARK       I    between atoms: C2_3  and  N1_5
REMARK    2  A    between atoms: N1_5  and  C3_7
REMARK    3  A    between atoms: C3_7  and  C6_10
REMARK    4  A    between atoms: C6_10  and  C7_11
REMARK    5  A    between atoms: C6_10  and  O7_42
REMARK    6  A    between atoms: C7_11  and  N2_12
REMARK    7  A    between atoms: C9_14  and  C10_15
REMARK       I    between atoms: N3_21  and  C13_23
REMARK    8  A    between atoms: C13_23  and  C14_25
REMARK    9  A    between atoms: C14_25  and  N4_26
REMARK   10  A    between atoms: C14_25  and  C15_30
REMARK   11  A    between atoms: O7_42  and  C22_43
ROOT
HETATM    1  N2  UNL     1      18.534 -16.578  23.811  1.00  0.00    -0.364 N
HETATM    2  C8  UNL     1      18.850 -17.785  24.510  1.00  0.00     0.161 C
HETATM    3  C9  UNL     1      17.556 -18.469  24.887  1.00  0.00     0.204 C
HETATM    4  O3  UNL     1      16.849 -18.897  23.770  1.00  0.00    -0.371 OA
HETATM    5  C11 UNL     1      17.125 -18.196  22.608  1.00  0.00     0.245 C
HETATM    6  C12 UNL     1      17.423 -16.773  22.868  1.00  0.00     0.106 C
HETATM    7  N3  UNL     1      16.871 -15.748  22.406  1.00  0.00    -0.313 N
ATOM      8  H3  UNL     1      17.230 -14.844  22.713  1.00  0.00     0.170 HD
HETATM    9  C13 UNL     1      15.792 -15.744  21.493  1.00  0.00     0.258 C
HETATM   10  O4  UNL     1      14.812 -16.541  21.594  1.00  0.00    -0.270 OA
ENDROOT
BRANCH   1  11
HETATM   11  C7  UNL     1      19.101 -15.275  23.893  1.00  0.00     0.159 C
BRANCH  11  12
HETATM   12  C6  UNL     1      20.544 -15.051  23.711  1.00  0.00     0.176 C
BRANCH  12  13
HETATM   13  C3  UNL     1      21.400 -14.565  24.812  1.00  0.00     0.056 C
HETATM   14  C4  UNL     1      22.754 -14.030  24.275  1.00  0.00     0.041 C
HETATM   15  C5  UNL     1      20.837 -13.510  25.700  1.00  0.00     0.041 C
BRANCH  13  16
HETATM   16  N1  UNL     1      21.848 -15.726  25.619  1.00  0.00    -0.326 N
HETATM   17  C2  UNL     1      22.459 -16.851  25.035  1.00  0.00     0.360 C
HETATM   18  O2  UNL     1      22.657 -16.933  23.805  1.00  0.00    -0.239 OA
ATOM     19  H1  UNL     1      21.707 -15.709  26.629  1.00  0.00     0.165 HD
BRANCH  17  20
HETATM   20  O1  UNL     1      22.849 -17.895  25.844  1.00  0.00    -0.309 OA
HETATM   21  C1  UNL     1      22.046 -19.017  26.125  1.00  0.00     0.215 C
ENDBRANCH  17  20
ENDBRANCH  13  16
ENDBRANCH  12  13
BRANCH  12  22
HETATM   22  O7  UNL     1      20.868 -14.426  22.482  1.00  0.00    -0.319 OA
BRANCH  22  23
HETATM   23  C22 UNL     1      20.150 -14.529  21.314  1.00  0.00     0.398 C
HETATM   24  O8  UNL     1      20.155 -13.580  20.493  1.00  0.00    -0.276 OA
ENDBRANCH  22  23
ENDBRANCH  12  22
ENDBRANCH  11  12
ENDBRANCH   1  11
BRANCH   9  25
HETATM   25  C14 UNL     1      15.743 -14.788  20.342  1.00  0.00     0.311 C
BRANCH  25  26
HETATM   26  N4  UNL     1      17.036 -14.160  20.123  1.00  0.00    -0.062 N
ATOM     27  H43 UNL     1      17.781 -14.655  20.614  1.00  0.00     0.275 HD
ATOM     28  H42 UNL     1      17.362 -14.295  19.166  1.00  0.00     0.275 HD
ATOM     29  H41 UNL     1      17.014 -13.172  20.376  1.00  0.00     0.275 HD
ENDBRANCH  25  26
BRANCH  25  30
HETATM   30  C15 UNL     1      14.749 -13.709  20.538  1.00  0.00     0.023 A
HETATM   31  C16 UNL     1      14.233 -13.389  21.782  1.00  0.00     0.052 A
HETATM   32  C17 UNL     1      13.300 -12.361  21.934  1.00  0.00     0.112 A
HETATM   33  C18 UNL     1      12.867 -11.639  20.847  1.00  0.00     0.114 A
HETATM   34  O6  UNL     1      12.626 -11.830  23.036  1.00  0.00    -0.256 OA
HETATM   35  C19 UNL     1      13.370 -11.945  19.604  1.00  0.00     0.082 A
HETATM   36  O5  UNL     1      11.952 -10.695  21.283  1.00  0.00    -0.256 OA
HETATM   37  C20 UNL     1      14.298 -12.969  19.464  1.00  0.00     0.128 A
HETATM   38  F3  UNL     1      14.798 -13.277  18.252  1.00  0.00    -0.205 F
HETATM   39  C21 UNL     1      12.158 -10.534  22.689  1.00  0.00     0.498 C
HETATM   40  F4  UNL     1      13.118  -9.574  22.951  1.00  0.00    -0.147 F
HETATM   41  F5  UNL     1      10.957 -10.218  23.250  1.00  0.00    -0.147 F
ENDBRANCH  25  30
ENDBRANCH   9  25
BRANCH   3  42
HETATM   42  C10 UNL     1      17.778 -19.624  25.852  1.00  0.00     0.383 C
HETATM   43  F1  UNL     1      18.280 -19.116  27.025  1.00  0.00    -0.212 F
HETATM   44  F2  UNL     1      16.510 -20.123  26.163  1.00  0.00    -0.212 F
ENDBRANCH   3  42
TORSDOF 11
ENDMDL