MODEL 2
REMARK VINA RESULT: -8.743573252      2.064      2.388
REMARK  10 active torsions:
REMARK  status: ('A' for Active; 'I' for Inactive)
REMARK    1  A    between atoms: C2_3  and  C3_4
REMARK    2  A    between atoms: C3_4  and  N2_5
REMARK    3  A    between atoms: C4_8  and  O1_9
REMARK    4  A    between atoms: O1_9  and  C5_10
REMARK    5  A    between atoms: C5_10  and  C6_11
REMARK    6  A    between atoms: C12_21  and  O2_22
REMARK    7  A    between atoms: O2_22  and  C13_23
REMARK    8  A    between atoms: C21_34  and  C22_35
REMARK    9  A    between atoms: C22_35  and  O3_36
REMARK   10  A    between atoms: N5_38  and  C23_39
ROOT
HETATM    1  N1  UNL     1      16.680 -12.130  19.640  1.00  0.00    -0.197 NA
HETATM    2  C1  UNL     1      17.404 -12.762  20.285  1.00  0.00     0.061 C
HETATM    3  C2  UNL     1      18.322 -13.530  21.067  1.00  0.00     0.158 C
ENDROOT
BRANCH   3   4
HETATM    4  C3  UNL     1      17.797 -14.759  21.733  1.00  0.00     0.084 C
HETATM    5  C19 UNL     1      17.886 -14.452  23.251  1.00  0.00     0.075 C
HETATM    6  C20 UNL     1      19.295 -14.252  23.695  1.00  0.00     0.197 C
HETATM    7  F4  UNL     1      19.248 -14.262  25.096  1.00  0.00    -0.247 F
HETATM    8  C21 UNL     1      20.252 -15.295  23.172  1.00  0.00     0.137 C
HETATM    9  N5  UNL     1      19.531 -16.328  22.567  1.00  0.00    -0.393 N
HETATM   10  C26 UNL     1      18.579 -16.003  21.555  1.00  0.00     0.152 C
BRANCH   4  11
HETATM   11  N2  UNL     1      16.361 -14.914  21.510  1.00  0.00    -0.277 N
HETATM   12  N3  UNL     1      15.404 -14.100  21.926  1.00  0.00    -0.276 N
HETATM   13  C4  UNL     1      14.191 -14.482  21.588  1.00  0.00     0.170 A
ATOM     14  H3  UNL     1      15.589 -13.253  22.462  1.00  0.00     0.189 HD
HETATM   15  C10 UNL     1      14.335 -15.657  20.879  1.00  0.00     0.047 A
HETATM   16  C11 UNL     1      13.419 -16.492  20.289  1.00  0.00     0.055 A
HETATM   17  C18 UNL     1      15.698 -15.895  20.851  1.00  0.00     0.066 A
HETATM   18  C12 UNL     1      13.839 -17.648  19.616  1.00  0.00     0.070 A
HETATM   19  C16 UNL     1      15.191 -17.865  19.598  1.00  0.00     0.039 A
HETATM   20  C17 UNL     1      16.116 -17.012  20.201  1.00  0.00     0.035 A
BRANCH  13  21
HETATM   21  O1  UNL     1      12.948 -13.890  21.844  1.00  0.00    -0.334 OA
BRANCH  21  22
HETATM   22  C5  UNL     1      12.593 -12.778  21.029  1.00  0.00     0.186 C
BRANCH  22  23
HETATM   23  C6  UNL     1      11.758 -11.778  21.790  1.00  0.00     0.071 C
HETATM   24  C7  UNL     1      11.467 -12.266  23.196  1.00  0.00     0.241 C
HETATM   25  N4  UNL     1      11.093 -11.018  23.856  1.00  0.00    -0.072 N
HETATM   26  C8  UNL     1      12.025 -10.039  23.367  1.00  0.00     0.269 C
ATOM     27  H42 UNL     1      10.116 -10.758  23.722  1.00  0.00     0.277 HD
ATOM     28  H41 UNL     1      11.060 -11.084  24.873  1.00  0.00     0.277 HD
HETATM   29  C9  UNL     1      12.577 -10.538  22.062  1.00  0.00     0.203 C
HETATM   30  F1  UNL     1      13.916 -10.843  22.247  1.00  0.00    -0.247 F
ENDBRANCH  22  23
ENDBRANCH  21  22
ENDBRANCH  13  21
BRANCH  18  31
HETATM   31  O2  UNL     1      12.912 -18.480  19.026  1.00  0.00    -0.340 OA
BRANCH  31  32
HETATM   32  C13 UNL     1      12.229 -18.110  17.871  1.00  0.00     0.206 A
HETATM   33  C14 UNL     1      11.105 -19.097  17.478  1.00  0.00     0.120 A
HETATM   34  C15 UNL     1      10.793 -17.744  18.081  1.00  0.00     0.272 A
HETATM   35  F2  UNL     1      10.211 -16.810  17.227  1.00  0.00    -0.203 F
HETATM   36  F3  UNL     1      10.305 -17.705  19.365  1.00  0.00    -0.203 F
ENDBRANCH  31  32
ENDBRANCH  18  31
ENDBRANCH   4  11
BRANCH   8  37
HETATM   37  C22 UNL     1      21.234 -15.756  24.212  1.00  0.00     0.191 C
BRANCH  37  38
HETATM   38  O3  UNL     1      22.554 -15.507  23.946  1.00  0.00    -0.399 OA
ATOM     39  H3  UNL     1      22.998 -14.920  24.547  1.00  0.00     0.209 HD
ENDBRANCH  37  38
ENDBRANCH   8  37
BRANCH   9  40
HETATM   40  C23 UNL     1      20.081 -17.615  22.539  1.00  0.00     0.127 C
HETATM   41  C24 UNL     1      19.130 -18.693  22.061  1.00  0.00     0.194 C
HETATM   42  O4  UNL     1      20.302 -19.392  21.671  1.00  0.00    -0.387 OA
HETATM   43  C25 UNL     1      20.787 -18.106  21.325  1.00  0.00     0.194 C
ENDBRANCH   9  40
ENDBRANCH   3   4
TORSDOF 10
ENDMDL