MODEL 4
REMARK VINA RESULT: -9.427061658      4.183     14.338
REMARK  15 active torsions:
REMARK  status: ('A' for Active; 'I' for Inactive)
REMARK    1  A    between atoms: C2_2  and  C3_3
REMARK    2  A    between atoms: C2_2  and  C4_6
REMARK    3  A    between atoms: C3_3  and  O1_4
REMARK    4  A    between atoms: C4_6  and  C5_7
REMARK    5  A    between atoms: C5_7  and  C6_8
REMARK    6  A    between atoms: C6_8  and  C7_9
REMARK    7  A    between atoms: C7_9  and  N1_10
REMARK       I    between atoms: N1_10  and  C8_12
REMARK    8  A    between atoms: C8_12  and  C9_14
REMARK    9  A    between atoms: N2_17  and  C12_18
REMARK   10  A    between atoms: C13_19  and  C14_20
REMARK   11  A    between atoms: N3_23  and  C17_24
REMARK   12  A    between atoms: C17_24  and  C18_25
REMARK   13  A    between atoms: C18_25  and  N4_26
REMARK   14  A    between atoms: C21_29  and  C22_30
REMARK   15  A    between atoms: N5_31  and  N6_33
ROOT
HETATM    1  C12 UNL     1     -18.179  92.678  82.351  1.00  0.00     0.118 C
HETATM    2  C13 UNL     1     -19.469  92.616  82.532  1.00  0.00     0.030 C
ENDROOT
BRANCH   2   3
HETATM    3  C14 UNL     1     -20.391  92.300  81.456  1.00  0.00    -0.032 A
HETATM    4  C15 UNL     1     -21.527  91.532  81.743  1.00  0.00     0.028 A
HETATM    5  C16 UNL     1     -22.429  91.209  80.751  1.00  0.00     0.091 A
HETATM    6  N3  UNL     1     -22.279  91.597  79.489  1.00  0.00    -0.365 N
HETATM    7  C23 UNL     1     -21.199  92.332  79.186  1.00  0.00     0.091 A
HETATM    8  C24 UNL     1     -20.247  92.694  80.148  1.00  0.00     0.028 A
BRANCH   6   9
HETATM    9  C17 UNL     1     -23.206  91.269  78.451  1.00  0.00     0.149 C
BRANCH   9  10
HETATM   10  C18 UNL     1     -23.174  92.211  77.291  1.00  0.00     0.168 C
BRANCH  10  11
HETATM   11  N4  UNL     1     -23.260  91.388  76.070  1.00  0.00    -0.301 N
HETATM   12  C19 UNL     1     -23.428  90.062  76.061  1.00  0.00     0.112 A
HETATM   13  C20 UNL     1     -23.456  89.681  74.730  1.00  0.00     0.051 A
HETATM   14  C21 UNL     1     -23.302  90.794  73.933  1.00  0.00     0.066 A
HETATM   15  N8  UNL     1     -23.185  91.827  74.832  1.00  0.00    -0.298 N
ATOM     16  H8  UNL     1     -23.057  92.805  74.573  1.00  0.00     0.187 HD
BRANCH  14  17
HETATM   17  C22 UNL     1     -23.263  90.931  72.490  1.00  0.00     0.139 C
HETATM   18  N5  UNL     1     -22.228  91.126  71.816  1.00  0.00    -0.296 N
ATOM     19  H5  UNL     1     -22.393  91.196  70.812  1.00  0.00     0.187 HD
BRANCH  18  20
HETATM   20  N6  UNL     1     -20.916  91.263  72.175  1.00  0.00    -0.250 N
HETATM   21  N7  UNL     1     -20.370  90.360  72.903  1.00  0.00    -0.331 N
ATOM     22  H72 UNL     1     -20.922  89.556  73.203  1.00  0.00     0.178 HD
ATOM     23  H71 UNL     1     -19.391  90.462  73.172  1.00  0.00     0.178 HD
ATOM     24  H6  UNL     1     -20.379  92.073  71.867  1.00  0.00     0.207 HD
ENDBRANCH  18  20
ENDBRANCH  14  17
ENDBRANCH  10  11
ENDBRANCH   9  10
ENDBRANCH   6   9
ENDBRANCH   2   3
BRANCH   1  25
HETATM   25  N2  UNL     1     -17.326  92.990  83.431  1.00  0.00    -0.264 N
HETATM   26  C11 UNL     1     -16.387  92.203  83.767  1.00  0.00     0.119 A
HETATM   27  C10 UNL     1     -15.511  92.540  84.891  1.00  0.00     0.056 A
HETATM   28  C9  UNL     1     -15.651  93.640  85.584  1.00  0.00     0.118 A
HETATM   29  N10 UNL     1     -16.719  94.507  85.179  1.00  0.00    -0.281 N
HETATM   30  N9  UNL     1     -17.531  94.175  84.124  1.00  0.00    -0.236 N
ATOM     31  H10 UNL     1     -16.876  95.381  85.682  1.00  0.00     0.188 HD
ATOM     32  H9  UNL     1     -18.287  94.802  83.849  1.00  0.00     0.209 HD
BRANCH  28  33
HETATM   33  C8  UNL     1     -14.807  94.020  86.708  1.00  0.00     0.269 C
HETATM   34  N1  UNL     1     -13.776  93.202  87.162  1.00  0.00    -0.356 N
ATOM     35  H1  UNL     1     -13.644  92.316  86.674  1.00  0.00     0.162 HD
HETATM   36  O2  UNL     1     -15.040  95.124  87.263  1.00  0.00    -0.266 OA
BRANCH  34  37
HETATM   37  C7  UNL     1     -12.866  93.484  88.265  1.00  0.00     0.123 C
BRANCH  37  38
HETATM   38  C6  UNL     1     -11.889  94.542  87.823  1.00  0.00     0.020 C
BRANCH  38  39
HETATM   39  C5  UNL     1     -11.671  95.519  88.901  1.00  0.00     0.002 C
BRANCH  39  40
HETATM   40  C4  UNL     1     -12.183  95.292  90.258  1.00  0.00     0.006 C
BRANCH  40  41
HETATM   41  C2  UNL     1     -13.290  96.098  90.789  1.00  0.00     0.005 C
HETATM   42  C1  UNL     1     -13.085  96.473  92.258  1.00  0.00     0.012 C
BRANCH  41  43
HETATM   43  C3  UNL     1     -13.800  97.272  90.051  1.00  0.00     0.168 C
BRANCH  43  44
HETATM   44  O1  UNL     1     -14.925  97.001  89.277  1.00  0.00    -0.400 OA
ATOM     45  H1  UNL     1     -15.492  96.334  89.646  1.00  0.00     0.209 HD
ENDBRANCH  43  44
ENDBRANCH  41  43
ENDBRANCH  40  41
ENDBRANCH  39  40
ENDBRANCH  38  39
ENDBRANCH  37  38
ENDBRANCH  34  37
ENDBRANCH  28  33
ENDBRANCH   1  25
TORSDOF 15
ENDMDL