MODEL 4
REMARK VINA RESULT: -8.848601617      0.527      1.040
REMARK  16 active torsions:
REMARK  status: ('A' for Active; 'I' for Inactive)
REMARK    1  A    between atoms: C2_2  and  C3_3
REMARK    2  A    between atoms: N2_6  and  C4_7
REMARK    3  A    between atoms: C4_7  and  C5_8
REMARK    4  A    between atoms: C12_15  and  C13_16
REMARK    5  A    between atoms: C13_16  and  C14_17
REMARK    6  A    between atoms: C14_17  and  C15_18
REMARK    7  A    between atoms: C15_18  and  N3_19
REMARK    8  A    between atoms: C15_18  and  C22_32
REMARK    9  A    between atoms: N3_19  and  C16_21
REMARK   10  A    between atoms: C16_21  and  C17_22
REMARK       I    between atoms: C17_22  and  N4_24
REMARK   11  A    between atoms: N4_24  and  C18_25
REMARK   12  A    between atoms: C22_32  and  C23_36
REMARK   13  A    between atoms: C23_36  and  C24_37
REMARK   14  A    between atoms: C24_37  and  C25_38
REMARK   15  A    between atoms: C25_38  and  N8_39
REMARK   16  A    between atoms: N8_39  and  N9_41
ROOT
HETATM    1  C15 UNL     1     -17.100  93.518  81.996  1.00  0.00     0.122 C
ENDROOT
BRANCH   1   2
HETATM    2  C14 UNL     1     -15.931  94.158  81.276  1.00  0.00     0.035 C
BRANCH   2   3
HETATM    3  C13 UNL     1     -16.219  95.541  80.826  1.00  0.00     0.044 C
BRANCH   3   4
HETATM    4  C12 UNL     1     -15.390  96.095  79.754  1.00  0.00    -0.017 A
HETATM    5  C3  UNL     1     -15.719  96.474  78.485  1.00  0.00     0.033 A
HETATM    6  N1  UNL     1     -14.596  96.938  77.846  1.00  0.00    -0.302 N
HETATM    7  N2  UNL     1     -13.596  96.851  78.696  1.00  0.00    -0.298 N
ATOM      8  H1  UNL     1     -14.546  97.287  76.889  1.00  0.00     0.186 HD
HETATM    9  C11 UNL     1     -14.004  96.353  79.860  1.00  0.00     0.119 A
BRANCH   5  10
HETATM   10  C2  UNL     1     -17.018  96.439  77.808  1.00  0.00     0.055 C
HETATM   11  C1  UNL     1     -17.108  97.475  76.738  1.00  0.00     0.011 C
ENDBRANCH   5  10
BRANCH   7  12
HETATM   12  C4  UNL     1     -12.222  97.237  78.431  1.00  0.00     0.186 C
BRANCH  12  13
HETATM   13  C5  UNL     1     -11.320  96.066  78.247  1.00  0.00    -0.038 A
HETATM   14  C6  UNL     1     -10.585  95.583  79.310  1.00  0.00     0.009 A
HETATM   15  C7  UNL     1      -9.729  94.503  79.228  1.00  0.00     0.001 A
HETATM   16  C8  UNL     1      -9.616  93.883  78.001  1.00  0.00     0.000 A
HETATM   17  C9  UNL     1     -10.350  94.357  76.925  1.00  0.00     0.001 A
HETATM   18  C10 UNL     1     -11.196  95.436  77.033  1.00  0.00     0.009 A
ENDBRANCH  12  13
ENDBRANCH   7  12
ENDBRANCH   3   4
ENDBRANCH   2   3
ENDBRANCH   1   2
BRANCH   1  19
HETATM   19  N3  UNL     1     -16.901  93.037  83.282  1.00  0.00    -0.403 N
ATOM     20  H3  UNL     1     -16.691  92.047  83.405  1.00  0.00     0.154 HD
BRANCH  19  21
HETATM   21  C16 UNL     1     -16.976  93.854  84.418  1.00  0.00     0.234 C
BRANCH  21  22
HETATM   22  C17 UNL     1     -15.764  93.516  85.293  1.00  0.00     0.311 C
HETATM   23  O1  UNL     1     -15.146  92.435  84.966  1.00  0.00    -0.255 OA
HETATM   24  N4  UNL     1     -15.366  94.247  86.298  1.00  0.00    -0.334 NA
BRANCH  24  25
HETATM   25  C18 UNL     1     -15.058  94.917  87.224  1.00  0.00     0.256 C
HETATM   26  N5  UNL     1     -15.801  95.968  87.874  1.00  0.00    -0.349 N
HETATM   27  C19 UNL     1     -14.902  96.833  88.589  1.00  0.00     0.143 C
ATOM     28  H5  UNL     1     -16.815  96.082  87.832  1.00  0.00     0.163 HD
HETATM   29  C20 UNL     1     -13.551  96.143  88.573  1.00  0.00     0.146 C
HETATM   30  N6  UNL     1     -13.816  94.856  87.976  1.00  0.00    -0.344 N
HETATM   31  C21 UNL     1     -12.954  93.702  88.122  1.00  0.00     0.154 C
ENDBRANCH  24  25
ENDBRANCH  21  22
ENDBRANCH  19  21
ENDBRANCH   1  19
BRANCH   1  32
HETATM   32  C22 UNL     1     -17.725  92.539  81.080  1.00  0.00     0.002 C
HETATM   33  N7  UNL     1     -17.397  91.284  81.213  1.00  0.00    -0.404 N
ATOM     34  H72 UNL     1     -16.726  91.082  81.953  1.00  0.00     0.155 HD
ATOM     35  H71 UNL     1     -17.827  90.609  80.581  1.00  0.00     0.155 HD
BRANCH  32  36
HETATM   36  C23 UNL     1     -18.688  92.829  80.015  1.00  0.00     0.056 C
BRANCH  36  37
HETATM   37  C24 UNL     1     -20.098  92.376  80.365  1.00  0.00     0.027 C
BRANCH  37  38
HETATM   38  C25 UNL     1     -20.289  92.683  81.840  1.00  0.00     0.141 C
BRANCH  38  39
HETATM   39  N8  UNL     1     -20.789  91.573  82.588  1.00  0.00    -0.323 N
ATOM     40  H8  UNL     1     -20.698  91.560  83.604  1.00  0.00     0.181 HD
BRANCH  39  41
HETATM   41  N9  UNL     1     -21.395  90.519  81.937  1.00  0.00    -0.254 N
HETATM   42  N10 UNL     1     -22.537  90.124  82.352  1.00  0.00    -0.331 N
ATOM     43 2H10 UNL     1     -22.977  90.589  83.146  1.00  0.00     0.178 HD
ATOM     44 1H10 UNL     1     -22.985  89.345  81.870  1.00  0.00     0.178 HD
ATOM     45  H9  UNL     1     -20.942  90.065  81.143  1.00  0.00     0.207 HD
ENDBRANCH  39  41
ENDBRANCH  38  39
ENDBRANCH  37  38
ENDBRANCH  36  37
ENDBRANCH  32  36
ENDBRANCH   1  32
TORSDOF 16
ENDMDL