MODEL 4
REMARK VINA RESULT: -7.426109614      1.134      2.586
REMARK  17 active torsions:
REMARK  status: ('A' for Active; 'I' for Inactive)
REMARK    1  A    between atoms: C2_2  and  C3_3
REMARK    2  A    between atoms: C3_3  and  C4_4
REMARK    3  A    between atoms: C4_4  and  C5_5
REMARK    4  A    between atoms: C5_5  and  C6_6
REMARK    5  A    between atoms: C5_5  and  N3_17
REMARK    6  A    between atoms: C6_6  and  C7_7
REMARK       I    between atoms: C7_7  and  N1_9
REMARK    7  A    between atoms: N1_9  and  C8_11
REMARK    8  A    between atoms: C8_11  and  C9_12
REMARK    9  A    between atoms: C9_12  and  N2_13
REMARK   10  A    between atoms: N3_17  and  C13_19
REMARK   11  A    between atoms: C13_19  and  C14_23
REMARK   12  A    between atoms: C14_23  and  N5_24
REMARK       I    between atoms: N5_24  and  C15_26
REMARK   13  A    between atoms: C15_26  and  C16_28
REMARK   14  A    between atoms: C16_28  and  N6_29
REMARK   15  A    between atoms: N6_29  and  C19_32
REMARK   16  A    between atoms: C19_32  and  C20_33
REMARK   17  A    between atoms: C20_33  and  N7_35
ROOT
HETATM    1  C13 UNL     1     -19.450  93.239  82.305  1.00  0.00     0.089 C
HETATM    2  N4  UNL     1     -20.074  94.320  82.159  1.00  0.00    -0.388 N
ATOM      3  H41 UNL     1     -20.903  94.296  81.566  1.00  0.00     0.157 HD
ATOM      4  H42 UNL     1     -19.754  95.188  82.590  1.00  0.00     0.157 HD
ENDROOT
BRANCH   1   5
HETATM    5  N3  UNL     1     -18.293  93.273  83.131  1.00  0.00    -0.374 N
ATOM      6  H3  UNL     1     -18.474  93.134  84.125  1.00  0.00     0.161 HD
BRANCH   5   7
HETATM    7  C5  UNL     1     -16.927  93.470  82.795  1.00  0.00     0.091 C
BRANCH   7   8
HETATM    8  C4  UNL     1     -16.465  92.987  81.475  1.00  0.00     0.026 C
BRANCH   8   9
HETATM    9  C3  UNL     1     -16.415  93.967  80.362  1.00  0.00     0.002 C
BRANCH   9  10
HETATM   10  C2  UNL     1     -15.931  95.348  80.753  1.00  0.00    -0.004 C
HETATM   11  C1  UNL     1     -14.559  95.624  80.158  1.00  0.00     0.005 C
ENDBRANCH   9  10
ENDBRANCH   8   9
ENDBRANCH   7   8
BRANCH   7  12
HETATM   12  C6  UNL     1     -16.135  92.834  83.941  1.00  0.00     0.127 C
BRANCH  12  13
HETATM   13  C7  UNL     1     -15.952  93.690  85.106  1.00  0.00     0.219 C
HETATM   14  O1  UNL     1     -16.646  94.705  85.371  1.00  0.00    -0.274 OA
HETATM   15  N1  UNL     1     -14.906  93.386  86.052  1.00  0.00    -0.359 N
ATOM     16  H1  UNL     1     -14.302  92.578  85.903  1.00  0.00     0.162 HD
BRANCH  15  17
HETATM   17  C8  UNL     1     -14.718  94.220  87.200  1.00  0.00     0.150 C
BRANCH  17  18
HETATM   18  C9  UNL     1     -13.466  93.753  87.922  1.00  0.00     0.255 C
BRANCH  18  19
HETATM   19  N2  UNL     1     -12.760  94.930  88.382  1.00  0.00    -0.077 N
HETATM   20  C10 UNL     1     -12.654  94.835  89.816  1.00  0.00     0.271 C
HETATM   21  C11 UNL     1     -11.413  94.864  87.839  1.00  0.00     0.271 C
HETATM   22  C12 UNL     1     -13.462  96.103  87.947  1.00  0.00     0.271 C
ENDBRANCH  18  19
ENDBRANCH  17  18
ENDBRANCH  15  17
ENDBRANCH  12  13
ENDBRANCH   7  12
ENDBRANCH   5   7
ENDBRANCH   1   5
BRANCH   1  23
HETATM   23  C14 UNL     1     -19.912  91.985  81.681  1.00  0.00     0.198 C
BRANCH  23  24
HETATM   24  N5  UNL     1     -20.986  91.400  82.429  1.00  0.00    -0.353 N
HETATM   25  C15 UNL     1     -22.092  90.854  81.676  1.00  0.00     0.244 C
HETATM   26  O2  UNL     1     -22.074  90.910  80.427  1.00  0.00    -0.272 OA
ATOM     27  H5  UNL     1     -20.971  91.369  83.448  1.00  0.00     0.162 HD
BRANCH  25  28
HETATM   28  C16 UNL     1     -23.209  90.244  82.425  1.00  0.00     0.339 C
BRANCH  28  29
HETATM   29  N6  UNL     1     -24.436  91.002  82.288  1.00  0.00    -0.060 N
HETATM   30  C17 UNL     1     -25.248  90.531  81.202  1.00  0.00     0.273 C
HETATM   31  C18 UNL     1     -25.205  90.750  83.516  1.00  0.00     0.273 C
BRANCH  29  32
HETATM   32  C19 UNL     1     -24.158  92.402  82.230  1.00  0.00     0.306 C
BRANCH  32  33
HETATM   33  C20 UNL     1     -24.778  93.155  81.151  1.00  0.00     0.105 C
HETATM   34  S1  UNL     1     -26.168  93.997  81.264  1.00  0.00    -0.064 SA
BRANCH  33  35
HETATM   35  N7  UNL     1     -24.136  93.178  79.876  1.00  0.00    -0.326 N
HETATM   36  C21 UNL     1     -23.217  94.033  79.667  1.00  0.00     0.201 C
HETATM   37  N8  UNL     1     -22.569  94.076  78.424  1.00  0.00    -0.066 NA
HETATM   38  N9  UNL     1     -22.849  94.940  80.686  1.00  0.00    -0.066 NA
ATOM     39  H7  UNL     1     -24.409  92.519  79.145  1.00  0.00     0.168 HD
ENDBRANCH  33  35
ENDBRANCH  32  33
ENDBRANCH  29  32
ENDBRANCH  28  29
ENDBRANCH  25  28
ENDBRANCH  23  24
ENDBRANCH   1  23
TORSDOF 17
ENDMDL