MODEL 1
REMARK VINA RESULT: -8.086910181      0.000      0.000
REMARK  17 active torsions:
REMARK  status: ('A' for Active; 'I' for Inactive)
REMARK    1  A    between atoms: C2_2  and  N1_3
REMARK       I    between atoms: N1_3  and  C3_5
REMARK       I    between atoms: C3_5  and  N2_7
REMARK    2  A    between atoms: N2_7  and  C4_9
REMARK    3  A    between atoms: C4_9  and  C5_10
REMARK    4  A    between atoms: C5_10  and  C6_11
REMARK    5  A    between atoms: C6_11  and  N3_12
REMARK    6  A    between atoms: N4_15  and  C9_16
REMARK    7  A    between atoms: C9_16  and  C10_17
REMARK    8  A    between atoms: C10_17  and  N5_18
REMARK    9  A    between atoms: C10_17  and  N6_21
REMARK   10  A    between atoms: N6_21  and  C11_23
REMARK   11  A    between atoms: C11_23  and  C12_24
REMARK   12  A    between atoms: C12_24  and  C13_25
REMARK   13  A    between atoms: C13_25  and  N7_26
REMARK   14  A    between atoms: N7_26  and  C16_29
REMARK   15  A    between atoms: C16_29  and  C17_30
REMARK   16  A    between atoms: C21_37  and  C22_38
REMARK   17  A    between atoms: C22_38  and  N9_39
ROOT
HETATM    1  N3  UNL     1     -19.574  93.440  81.046  1.00  0.00    -0.001 N
HETATM    2  C7  UNL     1     -19.229  93.550  82.472  1.00  0.00     0.280 C
HETATM    3  C8  UNL     1     -17.995  92.922  82.927  1.00  0.00     0.278 C
HETATM    4  N4  UNL     1     -16.873  92.798  82.017  1.00  0.00    -0.019 N
HETATM    5  C19 UNL     1     -16.319  94.097  81.913  1.00  0.00     0.225 C
HETATM    6  C20 UNL     1     -16.834  95.173  81.270  1.00  0.00     0.115 C
HETATM    7  N8  UNL     1     -18.046  95.344  80.519  1.00  0.00    -0.346 N
ATOM      8  H8  UNL     1     -18.033  96.185  79.942  1.00  0.00     0.166 HD
HETATM    9  C21 UNL     1     -19.161  94.673  80.402  1.00  0.00     0.215 C
HETATM   10  C23 UNL     1     -17.330  92.438  80.680  1.00  0.00     0.278 C
HETATM   11  C24 UNL     1     -18.828  92.320  80.611  1.00  0.00     0.280 C
ENDROOT
BRANCH   4  12
HETATM   12  C9  UNL     1     -15.990  91.785  82.498  1.00  0.00     0.255 C
BRANCH  12  13
HETATM   13  C10 UNL     1     -15.820  91.589  83.916  1.00  0.00     0.118 C
BRANCH  13  14
HETATM   14  N5  UNL     1     -16.412  90.608  84.511  1.00  0.00    -0.385 N
ATOM     15  H52 UNL     1     -17.065  90.043  83.968  1.00  0.00     0.157 HD
ATOM     16  H51 UNL     1     -16.223  90.416  85.495  1.00  0.00     0.157 HD
ENDBRANCH  13  14
BRANCH  13  17
HETATM   17  N6  UNL     1     -15.018  92.442  84.690  1.00  0.00    -0.376 N
ATOM     18  H6  UNL     1     -14.007  92.351  84.598  1.00  0.00     0.161 HD
BRANCH  17  19
HETATM   19  C11 UNL     1     -15.521  93.441  85.610  1.00  0.00     0.123 C
BRANCH  19  20
HETATM   20  C12 UNL     1     -14.667  93.561  86.835  1.00  0.00     0.047 C
BRANCH  20  21
HETATM   21  C13 UNL     1     -14.533  94.915  87.426  1.00  0.00     0.238 C
BRANCH  21  22
HETATM   22  N7  UNL     1     -13.436  95.163  88.290  1.00  0.00    -0.068 N
HETATM   23  C14 UNL     1     -12.783  93.925  88.724  1.00  0.00     0.272 C
HETATM   24  C15 UNL     1     -12.415  96.041  87.843  1.00  0.00     0.272 C
BRANCH  22  25
HETATM   25  C16 UNL     1     -14.012  95.709  89.536  1.00  0.00     0.314 C
BRANCH  25  26
HETATM   26  C17 UNL     1     -13.244  96.806  90.113  1.00  0.00     0.148 C
HETATM   27  C18 UNL     1     -12.236  96.546  91.203  1.00  0.00     0.092 C
HETATM   28  O2  UNL     1     -13.360  97.954  89.772  1.00  0.00    -0.297 OA
ENDBRANCH  25  26
ENDBRANCH  22  25
ENDBRANCH  21  22
ENDBRANCH  20  21
ENDBRANCH  19  20
ENDBRANCH  17  19
ENDBRANCH  13  17
ENDBRANCH  12  13
ENDBRANCH   4  12
BRANCH   1  29
HETATM   29  C6  UNL     1     -20.961  93.224  80.941  1.00  0.00     0.208 C
BRANCH  29  30
HETATM   30  C5  UNL     1     -21.680  91.960  81.057  1.00  0.00     0.018 C
BRANCH  30  31
HETATM   31  C4  UNL     1     -21.737  91.196  82.334  1.00  0.00     0.153 C
BRANCH  31  32
HETATM   32  N2  UNL     1     -22.850  90.245  82.348  1.00  0.00    -0.340 N
HETATM   33  C3  UNL     1     -24.098  90.614  82.862  1.00  0.00     0.316 C
HETATM   34  N1  UNL     1     -25.157  89.661  82.873  1.00  0.00    -0.343 N
HETATM   35  O1  UNL     1     -24.351  91.772  83.327  1.00  0.00    -0.247 OA
ATOM     36  H1  UNL     1     -24.989  88.723  82.510  1.00  0.00     0.164 HD
ATOM     37  H2  UNL     1     -22.714  89.304  81.979  1.00  0.00     0.164 HD
BRANCH  34  38
HETATM   38  C2  UNL     1     -26.476  89.996  83.393  1.00  0.00     0.120 C
HETATM   39  C1  UNL     1     -27.579  89.650  82.424  1.00  0.00     0.026 C
ENDBRANCH  34  38
ENDBRANCH  31  32
ENDBRANCH  30  31
ENDBRANCH  29  30
ENDBRANCH   1  29
BRANCH   9  40
HETATM   40  C22 UNL     1     -20.078  95.320  79.454  1.00  0.00     0.314 C
BRANCH  40  41
HETATM   41  N9  UNL     1     -19.562  95.579  78.149  1.00  0.00    -0.073 N
ATOM     42  H93 UNL     1     -19.194  94.717  77.747  1.00  0.00     0.274 HD
ATOM     43  H92 UNL     1     -20.332  95.770  77.507  1.00  0.00     0.274 HD
ATOM     44  H91 UNL     1     -18.863  96.319  78.076  1.00  0.00     0.274 HD
ENDBRANCH  40  41
ENDBRANCH   9  40
TORSDOF 17
ENDMDL