MODEL 2
REMARK VINA RESULT: -9.140883864      1.945      2.815
REMARK  17 active torsions:
REMARK  status: ('A' for Active; 'I' for Inactive)
REMARK    1  A    between atoms: C2_2  and  C3_3
REMARK    2  A    between atoms: C5_5  and  C6_6
REMARK    3  A    between atoms: C7_7  and  O1_8
REMARK    4  A    between atoms: C7_7  and  N1_10
REMARK    5  A    between atoms: N1_10  and  C9_12
REMARK    6  A    between atoms: C9_12  and  C10_13
REMARK    7  A    between atoms: C11_18  and  C12_19
REMARK    8  A    between atoms: C12_19  and  N4_20
REMARK    9  A    between atoms: N4_20  and  C13_22
REMARK   10  A    between atoms: C13_22  and  C14_23
REMARK   11  A    between atoms: C14_23  and  C15_24
REMARK   12  A    between atoms: C15_24  and  C16_25
REMARK   13  A    between atoms: C16_25  and  C17_26
REMARK   14  A    between atoms: C17_26  and  C18_27
REMARK   15  A    between atoms: C20_31  and  C21_32
REMARK   16  A    between atoms: C21_32  and  N6_33
REMARK   17  A    between atoms: C24_41  and  O4_42
ROOT
HETATM    1  C13 UNL     1     -16.533  94.228  80.191  1.00  0.00     0.119 C
ENDROOT
BRANCH   1   2
HETATM    2  N4  UNL     1     -17.317  93.062  79.846  1.00  0.00    -0.397 N
ATOM      3  H4  UNL     1     -16.875  92.146  79.923  1.00  0.00     0.158 HD
BRANCH   2   4
HETATM    4  C12 UNL     1     -18.645  93.116  79.412  1.00  0.00     0.113 C
BRANCH   4   5
HETATM    5  C11 UNL     1     -19.690  92.982  80.202  1.00  0.00     0.058 A
HETATM    6  C3  UNL     1     -20.491  93.950  80.720  1.00  0.00    -0.007 A
HETATM    7  C4  UNL     1     -21.466  93.257  81.477  1.00  0.00     0.043 A
HETATM    8  C5  UNL     1     -21.258  91.911  81.419  1.00  0.00     0.037 A
HETATM    9  N3  UNL     1     -20.162  91.777  80.630  1.00  0.00    -0.354 N
ATOM     10  H3  UNL     1     -19.741  90.881  80.387  1.00  0.00     0.166 HD
BRANCH   6  11
HETATM   11  C2  UNL     1     -20.453  95.398  80.579  1.00  0.00     0.003 C
HETATM   12  C1  UNL     1     -21.423  96.160  81.115  1.00  0.00     0.012 C
ENDBRANCH   6  11
BRANCH   8  13
HETATM   13  C6  UNL     1     -21.914  90.914  81.963  1.00  0.00     0.085 C
HETATM   14  C7  UNL     1     -23.213  90.401  82.019  1.00  0.00     0.140 C
BRANCH  14  15
HETATM   15  O1  UNL     1     -23.231  89.268  82.811  1.00  0.00    -0.346 OA
ATOM     16  H1  UNL     1     -22.550  88.669  82.528  1.00  0.00     0.219 HD
ENDBRANCH  14  15
BRANCH  14  17
HETATM   17  N1  UNL     1     -24.489  90.652  81.545  1.00  0.00    -0.358 N
HETATM   18  C8  UNL     1     -25.224  89.970  80.542  1.00  0.00     0.152 C
BRANCH  17  19
HETATM   19  C9  UNL     1     -25.247  91.803  82.145  1.00  0.00     0.223 C
BRANCH  19  20
HETATM   20  C10 UNL     1     -26.199  91.244  83.142  1.00  0.00     0.248 C
HETATM   21  N2  UNL     1     -27.599  91.255  82.953  1.00  0.00    -0.061 NA
HETATM   22  O2  UNL     1     -25.784  90.730  84.214  1.00  0.00    -0.275 OA
ENDBRANCH  19  20
ENDBRANCH  17  19
ENDBRANCH  14  17
ENDBRANCH   8  13
ENDBRANCH   4   5
ENDBRANCH   2   4
ENDBRANCH   1   2
BRANCH   1  23
HETATM   23  C14 UNL     1     -16.189  94.223  81.648  1.00  0.00     0.020 C
BRANCH  23  24
HETATM   24  C15 UNL     1     -16.477  92.856  82.215  1.00  0.00     0.002 C
BRANCH  24  25
HETATM   25  C16 UNL     1     -15.298  92.342  83.020  1.00  0.00     0.005 C
BRANCH  25  26
HETATM   26  C17 UNL     1     -15.836  91.872  84.356  1.00  0.00     0.043 C
BRANCH  26  27
HETATM   27  C18 UNL     1     -15.322  92.734  85.452  1.00  0.00    -0.008 A
HETATM   28  C19 UNL     1     -14.282  92.457  86.338  1.00  0.00     0.098 A
HETATM   29  N5  UNL     1     -14.140  93.500  87.171  1.00  0.00    -0.365 N
HETATM   30  C20 UNL     1     -15.048  94.459  86.870  1.00  0.00     0.063 A
ATOM     31  H5  UNL     1     -13.450  93.562  87.920  1.00  0.00     0.165 HD
HETATM   32  C24 UNL     1     -15.779  93.980  85.804  1.00  0.00     0.097 A
BRANCH  30  33
HETATM   33  C21 UNL     1     -15.209  95.769  87.567  1.00  0.00     0.210 C
BRANCH  33  34
HETATM   34  N6  UNL     1     -14.262  95.916  88.654  1.00  0.00    -0.278 N
HETATM   35  C22 UNL     1     -12.945  96.211  88.449  1.00  0.00     0.205 A
HETATM   36  N7  UNL     1     -12.318  96.284  89.630  1.00  0.00    -0.302 N
HETATM   37  C23 UNL     1     -13.250  96.033  90.557  1.00  0.00     0.340 A
ATOM     38  H7  UNL     1     -11.332  96.488  89.790  1.00  0.00     0.171 HD
HETATM   39  O3  UNL     1     -13.012  96.020  91.793  1.00  0.00    -0.245 OA
HETATM   40  N8  UNL     1     -14.448  95.807  89.941  1.00  0.00    -0.248 N
ATOM     41  H8  UNL     1     -15.331  95.591  90.404  1.00  0.00     0.192 HD
ENDBRANCH  33  34
ENDBRANCH  30  33
BRANCH  32  42
HETATM   42  O4  UNL     1     -16.814  94.687  85.206  1.00  0.00    -0.358 OA
ATOM     43  H4  UNL     1     -16.957  95.626  85.241  1.00  0.00     0.217 HD
ENDBRANCH  32  42
ENDBRANCH  26  27
ENDBRANCH  25  26
ENDBRANCH  24  25
ENDBRANCH  23  24
ENDBRANCH   1  23
TORSDOF 17
ENDMDL