MODEL 4
REMARK VINA RESULT: -8.426982719      2.415     12.017
REMARK  14 active torsions:
REMARK  status: ('A' for Active; 'I' for Inactive)
REMARK    1  A    between atoms: C3_5  and  C4_6
REMARK    2  A    between atoms: C4_6  and  C5_7
REMARK    3  A    between atoms: C5_7  and  N2_8
REMARK    4  A    between atoms: C5_7  and  C12_24
REMARK       I    between atoms: N2_8  and  C6_10
REMARK    5  A    between atoms: C6_10  and  C7_12
REMARK    6  A    between atoms: C9_14  and  N3_15
REMARK    7  A    between atoms: N8_28  and  C14_29
REMARK    8  A    between atoms: C14_29  and  C15_30
REMARK    9  A    between atoms: C15_30  and  C16_31
REMARK   10  A    between atoms: C16_31  and  C17_32
REMARK   11  A    between atoms: C17_32  and  C18_33
REMARK   12  A    between atoms: C18_33  and  C19_34
REMARK   13  A    between atoms: C19_34  and  C20_35
REMARK   14  A    between atoms: C20_35  and  N9_36
ROOT
HETATM    1  C4  UNL     1     -20.651  92.811  80.301  1.00  0.00     0.093 C
ENDROOT
BRANCH   1   2
HETATM    2  C3  UNL     1     -19.232  93.163  80.417  1.00  0.00     0.028 A
HETATM    3  N1  UNL     1     -18.392  93.847  79.623  1.00  0.00    -0.348 N
HETATM    4  C2  UNL     1     -17.156  93.906  80.196  1.00  0.00     0.079 A
ATOM      5  H1  UNL     1     -18.642  94.262  78.726  1.00  0.00     0.167 HD
HETATM    6  C1  UNL     1     -15.971  94.582  79.609  1.00  0.00     0.089 C
HETATM    7  N8  UNL     1     -17.196  93.253  81.368  1.00  0.00    -0.345 N
HETATM    8  C13 UNL     1     -18.449  92.795  81.520  1.00  0.00     0.117 A
BRANCH   7   9
HETATM    9  C14 UNL     1     -16.067  93.090  82.299  1.00  0.00     0.130 C
BRANCH   9  10
HETATM   10  C15 UNL     1     -16.058  91.724  82.852  1.00  0.00     0.024 C
BRANCH  10  11
HETATM   11  C16 UNL     1     -15.932  91.566  84.312  1.00  0.00     0.028 C
BRANCH  11  12
HETATM   12  C17 UNL     1     -15.300  92.611  85.134  1.00  0.00    -0.030 C
BRANCH  12  13
HETATM   13  C18 UNL     1     -14.201  92.337  86.045  1.00  0.00    -0.026 C
BRANCH  13  14
HETATM   14  C19 UNL     1     -14.023  92.961  87.341  1.00  0.00     0.072 C
BRANCH  14  15
HETATM   15  C20 UNL     1     -14.372  94.376  87.570  1.00  0.00     0.072 C
BRANCH  15  16
HETATM   16  N9  UNL     1     -13.801  95.056  88.664  1.00  0.00    -0.347 N
HETATM   17  C21 UNL     1     -14.297  96.136  89.249  1.00  0.00     0.095 A
HETATM   18  C22 UNL     1     -13.712  96.792  90.325  1.00  0.00     0.018 A
HETATM   19  C23 UNL     1     -12.526  96.292  90.833  1.00  0.00     0.003 A
HETATM   20  C24 UNL     1     -12.018  95.173  90.225  1.00  0.00     0.018 A
HETATM   21  C25 UNL     1     -12.631  94.568  89.171  1.00  0.00     0.095 A
ENDBRANCH  15  16
ENDBRANCH  14  15
ENDBRANCH  13  14
ENDBRANCH  12  13
ENDBRANCH  11  12
ENDBRANCH  10  11
ENDBRANCH   9  10
ENDBRANCH   7   9
ENDBRANCH   1   2
BRANCH   1  22
HETATM   22  C5  UNL     1     -21.603  93.605  81.123  1.00  0.00     0.179 C
BRANCH  22  23
HETATM   23  N2  UNL     1     -22.918  92.948  80.989  1.00  0.00    -0.346 N
HETATM   24  C6  UNL     1     -23.411  92.108  82.015  1.00  0.00     0.249 C
HETATM   25  O1  UNL     1     -22.691  91.942  83.036  1.00  0.00    -0.271 OA
ATOM     26  H2  UNL     1     -23.476  93.102  80.150  1.00  0.00     0.163 HD
BRANCH  24  27
HETATM   27  C7  UNL     1     -24.726  91.475  81.842  1.00  0.00     0.279 C
HETATM   28  C8  UNL     1     -24.859  90.357  82.867  1.00  0.00     0.069 C
HETATM   29  C9  UNL     1     -26.354  90.066  82.721  1.00  0.00     0.112 C
HETATM   30  C11 UNL     1     -26.930  91.464  82.572  1.00  0.00     0.258 C
HETATM   31  N6  UNL     1     -25.837  92.319  82.153  1.00  0.00    -0.060 N
ATOM     32  H62 UNL     1     -25.609  93.038  82.839  1.00  0.00     0.278 HD
ATOM     33  H61 UNL     1     -26.090  92.942  81.386  1.00  0.00     0.278 HD
BRANCH  29  34
HETATM   34  N3  UNL     1     -26.499  89.296  81.520  1.00  0.00    -0.361 N
HETATM   35  C10 UNL     1     -27.477  88.536  81.215  1.00  0.00     0.197 C
HETATM   36  N4  UNL     1     -28.618  88.345  82.076  1.00  0.00    -0.067 NA
HETATM   37  N5  UNL     1     -27.460  87.845  79.982  1.00  0.00    -0.067 NA
ATOM     38  H3  UNL     1     -25.742  89.364  80.840  1.00  0.00     0.162 HD
ENDBRANCH  29  34
ENDBRANCH  24  27
ENDBRANCH  22  23
BRANCH  22  39
HETATM   39  C12 UNL     1     -21.695  95.013  80.725  1.00  0.00     0.254 C
HETATM   40  N7  UNL     1     -20.652  95.965  80.795  1.00  0.00    -0.060 NA
HETATM   41  O2  UNL     1     -22.804  95.475  80.266  1.00  0.00    -0.275 OA
ENDBRANCH  22  39
ENDBRANCH   1  22
TORSDOF 14
ENDMDL