MODEL 4
REMARK VINA RESULT: -7.534430955      0.912      1.247
REMARK  16 active torsions:
REMARK  status: ('A' for Active; 'I' for Inactive)
REMARK    1  A    between atoms: C2_2  and  C3_3
REMARK    2  A    between atoms: C3_3  and  C4_4
REMARK    3  A    between atoms: C4_4  and  C5_5
REMARK    4  A    between atoms: C5_5  and  N1_6
REMARK    5  A    between atoms: N1_6  and  C6_7
REMARK    6  A    between atoms: C6_7  and  O1_8
REMARK    7  A    between atoms: C6_7  and  C7_10
REMARK    8  A    between atoms: C7_10  and  N2_11
REMARK    9  A    between atoms: N3_14  and  C10_15
REMARK   10  A    between atoms: C10_15  and  C11_16
REMARK   11  A    between atoms: C11_16  and  N4_17
REMARK       I    between atoms: N4_17  and  C12_19
REMARK       I    between atoms: C12_19  and  N6_23
REMARK   12  A    between atoms: C16_28  and  C17_29
REMARK   13  A    between atoms: C17_29  and  N7_30
REMARK   14  A    between atoms: N7_30  and  C18_31
REMARK       I    between atoms: N7_30  and  C23_37
REMARK   15  A    between atoms: C18_31  and  C19_32
REMARK   16  A    between atoms: C19_32  and  N8_33
ROOT
HETATM    1  N2  UNL     1     -16.859  93.096  82.971  1.00  0.00    -0.037 N
HETATM    2  C8  UNL     1     -16.558  91.869  82.154  1.00  0.00     0.271 C
HETATM    3  C9  UNL     1     -16.944  92.206  80.748  1.00  0.00     0.266 C
HETATM    4  N3  UNL     1     -17.885  93.283  80.691  1.00  0.00    -0.055 N
HETATM    5  C14 UNL     1     -17.169  94.504  81.087  1.00  0.00     0.266 C
HETATM    6  C15 UNL     1     -16.266  94.202  82.271  1.00  0.00     0.271 C
HETATM    7  C16 UNL     1     -18.960  93.149  81.647  1.00  0.00     0.235 C
HETATM    8  C24 UNL     1     -18.287  93.132  83.028  1.00  0.00     0.278 C
ENDROOT
BRANCH   7   9
HETATM    9  C17 UNL     1     -19.820  91.971  81.439  1.00  0.00     0.160 C
BRANCH   9  10
HETATM   10  N7  UNL     1     -21.245  92.230  81.272  1.00  0.00    -0.352 N
HETATM   11  C23 UNL     1     -21.835  92.704  80.069  1.00  0.00     0.184 C
HETATM   12  N9  UNL     1     -22.605  93.757  80.177  1.00  0.00    -0.374 N
HETATM   13  N10 UNL     1     -21.670  92.149  78.783  1.00  0.00    -0.064 NA
ATOM     14  H92 UNL     1     -22.724  94.158  81.107  1.00  0.00     0.158 HD
ATOM     15  H91 UNL     1     -23.029  94.097  79.314  1.00  0.00     0.158 HD
BRANCH  10  16
HETATM   16  C18 UNL     1     -22.160  92.017  82.391  1.00  0.00     0.153 C
BRANCH  16  17
HETATM   17  C19 UNL     1     -23.010  90.831  82.351  1.00  0.00     0.255 C
BRANCH  17  18
HETATM   18  N8  UNL     1     -24.416  90.929  82.279  1.00  0.00    -0.077 N
HETATM   19  C20 UNL     1     -25.045  90.641  81.036  1.00  0.00     0.271 C
HETATM   20  C21 UNL     1     -25.113  90.144  83.316  1.00  0.00     0.271 C
HETATM   21  C22 UNL     1     -24.824  92.323  82.629  1.00  0.00     0.271 C
ENDBRANCH  17  18
ENDBRANCH  16  17
ENDBRANCH  10  16
ENDBRANCH   9  10
ENDBRANCH   7   9
BRANCH   4  22
HETATM   22  C10 UNL     1     -18.346  93.509  79.355  1.00  0.00     0.258 C
BRANCH  22  23
HETATM   23  C11 UNL     1     -18.849  94.896  79.079  1.00  0.00     0.166 C
BRANCH  23  24
HETATM   24  N4  UNL     1     -18.296  95.289  77.789  1.00  0.00    -0.225 N
HETATM   25  C12 UNL     1     -18.016  96.647  77.455  1.00  0.00     0.667 C
HETATM   26  N5  UNL     1     -16.797  97.092  77.571  1.00  0.00    -0.235 N
HETATM   27  N6  UNL     1     -19.004  97.548  76.991  1.00  0.00    -0.231 N
ATOM     28  H52 UNL     1     -16.085  96.443  77.906  1.00  0.00     0.174 HD
ATOM     29  H51 UNL     1     -16.597  98.063  77.332  1.00  0.00     0.174 HD
HETATM   30  C13 UNL     1     -19.507  98.552  77.896  1.00  0.00     0.165 C
ATOM     31  H6  UNL     1     -19.353  97.489  76.034  1.00  0.00     0.177 HD
ATOM     32  H4  UNL     1     -18.102  94.565  77.098  1.00  0.00     0.177 HD
ENDBRANCH  23  24
ENDBRANCH  22  23
ENDBRANCH   4  22
BRANCH   1  33
HETATM   33  C7  UNL     1     -16.269  92.821  84.221  1.00  0.00     0.273 C
BRANCH  33  34
HETATM   34  C6  UNL     1     -16.232  93.861  85.265  1.00  0.00     0.236 C
BRANCH  34  35
HETATM   35  N1  UNL     1     -15.495  93.859  86.373  1.00  0.00    -0.396 NA
BRANCH  35  36
HETATM   36  C5  UNL     1     -14.786  93.935  87.552  1.00  0.00     0.158 C
BRANCH  36  37
HETATM   37  C4  UNL     1     -13.430  93.289  87.502  1.00  0.00     0.059 C
BRANCH  37  38
HETATM   38  C3  UNL     1     -12.267  94.054  87.983  1.00  0.00     0.006 C
BRANCH  38  39
HETATM   39  C2  UNL     1     -12.457  95.217  88.881  1.00  0.00    -0.004 C
HETATM   40  C1  UNL     1     -12.441  95.037  90.348  1.00  0.00     0.005 C
ENDBRANCH  38  39
ENDBRANCH  37  38
ENDBRANCH  36  37
ENDBRANCH  35  36
ENDBRANCH  34  35
BRANCH  34  41
HETATM   41  O1  UNL     1     -17.004  94.903  85.089  1.00  0.00    -0.335 OA
ATOM     42  H1  UNL     1     -17.117  95.193  84.191  1.00  0.00     0.220 HD
ENDBRANCH  34  41
ENDBRANCH  33  34
ENDBRANCH   1  33
TORSDOF 16
ENDMDL