MODEL 4
REMARK VINA RESULT: -9.133090816      1.986      2.927
REMARK  16 active torsions:
REMARK  status: ('A' for Active; 'I' for Inactive)
REMARK    1  A    between atoms: C2_2  and  N1_3
REMARK    2  A    between atoms: C2_2  and  C9_15
REMARK    3  A    between atoms: N1_3  and  C3_4
REMARK    4  A    between atoms: C3_4  and  C4_5
REMARK    5  A    between atoms: C4_5  and  C5_6
REMARK    6  A    between atoms: C5_6  and  C6_7
REMARK    7  A    between atoms: C9_15  and  N6_19
REMARK    8  A    between atoms: N6_19  and  C10_21
REMARK    9  A    between atoms: C10_21  and  C11_22
REMARK   10  A    between atoms: C10_21  and  C20_33
REMARK   11  A    between atoms: C11_22  and  C12_23
REMARK   12  A    between atoms: C20_33  and  N8_34
REMARK       I    between atoms: N8_34  and  C22_36
REMARK   13  A    between atoms: C22_36  and  C23_38
REMARK   14  A    between atoms: C23_38  and  C24_39
REMARK   15  A    between atoms: C24_39  and  N9_40
REMARK   16  A    between atoms: N9_40  and  N10_42
ROOT
HETATM    1  C10 UNL     1     -17.599  93.612  82.068  1.00  0.00     0.105 C
ENDROOT
BRANCH   1   2
HETATM    2  N6  UNL     1     -17.731  93.805  83.456  1.00  0.00    -0.368 N
ATOM      3  H6  UNL     1     -18.695  93.889  83.779  1.00  0.00     0.161 HD
BRANCH   2   4
HETATM    4  C9  UNL     1     -16.772  93.904  84.475  1.00  0.00     0.132 C
HETATM    5  N5  UNL     1     -16.893  94.907  85.315  1.00  0.00    -0.383 N
ATOM      6  H52 UNL     1     -16.195  94.978  86.056  1.00  0.00     0.157 HD
ATOM      7  H51 UNL     1     -17.677  95.545  85.179  1.00  0.00     0.157 HD
BRANCH   4   8
HETATM    8  C2  UNL     1     -15.684  93.020  84.664  1.00  0.00     0.122 C
HETATM    9  C1  UNL     1     -15.103  91.989  83.835  1.00  0.00     0.089 C
BRANCH   8  10
HETATM   10  N1  UNL     1     -15.102  93.127  85.795  1.00  0.00    -0.423 NA
BRANCH  10  11
HETATM   11  C3  UNL     1     -14.442  93.101  86.878  1.00  0.00     0.155 C
BRANCH  11  12
HETATM   12  C4  UNL     1     -13.753  94.322  87.231  1.00  0.00     0.067 C
BRANCH  12  13
HETATM   13  C5  UNL     1     -13.660  94.584  88.706  1.00  0.00     0.084 C
BRANCH  13  14
HETATM   14  C6  UNL     1     -13.919  96.005  89.046  1.00  0.00     0.099 A
HETATM   15  N2  UNL     1     -14.409  96.977  88.221  1.00  0.00    -0.340 N
HETATM   16  C7  UNL     1     -14.488  98.107  88.923  1.00  0.00     0.199 A
ATOM     17  H2  UNL     1     -14.669  96.859  87.242  1.00  0.00     0.168 HD
HETATM   18  N3  UNL     1     -14.063  97.883  90.167  1.00  0.00    -0.293 N
HETATM   19  N4  UNL     1     -13.715  96.591  90.236  1.00  0.00    -0.284 N
ATOM     20  H3  UNL     1     -14.012  98.567  90.923  1.00  0.00     0.188 HD
HETATM   21  C8  UNL     1     -13.197  95.916  91.411  1.00  0.00     0.179 C
ENDBRANCH  13  14
ENDBRANCH  12  13
ENDBRANCH  11  12
ENDBRANCH  10  11
ENDBRANCH   8  10
ENDBRANCH   4   8
ENDBRANCH   2   4
ENDBRANCH   1   2
BRANCH   1  22
HETATM   22  C11 UNL     1     -17.957  94.757  81.165  1.00  0.00     0.065 C
BRANCH  22  23
HETATM   23  C12 UNL     1     -16.795  95.301  80.394  1.00  0.00    -0.054 A
HETATM   24  C13 UNL     1     -15.503  94.981  80.766  1.00  0.00     0.008 A
HETATM   25  C14 UNL     1     -14.423  95.449  80.073  1.00  0.00     0.014 A
HETATM   26  C15 UNL     1     -14.624  96.265  78.968  1.00  0.00    -0.008 A
HETATM   27  C16 UNL     1     -13.698  96.848  78.124  1.00  0.00     0.030 A
HETATM   28  C18 UNL     1     -15.894  96.604  78.568  1.00  0.00     0.042 A
HETATM   29  C17 UNL     1     -14.449  97.557  77.194  1.00  0.00     0.089 A
HETATM   30  N7  UNL     1     -15.750  97.390  77.486  1.00  0.00    -0.365 N
ATOM     31  H7  UNL     1     -16.522  97.802  76.961  1.00  0.00     0.165 HD
HETATM   32  C19 UNL     1     -16.945  96.113  79.291  1.00  0.00     0.037 A
ENDBRANCH  22  23
ENDBRANCH   1  22
BRANCH   1  33
HETATM   33  C20 UNL     1     -18.154  92.329  81.500  1.00  0.00     0.150 C
BRANCH  33  34
HETATM   34  N8  UNL     1     -19.481  92.433  80.988  1.00  0.00    -0.354 N
HETATM   35  C21 UNL     1     -19.719  92.576  79.574  1.00  0.00     0.152 C
HETATM   36  C22 UNL     1     -20.601  92.394  81.859  1.00  0.00     0.221 C
HETATM   37  O1  UNL     1     -20.401  92.272  83.091  1.00  0.00    -0.273 OA
BRANCH  36  38
HETATM   38  C23 UNL     1     -21.986  92.491  81.365  1.00  0.00     0.124 C
BRANCH  38  39
HETATM   39  C24 UNL     1     -22.604  91.131  81.172  1.00  0.00     0.150 C
BRANCH  39  40
HETATM   40  N9  UNL     1     -22.448  90.356  82.383  1.00  0.00    -0.322 N
ATOM     41  H9  UNL     1     -21.633  90.522  82.972  1.00  0.00     0.181 HD
BRANCH  40  42
HETATM   42  N10 UNL     1     -23.376  89.389  82.772  1.00  0.00    -0.254 N
HETATM   43  N11 UNL     1     -24.545  89.697  83.146  1.00  0.00    -0.331 N
ATOM     44 2H11 UNL     1     -24.801  90.685  83.158  1.00  0.00     0.178 HD
ATOM     45 1H11 UNL     1     -25.224  88.990  83.431  1.00  0.00     0.178 HD
ATOM     46  H10 UNL     1     -23.104  88.406  82.754  1.00  0.00     0.207 HD
ENDBRANCH  40  42
ENDBRANCH  39  40
ENDBRANCH  38  39
ENDBRANCH  36  38
ENDBRANCH  33  34
ENDBRANCH   1  33
TORSDOF 16
ENDMDL