MODEL 3
REMARK VINA RESULT: -8.447381062      2.990      5.023
REMARK  16 active torsions:
REMARK  status: ('A' for Active; 'I' for Inactive)
REMARK    1  A    between atoms: C4_6  and  N2_8
REMARK    2  A    between atoms: N3_10  and  N4_12
REMARK    3  A    between atoms: N4_12  and  N5_14
REMARK    4  A    between atoms: C9_23  and  C10_24
REMARK    5  A    between atoms: C10_24  and  C11_25
REMARK       I    between atoms: C11_25  and  N8_27
REMARK    6  A    between atoms: N8_27  and  C12_29
REMARK    7  A    between atoms: C12_29  and  C13_30
REMARK    8  A    between atoms: C13_30  and  C14_31
REMARK    9  A    between atoms: C14_31  and  C15_32
REMARK   10  A    between atoms: C15_32  and  C16_33
REMARK   11  A    between atoms: C16_33  and  C17_34
REMARK   12  A    between atoms: C17_34  and  C18_35
REMARK   13  A    between atoms: C18_35  and  C19_36
REMARK   14  A    between atoms: C19_36  and  C20_37
REMARK   15  A    between atoms: C20_37  and  C21_38
REMARK   16  A    between atoms: C21_38  and  C22_39
ROOT
HETATM    1  N2  UNL     1     -23.457  92.313  80.723  1.00  0.00    -0.160 N
HETATM    2  C6  UNL     1     -24.116  91.172  80.199  1.00  0.00     0.708 C
HETATM    3  N3  UNL     1     -24.123  90.793  78.989  1.00  0.00    -0.117 N
ATOM      4  H3  UNL     1     -24.664  89.943  78.831  1.00  0.00     0.207 HD
HETATM    5  N6  UNL     1     -24.858  90.321  81.127  1.00  0.00    -0.136 N
HETATM    6  C7  UNL     1     -25.550  89.153  80.671  1.00  0.00     0.180 C
HETATM    7  C8  UNL     1     -24.867  90.692  82.490  1.00  0.00     0.338 C
HETATM    8  O1  UNL     1     -25.479  90.025  83.375  1.00  0.00    -0.246 OA
HETATM    9  N7  UNL     1     -24.166  91.858  82.894  1.00  0.00    -0.320 N
ATOM     10  H7  UNL     1     -24.461  92.414  83.696  1.00  0.00     0.166 HD
HETATM   11  C9  UNL     1     -22.989  92.218  82.090  1.00  0.00     0.220 C
ENDROOT
BRANCH  11  12
HETATM   12  C10 UNL     1     -21.851  91.278  82.294  1.00  0.00     0.150 C
BRANCH  12  13
HETATM   13  C11 UNL     1     -20.577  92.025  82.183  1.00  0.00     0.221 C
HETATM   14  O2  UNL     1     -20.296  92.906  83.029  1.00  0.00    -0.273 OA
HETATM   15  N8  UNL     1     -19.622  91.792  81.139  1.00  0.00    -0.361 N
ATOM     16  H8  UNL     1     -19.817  91.082  80.432  1.00  0.00     0.162 HD
BRANCH  15  17
HETATM   17  C12 UNL     1     -18.413  92.528  81.067  1.00  0.00     0.122 C
BRANCH  17  18
HETATM   18  C13 UNL     1     -17.134  91.838  81.267  1.00  0.00     0.020 C
BRANCH  18  19
HETATM   19  C14 UNL     1     -16.421  91.947  82.567  1.00  0.00     0.002 C
BRANCH  19  20
HETATM   20  C15 UNL     1     -16.805  93.101  83.378  1.00  0.00     0.000 C
BRANCH  20  21
HETATM   21  C16 UNL     1     -15.995  93.283  84.645  1.00  0.00     0.000 C
BRANCH  21  22
HETATM   22  C17 UNL     1     -15.013  92.197  84.909  1.00  0.00     0.000 C
BRANCH  22  23
HETATM   23  C18 UNL     1     -14.311  92.346  86.240  1.00  0.00     0.000 C
BRANCH  23  24
HETATM   24  C19 UNL     1     -14.542  93.701  86.817  1.00  0.00     0.000 C
BRANCH  24  25
HETATM   25  C20 UNL     1     -13.485  94.163  87.771  1.00  0.00     0.009 C
BRANCH  25  26
HETATM   26  C21 UNL     1     -14.036  95.220  88.736  1.00  0.00     0.099 C
BRANCH  26  27
HETATM   27  C22 UNL     1     -13.339  96.505  88.408  1.00  0.00     0.231 C
HETATM   28  N9  UNL     1     -13.655  97.713  89.114  1.00  0.00    -0.062 NA
HETATM   29  O3  UNL     1     -12.461  96.588  87.517  1.00  0.00    -0.277 OA
ENDBRANCH  26  27
ENDBRANCH  25  26
ENDBRANCH  24  25
ENDBRANCH  23  24
ENDBRANCH  22  23
ENDBRANCH  21  22
ENDBRANCH  20  21
ENDBRANCH  19  20
ENDBRANCH  18  19
ENDBRANCH  17  18
ENDBRANCH  15  17
ENDBRANCH  12  13
ENDBRANCH  11  12
BRANCH   1  30
HETATM   30  C4  UNL     1     -23.302  93.465  79.932  1.00  0.00     0.071 C
HETATM   31  C3  UNL     1     -24.274  94.338  79.708  1.00  0.00     0.131 A
HETATM   32  N1  UNL     1     -24.462  95.487  79.054  1.00  0.00    -0.328 N
HETATM   33  N10 UNL     1     -25.580  94.418  80.091  1.00  0.00    -0.328 N
HETATM   34  C2  UNL     1     -25.737  95.567  79.427  1.00  0.00     0.098 A
ATOM     35  H1  UNL     1     -23.858  96.079  78.484  1.00  0.00     0.169 HD
HETATM   36  C1  UNL     1     -26.723  96.413  79.229  1.00  0.00     0.063 C
ATOM     37  H10 UNL     1     -26.193  93.834  80.660  1.00  0.00     0.169 HD
HETATM   38  C5  UNL     1     -21.987  93.757  79.316  1.00  0.00     0.073 C
ENDBRANCH   1  30
BRANCH   3  39
HETATM   39  N4  UNL     1     -23.554  91.293  77.860  1.00  0.00    -0.235 N
ATOM     40  H4  UNL     1     -23.922  92.131  77.409  1.00  0.00     0.208 HD
BRANCH  39  41
HETATM   41  N5  UNL     1     -22.537  90.671  77.381  1.00  0.00    -0.330 N
ATOM     42  H52 UNL     1     -22.204  90.878  76.439  1.00  0.00     0.178 HD
ATOM     43  H51 UNL     1     -22.086  89.974  77.975  1.00  0.00     0.178 HD
ENDBRANCH  39  41
ENDBRANCH   3  39
TORSDOF 16
ENDMDL