MODEL 4
REMARK VINA RESULT: -9.113954024      3.813     11.457
REMARK  14 active torsions:
REMARK  status: ('A' for Active; 'I' for Inactive)
REMARK    1  A    between atoms: N1_2  and  C4_5
REMARK    2  A    between atoms: C4_5  and  C5_6
REMARK    3  A    between atoms: C5_6  and  C6_7
REMARK    4  A    between atoms: C6_7  and  O1_8
REMARK    5  A    between atoms: C6_7  and  C7_10
REMARK    6  A    between atoms: C7_10  and  C8_11
REMARK    7  A    between atoms: C7_10  and  N6_33
REMARK    8  A    between atoms: C8_11  and  C9_12
REMARK    9  A    between atoms: C9_12  and  C10_13
REMARK       I    between atoms: C10_13  and  N2_15
REMARK   10  A    between atoms: N2_15  and  C11_17
REMARK   11  A    between atoms: C11_17  and  C12_18
REMARK   12  A    between atoms: C12_18  and  N3_19
REMARK   13  A    between atoms: C18_25  and  N4_26
REMARK       I    between atoms: N6_33  and  C20_35
REMARK       I    between atoms: C20_35  and  N8_39
REMARK   14  A    between atoms: N8_39  and  C21_41
ROOT
HETATM    1  C7  UNL     1     -18.203  93.382  82.090  1.00  0.00     0.128 C
ENDROOT
BRANCH   1   2
HETATM    2  C6  UNL     1     -17.606  92.614  80.916  1.00  0.00     0.143 C
BRANCH   2   3
HETATM    3  C5  UNL     1     -18.328  92.905  79.633  1.00  0.00     0.061 C
BRANCH   3   4
HETATM    4  C4  UNL     1     -17.793  94.075  78.920  1.00  0.00     0.238 C
BRANCH   4   5
HETATM    5  N1  UNL     1     -18.616  95.176  78.621  1.00  0.00    -0.079 N
HETATM    6  C1  UNL     1     -18.516  96.195  79.691  1.00  0.00     0.271 C
HETATM    7  C2  UNL     1     -20.020  94.742  78.690  1.00  0.00     0.271 C
HETATM    8  C3  UNL     1     -18.436  95.838  77.387  1.00  0.00     0.271 C
ENDBRANCH   4   5
ENDBRANCH   3   4
ENDBRANCH   2   3
BRANCH   2   9
HETATM    9  O1  UNL     1     -17.693  91.234  81.115  1.00  0.00    -0.393 OA
ATOM     10  H1  UNL     1     -16.820  90.887  80.980  1.00  0.00     0.210 HD
ENDBRANCH   2   9
ENDBRANCH   1   2
BRANCH   1  11
HETATM   11  C8  UNL     1     -19.680  93.468  82.029  1.00  0.00     0.037 C
BRANCH  11  12
HETATM   12  C9  UNL     1     -20.365  92.252  82.507  1.00  0.00     0.105 C
BRANCH  12  13
HETATM   13  C10 UNL     1     -21.789  92.104  82.149  1.00  0.00     0.217 C
HETATM   14  O2  UNL     1     -22.648  91.788  82.989  1.00  0.00    -0.274 OA
HETATM   15  N2  UNL     1     -22.181  92.329  80.807  1.00  0.00    -0.359 N
ATOM     16  H2  UNL     1     -21.463  92.590  80.131  1.00  0.00     0.162 HD
BRANCH  15  17
HETATM   17  C11 UNL     1     -23.523  92.209  80.353  1.00  0.00     0.151 C
BRANCH  17  18
HETATM   18  C12 UNL     1     -23.858  90.864  79.783  1.00  0.00     0.266 C
BRANCH  18  19
HETATM   19  N3  UNL     1     -25.301  90.685  79.727  1.00  0.00    -0.006 N
HETATM   20  C13 UNL     1     -25.941  91.959  79.971  1.00  0.00     0.283 C
HETATM   21  C14 UNL     1     -25.732  90.205  78.440  1.00  0.00     0.247 C
HETATM   22  C15 UNL     1     -25.383  88.771  78.182  1.00  0.00     0.029 C
HETATM   23  C16 UNL     1     -26.055  87.788  79.084  1.00  0.00     0.004 C
HETATM   24  C17 UNL     1     -27.348  88.256  79.666  1.00  0.00     0.036 C
HETATM   25  C18 UNL     1     -27.108  89.188  80.837  1.00  0.00     0.199 C
HETATM   26  C19 UNL     1     -25.767  89.779  80.719  1.00  0.00     0.342 C
HETATM   27  O3  UNL     1     -24.900  89.492  81.546  1.00  0.00    -0.263 OA
BRANCH  25  28
HETATM   28  N4  UNL     1     -27.309  88.491  82.054  1.00  0.00    -0.329 N
HETATM   29  N5  UNL     1     -27.310  89.049  83.157  1.00  0.00    -0.349 N
ATOM     30  H52 UNL     1     -27.159  90.057  83.175  1.00  0.00     0.176 HD
ATOM     31  H51 UNL     1     -27.455  88.546  84.033  1.00  0.00     0.176 HD
ATOM     32  H4  UNL     1     -27.459  87.482  82.018  1.00  0.00     0.180 HD
ENDBRANCH  25  28
ENDBRANCH  18  19
ENDBRANCH  17  18
ENDBRANCH  15  17
ENDBRANCH  12  13
ENDBRANCH  11  12
ENDBRANCH   1  11
BRANCH   1  33
HETATM   33  N6  UNL     1     -17.689  92.799  83.292  1.00  0.00    -0.220 N
HETATM   34  C20 UNL     1     -16.376  92.890  83.801  1.00  0.00     0.668 C
HETATM   35  N7  UNL     1     -15.324  92.743  83.051  1.00  0.00    -0.235 N
HETATM   36  N8  UNL     1     -16.190  93.142  85.187  1.00  0.00    -0.222 N
ATOM     37  H72 UNL     1     -15.458  92.562  82.055  1.00  0.00     0.174 HD
ATOM     38  H71 UNL     1     -14.375  92.809  83.419  1.00  0.00     0.174 HD
ATOM     39  H8  UNL     1     -17.007  93.096  85.796  1.00  0.00     0.178 HD
ATOM     40  H6  UNL     1     -18.350  92.253  83.844  1.00  0.00     0.178 HD
BRANCH  36  41
HETATM   41  C21 UNL     1     -14.929  93.456  85.775  1.00  0.00     0.099 C
HETATM   42  C22 UNL     1     -14.940  94.109  87.138  1.00  0.00     0.026 C
HETATM   43  C23 UNL     1     -13.706  93.247  87.459  1.00  0.00     0.004 C
HETATM   44  C24 UNL     1     -14.217  92.283  86.400  1.00  0.00     0.026 C
ENDBRANCH  36  41
ENDBRANCH   1  33
TORSDOF 14
ENDMDL