MODEL 2
REMARK VINA RESULT: -10.203232302      0.962      1.263
REMARK  6 active torsions:
REMARK  status: ('A' for Active; 'I' for Inactive)
REMARK    1  A    between atoms: C2_2  and  C4_4
REMARK    2  A    between atoms: C18_18  and  N1_19
REMARK       I    between atoms: N1_19  and  C19_20
REMARK    3  A    between atoms: C19_20  and  C20_22
REMARK    4  A    between atoms: C20_22  and  C21_23
REMARK    5  A    between atoms: C21_23  and  N2_24
REMARK    6  A    between atoms: C31_36  and  O2_37
ROOT
HETATM    1  C4  UNL     1      66.263   6.923  11.913  1.00  0.00     0.018 C
HETATM    2  C5  UNL     1      66.405   7.241  13.353  1.00  0.00     0.010 C
HETATM    3  C6  UNL     1      65.076   6.812  13.998  1.00  0.00     0.006 C
HETATM    4  C7  UNL     1      64.259   6.262  12.874  1.00  0.00     0.002 C
HETATM    5  C8  UNL     1      65.323   5.719  11.945  1.00  0.00    -0.002 C
HETATM    6  C9  UNL     1      65.820   4.615  12.849  1.00  0.00     0.006 C
HETATM    7  C10 UNL     1      64.597   4.126  13.605  1.00  0.00     0.013 C
HETATM    8  C11 UNL     1      63.438   5.042  13.282  1.00  0.00    -0.004 C
HETATM    9  C12 UNL     1      62.848   5.446  14.601  1.00  0.00     0.013 C
HETATM   10  C13 UNL     1      61.647   4.625  14.979  1.00  0.00     0.006 C
HETATM   11  C14 UNL     1      60.636   4.882  13.909  1.00  0.00    -0.001 C
HETATM   12  C15 UNL     1      60.291   6.363  14.044  1.00  0.00     0.011 C
HETATM   13  C16 UNL     1      61.026   4.457  12.527  1.00  0.00     0.043 C
HETATM   14  C17 UNL     1      60.282   5.488  11.619  1.00  0.00     0.026 C
HETATM   15  C18 UNL     1      60.294   3.183  12.207  1.00  0.00     0.081 C
HETATM   16  C27 UNL     1      61.045   1.991  11.708  1.00  0.00     0.043 C
HETATM   17  C28 UNL     1      60.980   1.739  10.228  1.00  0.00     0.017 C
HETATM   18  C29 UNL     1      62.444   2.038  12.229  1.00  0.00     0.014 C
HETATM   19  C30 UNL     1      63.009   3.262  11.575  1.00  0.00     0.040 C
HETATM   20  C31 UNL     1      62.493   4.546  12.259  1.00  0.00     0.080 C
ENDROOT
BRANCH  15  21
HETATM   21  N1  UNL     1      59.263   2.752  13.050  1.00  0.00    -0.378 NA
HETATM   22  C19 UNL     1      58.264   2.342  13.871  1.00  0.00     0.296 C
HETATM   23  O1  UNL     1      57.633   2.905  14.775  1.00  0.00    -0.257 OA
BRANCH  22  24
HETATM   24  C20 UNL     1      57.817   0.896  13.642  1.00  0.00     0.163 C
BRANCH  24  25
HETATM   25  C21 UNL     1      57.876   0.430  12.250  1.00  0.00     0.069 C
BRANCH  25  26
HETATM   26  N2  UNL     1      57.257  -0.751  11.847  1.00  0.00    -0.387 N
HETATM   27  C22 UNL     1      56.768  -1.758  12.644  1.00  0.00     0.152 C
HETATM   28  C23 UNL     1      55.924  -2.786  11.871  1.00  0.00     0.295 C
HETATM   29  N3  UNL     1      56.307  -2.914  10.501  1.00  0.00     0.121 N
HETATM   30  C24 UNL     1      57.522  -3.632  10.256  1.00  0.00     0.314 C
HETATM   31  C25 UNL     1      56.176  -1.663   9.824  1.00  0.00     0.422 C
HETATM   32  F1  UNL     1      54.875  -1.598   9.299  1.00  0.00    -0.214 F
HETATM   33  C26 UNL     1      56.356  -0.468  10.735  1.00  0.00     0.191 C
ENDBRANCH  25  26
ENDBRANCH  24  25
ENDBRANCH  22  24
ENDBRANCH  15  21
BRANCH  20  34
HETATM   34  O2  UNL     1      62.649   5.441  11.172  1.00  0.00    -0.388 OA
ATOM     35  H2  UNL     1      63.470   5.885  11.348  1.00  0.00     0.210 HD
ENDBRANCH  20  34
BRANCH   1  36
HETATM   36  C2  UNL     1      67.459   6.717  11.114  1.00  0.00    -0.089 C
HETATM   37  C1  UNL     1      68.686   6.473  11.493  1.00  0.00     0.014 C
HETATM   38  C3  UNL     1      67.252   6.790   9.604  1.00  0.00     0.043 C
ENDBRANCH   1  36
TORSDOF 6
ENDMDL