MODEL 5
REMARK VINA RESULT: -9.457501423      2.721      3.521
REMARK  7 active torsions:
REMARK  status: ('A' for Active; 'I' for Inactive)
REMARK    1  A    between atoms: C5_5  and  C6_6
REMARK    2  A    between atoms: C6_6  and  C7_7
REMARK       I    between atoms: C7_7  and  N1_9
REMARK    3  A    between atoms: N1_9  and  N2_11
REMARK       I    between atoms: N3_19  and  C15_20
REMARK    4  A    between atoms: C15_20  and  C16_22
REMARK    5  A    between atoms: C16_22  and  N4_24
REMARK       I    between atoms: N4_24  and  C18_26
REMARK    6  A    between atoms: C18_26  and  O4_28
REMARK    7  A    between atoms: O4_28  and  C19_29
ROOT
HETATM    1  N2  UNL     1      59.797   4.391  13.260  1.00  0.00    -0.229 NA
HETATM    2  C8  UNL     1      60.097   5.392  12.286  1.00  0.00     0.114 C
HETATM    3  C9  UNL     1      61.428   6.069  12.529  1.00  0.00     0.026 C
HETATM    4  C10 UNL     1      62.571   5.071  12.539  1.00  0.00    -0.035 C
HETATM    5  C11 UNL     1      62.034   3.694  12.781  1.00  0.00     0.026 C
HETATM    6  C12 UNL     1      60.963   3.783  13.846  1.00  0.00     0.114 C
HETATM    7  C13 UNL     1      63.344   5.080  11.259  1.00  0.00     0.029 C
HETATM    8  C14 UNL     1      64.805   5.462  11.428  1.00  0.00     0.126 C
HETATM    9  N3  UNL     1      65.469   4.767  12.489  1.00  0.00    -0.350 N
HETATM   10  C15 UNL     1      66.786   4.245  12.377  1.00  0.00     0.242 C
HETATM   11  O2  UNL     1      67.262   3.627  13.391  1.00  0.00    -0.271 OA
HETATM   12  C23 UNL     1      64.713   4.610  13.746  1.00  0.00     0.126 C
HETATM   13  C24 UNL     1      63.500   5.480  13.656  1.00  0.00     0.029 C
ENDROOT
BRANCH   1  14
HETATM   14  N1  UNL     1      58.972   3.363  12.794  1.00  0.00    -0.289 N
HETATM   15  C7  UNL     1      58.698   2.267  13.644  1.00  0.00     0.236 C
HETATM   16  O1  UNL     1      59.172   2.186  14.806  1.00  0.00    -0.272 OA
ATOM     17  H1  UNL     1      58.574   3.402  11.856  1.00  0.00     0.184 HD
BRANCH  15  18
HETATM   18  C6  UNL     1      57.823   1.181  13.143  1.00  0.00     0.143 C
BRANCH  18  19
HETATM   19  C5  UNL     1      58.315   0.537  11.914  1.00  0.00    -0.042 A
HETATM   20  C4  UNL     1      59.381   1.112  11.204  1.00  0.00     0.009 A
HETATM   21  C3  UNL     1      59.869   0.549  10.046  1.00  0.00     0.009 A
HETATM   22  C2  UNL     1      59.328  -0.611   9.532  1.00  0.00    -0.040 A
HETATM   23  C1  UNL     1      59.857  -1.223   8.272  1.00  0.00     0.050 C
HETATM   24  C27 UNL     1      58.283  -1.187  10.214  1.00  0.00     0.046 A
HETATM   25  C25 UNL     1      57.787  -0.614  11.393  1.00  0.00    -0.033 A
HETATM   26 CL1  UNL     1      57.555  -2.652   9.619  1.00  0.00    -0.083 Cl
HETATM   27  C26 UNL     1      56.658  -1.276  12.110  1.00  0.00     0.050 C
ENDBRANCH  18  19
ENDBRANCH  15  18
ENDBRANCH   1  14
BRANCH  10  28
HETATM   28  C16 UNL     1      67.632   4.373  11.169  1.00  0.00     0.175 C
HETATM   29  C17 UNL     1      69.081   4.291  11.599  1.00  0.00     0.042 C
BRANCH  28  30
HETATM   30  N4  UNL     1      67.307   3.316  10.228  1.00  0.00    -0.324 N
HETATM   31  C18 UNL     1      66.840   3.623   8.926  1.00  0.00     0.362 C
HETATM   32  O3  UNL     1      66.687   4.827   8.535  1.00  0.00    -0.238 OA
ATOM     33  H4  UNL     1      67.416   2.341  10.507  1.00  0.00     0.165 HD
BRANCH  31  34
HETATM   34  O4  UNL     1      66.522   2.647   8.009  1.00  0.00    -0.294 OA
BRANCH  34  35
HETATM   35  C19 UNL     1      65.215   2.206   7.719  1.00  0.00     0.061 C
HETATM   36  C20 UNL     1      64.263   2.359   8.852  1.00  0.00     0.046 C
HETATM   37  C21 UNL     1      64.738   2.924   6.483  1.00  0.00     0.046 C
HETATM   38  C22 UNL     1      65.329   0.729   7.375  1.00  0.00     0.046 C
ENDBRANCH  34  35
ENDBRANCH  31  34
ENDBRANCH  28  30
ENDBRANCH  10  28
TORSDOF 7
ENDMDL