MODEL 3
REMARK VINA RESULT: -10.819811297      3.804     10.085
REMARK  7 active torsions:
REMARK  status: ('A' for Active; 'I' for Inactive)
REMARK    1  A    between atoms: O1_2  and  C2_3
REMARK    2  A    between atoms: C2_3  and  C3_5
REMARK    3  A    between atoms: C5_7  and  C6_8
REMARK    4  A    between atoms: C12_14  and  C13_15
REMARK       I    between atoms: C13_15  and  N1_17
REMARK    5  A    between atoms: N1_17  and  C14_19
REMARK    6  A    between atoms: C17_22  and  C18_23
REMARK       I    between atoms: C18_23  and  N2_25
REMARK    7  A    between atoms: C21_28  and  C22_29
ROOT
HETATM    1  C14 UNL     1      62.788   4.079  12.125  1.00  0.00     0.042 A
HETATM    2  C15 UNL     1      62.896   4.454  13.426  1.00  0.00     0.031 A
HETATM    3  C16 UNL     1      64.069   4.944  13.943  1.00  0.00     0.021 A
HETATM    4  C17 UNL     1      65.158   5.052  13.116  1.00  0.00     0.054 A
HETATM    5  C25 UNL     1      65.080   4.680  11.796  1.00  0.00     0.058 A
HETATM    6 CL1  UNL     1      66.492   4.825  10.738  1.00  0.00    -0.083 Cl
HETATM    7  C26 UNL     1      63.903   4.194  11.293  1.00  0.00    -0.013 A
HETATM    8  C27 UNL     1      63.838   3.792   9.842  1.00  0.00     0.052 C
ENDROOT
BRANCH   1   9
HETATM    9  N1  UNL     1      61.594   3.569  11.545  1.00  0.00    -0.326 N
HETATM   10  C13 UNL     1      61.154   2.239  11.500  1.00  0.00     0.227 C
HETATM   11  O3  UNL     1      61.786   1.296  11.986  1.00  0.00    -0.273 OA
ATOM     12  H1  UNL     1      60.981   4.256  11.107  1.00  0.00     0.169 HD
BRANCH  10  13
HETATM   13  C12 UNL     1      59.833   1.997  10.810  1.00  0.00     0.091 C
HETATM   14  C3  UNL     1      58.728   1.743  11.773  1.00  0.00     0.099 C
HETATM   15  C4  UNL     1      58.659   0.309  12.238  1.00  0.00     0.020 C
HETATM   16  C5  UNL     1      58.626  -0.660  11.079  1.00  0.00    -0.006 C
HETATM   17  C10 UNL     1      58.800   0.052   9.753  1.00  0.00     0.006 C
HETATM   18  C11 UNL     1      60.068   0.870   9.848  1.00  0.00     0.015 C
BRANCH  14  19
HETATM   19  C2  UNL     1      58.747   2.613  12.974  1.00  0.00     0.263 C
HETATM   20  O2  UNL     1      58.812   3.884  12.873  1.00  0.00    -0.265 OA
BRANCH  19  21
HETATM   21  O1  UNL     1      58.696   2.107  14.266  1.00  0.00    -0.326 OA
HETATM   22  C1  UNL     1      57.623   2.454  15.119  1.00  0.00     0.213 C
ENDBRANCH  19  21
ENDBRANCH  14  19
BRANCH  16  23
HETATM   23  C6  UNL     1      57.368  -1.469  11.037  1.00  0.00    -0.048 C
HETATM   24  C7  UNL     1      57.591  -2.596  10.033  1.00  0.00     0.015 C
HETATM   25  C8  UNL     1      56.161  -0.704  10.596  1.00  0.00     0.015 C
HETATM   26  C9  UNL     1      57.054  -2.122  12.358  1.00  0.00     0.015 C
ENDBRANCH  16  23
ENDBRANCH  10  13
ENDBRANCH   1   9
BRANCH   4  27
HETATM   27  C18 UNL     1      66.405   5.570  13.662  1.00  0.00     0.255 C
HETATM   28  O4  UNL     1      66.557   6.818  13.669  1.00  0.00    -0.267 OA
HETATM   29  N2  UNL     1      67.370   4.678  14.151  1.00  0.00    -0.348 N
HETATM   30  C19 UNL     1      67.152   3.262  14.122  1.00  0.00     0.127 C
HETATM   31  C24 UNL     1      68.606   5.166  14.694  1.00  0.00     0.127 C
HETATM   32  C20 UNL     1      68.261   2.594  13.397  1.00  0.00     0.034 C
HETATM   33  C21 UNL     1      69.638   3.071  13.742  1.00  0.00     0.078 C
HETATM   34  C23 UNL     1      69.744   4.549  13.969  1.00  0.00     0.034 C
BRANCH  33  35
HETATM   35  C22 UNL     1      70.174   2.326  14.899  1.00  0.00     0.235 C
HETATM   36  N3  UNL     1      69.666   1.055  15.237  1.00  0.00    -0.062 NA
HETATM   37  O5  UNL     1      71.090   2.826  15.588  1.00  0.00    -0.277 OA
ENDBRANCH  33  35
ENDBRANCH   4  27
TORSDOF 7
ENDMDL