MODEL 1
REMARK VINA RESULT: -11.065750166      0.000      0.000
REMARK  6 active torsions:
REMARK  status: ('A' for Active; 'I' for Inactive)
REMARK    1  A    between atoms: C2_2  and  C3_4
REMARK    2  A    between atoms: C3_4  and  O1_5
REMARK    3  A    between atoms: C3_4  and  C4_7
REMARK    4  A    between atoms: C4_7  and  C5_8
REMARK    5  A    between atoms: C5_8  and  C6_9
REMARK    6  A    between atoms: C11_14  and  O2_15
ROOT
HETATM    1  C6  UNL     1      58.060   0.065  10.304  1.00  0.00    -0.080 C
HETATM    2  C7  UNL     1      56.766   0.239  10.992  1.00  0.00     0.043 C
HETATM    3  C8  UNL     1      59.322   0.134  10.959  1.00  0.00    -0.066 C
HETATM    4  C9  UNL     1      60.537   0.421  10.136  1.00  0.00     0.041 C
HETATM    5  C10 UNL     1      60.637   0.054   8.730  1.00  0.00     0.017 C
HETATM    6  C11 UNL     1      60.641   1.943  10.314  1.00  0.00     0.135 C
HETATM    7  C12 UNL     1      60.552   2.056  11.813  1.00  0.00    -0.005 C
HETATM    8  C13 UNL     1      61.947   1.893  12.341  1.00  0.00     0.019 C
HETATM    9  C14 UNL     1      59.933   3.390  12.166  1.00  0.00     0.008 C
HETATM   10  C15 UNL     1      60.645   4.559  11.615  1.00  0.00     0.007 C
HETATM   11  C16 UNL     1      61.747   5.131  12.449  1.00  0.00     0.010 C
HETATM   12  C17 UNL     1      61.242   5.450  13.839  1.00  0.00    -0.039 C
HETATM   13  C18 UNL     1      60.350   6.691  13.686  1.00  0.00     0.015 C
HETATM   14  C19 UNL     1      62.382   5.829  14.725  1.00  0.00     0.017 C
HETATM   15  C20 UNL     1      62.123   5.672  16.181  1.00  0.00     0.079 C
HETATM   16  C21 UNL     1      60.704   5.510  16.542  1.00  0.00     0.127 C
HETATM   17  O3  UNL     1      60.338   5.846  17.638  1.00  0.00    -0.298 OA
HETATM   18  C22 UNL     1      59.679   4.944  15.614  1.00  0.00     0.084 C
HETATM   19  C23 UNL     1      60.501   4.318  14.468  1.00  0.00     0.012 C
HETATM   20  C24 UNL     1      59.588   3.581  13.591  1.00  0.00     0.065 C
HETATM   21  C25 UNL     1      59.315   2.199  14.144  1.00  0.00     0.132 C
HETATM   22  O4  UNL     1      59.626   1.852  15.245  1.00  0.00    -0.298 OA
HETATM   23  C26 UNL     1      58.603   1.315  13.141  1.00  0.00     0.088 C
HETATM   24  C27 UNL     1      59.621   0.900  12.168  1.00  0.00     0.033 C
ENDROOT
BRANCH   1  25
HETATM   25  C5  UNL     1      57.854  -1.036   9.272  1.00  0.00     0.036 C
BRANCH  25  26
HETATM   26  C4  UNL     1      57.405  -2.316   9.913  1.00  0.00     0.037 C
BRANCH  26  27
HETATM   27  C3  UNL     1      56.108  -2.868   9.500  1.00  0.00     0.132 C
BRANCH  27  28
HETATM   28  C2  UNL     1      54.913  -2.674  10.364  1.00  0.00     0.082 C
HETATM   29  C1  UNL     1      53.800  -3.618  10.069  1.00  0.00     0.024 C
HETATM   30 BR1  UNL     1      55.394  -2.696  12.220  1.00  0.00    -0.089 Br
ENDBRANCH  27  28
BRANCH  27  31
HETATM   31  O1  UNL     1      55.802  -2.575   8.156  1.00  0.00    -0.394 OA
ATOM     32  H1  UNL     1      56.596  -2.414   7.660  1.00  0.00     0.210 HD
ENDBRANCH  27  31
ENDBRANCH  26  27
ENDBRANCH  25  26
ENDBRANCH   1  25
BRANCH   6  33
HETATM   33  O2  UNL     1      61.911   2.267   9.821  1.00  0.00    -0.394 OA
ATOM     34  H2  UNL     1      61.926   3.216   9.807  1.00  0.00     0.210 HD
ENDBRANCH   6  33
TORSDOF 6
ENDMDL