MODEL 3
REMARK VINA RESULT: -9.115240122      1.818      2.229
REMARK  6 active torsions:
REMARK  status: ('A' for Active; 'I' for Inactive)
REMARK    1  A    between atoms: C2_2  and  N1_3
REMARK    2  A    between atoms: C5_6  and  C6_7
REMARK    3  A    between atoms: C14_15  and  C15_16
REMARK       I    between atoms: C15_16  and  N2_18
REMARK    4  A    between atoms: N2_18  and  C16_20
REMARK    5  A    between atoms: C25_32  and  C26_33
REMARK    6  A    between atoms: C26_33  and  O2_34
ROOT
HETATM    1  C6  UNL     1      63.654   5.314  13.129  1.00  0.00     0.013 C
HETATM    2  C7  UNL     1      63.371   4.683  14.431  1.00  0.00     0.009 C
HETATM    3  C8  UNL     1      61.920   4.543  14.755  1.00  0.00     0.007 C
HETATM    4  C9  UNL     1      60.943   4.757  13.595  1.00  0.00     0.007 C
HETATM    5  C10 UNL     1      60.547   3.381  13.210  1.00  0.00    -0.035 C
HETATM    6  C11 UNL     1      59.424   2.999  14.234  1.00  0.00     0.016 C
HETATM    7  C12 UNL     1      61.473   2.245  13.338  1.00  0.00     0.011 C
HETATM    8  C13 UNL     1      61.847   1.771  11.913  1.00  0.00     0.015 C
HETATM    9  C14 UNL     1      60.706   2.194  11.072  1.00  0.00     0.083 C
HETATM   10  C21 UNL     1      59.915   3.147  11.880  1.00  0.00     0.007 C
HETATM   11  C22 UNL     1      59.869   4.491  11.163  1.00  0.00     0.007 C
HETATM   12  C23 UNL     1      61.265   5.114  11.250  1.00  0.00     0.015 C
HETATM   13  C24 UNL     1      61.292   5.790  12.608  1.00  0.00    -0.006 C
HETATM   14  C25 UNL     1      60.475   7.002  12.375  1.00  0.00    -0.051 C
HETATM   15  C27 UNL     1      60.516   7.989  13.294  1.00  0.00    -0.021 C
HETATM   16  C28 UNL     1      61.363   7.911  14.534  1.00  0.00     0.028 C
HETATM   17  C29 UNL     1      62.690   7.323  14.085  1.00  0.00     0.010 C
HETATM   18  C30 UNL     1      62.637   6.418  12.936  1.00  0.00     0.007 C
ENDROOT
BRANCH   9  19
HETATM   19  C15 UNL     1      59.902   0.963  10.731  1.00  0.00     0.227 C
HETATM   20  O1  UNL     1      60.323   0.169   9.891  1.00  0.00    -0.273 OA
HETATM   21  N2  UNL     1      58.646   0.733  11.403  1.00  0.00    -0.310 N
ATOM     22  H2  UNL     1      58.304   1.403  12.092  1.00  0.00     0.170 HD
BRANCH  21  23
HETATM   23  C16 UNL     1      57.890  -0.425  11.102  1.00  0.00     0.147 A
HETATM   24  N3  UNL     1      57.763  -0.828   9.815  1.00  0.00    -0.350 N
HETATM   25  C17 UNL     1      57.064  -1.913   9.463  1.00  0.00     0.090 A
ATOM     26  H3  UNL     1      58.218  -0.282   9.084  1.00  0.00     0.166 HD
HETATM   27  C18 UNL     1      56.423  -2.698  10.409  1.00  0.00     0.020 A
HETATM   28  C19 UNL     1      56.549  -2.291  11.742  1.00  0.00     0.047 A
HETATM   29  C20 UNL     1      57.273  -1.169  12.081  1.00  0.00     0.160 A
HETATM   30  F1  UNL     1      57.383  -0.791  13.364  1.00  0.00    -0.202 F
ENDBRANCH  21  23
ENDBRANCH   9  19
BRANCH  14  31
HETATM   31  C26 UNL     1      59.703   7.344  11.159  1.00  0.00     0.199 C
BRANCH  31  32
HETATM   32  O2  UNL     1      59.419   8.764  11.123  1.00  0.00    -0.397 OA
ATOM     33  H2  UNL     1      59.833   9.166  10.368  1.00  0.00     0.209 HD
ENDBRANCH  31  32
ENDBRANCH  14  31
BRANCH   1  34
HETATM   34  C5  UNL     1      65.034   5.854  12.982  1.00  0.00    -0.015 C
HETATM   35  C4  UNL     1      66.148   5.399  13.466  1.00  0.00    -0.027 C
HETATM   36  C3  UNL     1      66.761   4.326  14.283  1.00  0.00     0.308 C
HETATM   37  C31 UNL     1      67.572   5.900  13.318  1.00  0.00     0.308 C
HETATM   38  N1  UNL     1      68.084   4.924  14.219  1.00  0.00     0.095 N
BRANCH  38  39
HETATM   39  C2  UNL     1      69.102   4.048  13.686  1.00  0.00     0.268 C
HETATM   40  C1  UNL     1      70.253   4.039  14.687  1.00  0.00     0.037 C
ENDBRANCH  38  39
ENDBRANCH   1  34
TORSDOF 6
ENDMDL