MODEL 5
REMARK VINA RESULT: -8.941467543      2.872      5.201
REMARK  8 active torsions:
REMARK  status: ('A' for Active; 'I' for Inactive)
REMARK    1  A    between atoms: C3_3  and  C4_4
REMARK    2  A    between atoms: C4_4  and  O1_5
REMARK    3  A    between atoms: C4_4  and  C27_34
REMARK    4  A    between atoms: O1_5  and  C5_6
REMARK    5  A    between atoms: C14_15  and  C16_17
REMARK    6  A    between atoms: C16_17  and  O2_18
REMARK    7  A    between atoms: C18_21  and  O3_22
REMARK    8  A    between atoms: C24_30  and  C26_32
ROOT
HETATM    1  C1  UNL     1      60.298   5.376  11.637  1.00  0.00     0.012 C
HETATM    2  C2  UNL     1      60.525   4.202  11.774  1.00  0.00    -0.115 C
HETATM    3  C3  UNL     1      60.767   2.793  11.959  1.00  0.00     0.130 C
ENDROOT
BRANCH   3   4
HETATM    4  C4  UNL     1      61.572   2.118  10.877  1.00  0.00     0.166 C
BRANCH   4   5
HETATM    5  O1  UNL     1      62.782   1.663  11.247  1.00  0.00    -0.374 OA
BRANCH   5   6
HETATM    6  C5  UNL     1      63.849   2.052  10.496  1.00  0.00     0.133 C
HETATM    7  C6  UNL     1      63.583   3.469   9.882  1.00  0.00     0.043 C
HETATM    8  C7  UNL     1      64.750   4.303  10.415  1.00  0.00    -0.027 C
HETATM    9  C8  UNL     1      65.015   5.582   9.824  1.00  0.00     0.037 C
HETATM   10  C20 UNL     1      65.744   3.246  10.293  1.00  0.00     0.050 C
HETATM   11  C23 UNL     1      64.282   4.489  11.839  1.00  0.00     0.011 C
HETATM   12  C9  UNL     1      66.367   6.115   9.731  1.00  0.00    -0.023 C
HETATM   13  C10 UNL     1      67.451   5.829  10.699  1.00  0.00    -0.080 C
HETATM   14  C11 UNL     1      67.472   6.775  11.916  1.00  0.00     0.043 C
HETATM   15  C12 UNL     1      67.878   4.459  10.993  1.00  0.00     0.057 C
HETATM   16  C13 UNL     1      67.957   4.063  12.454  1.00  0.00     0.024 C
HETATM   17  C19 UNL     1      67.149   3.446  10.181  1.00  0.00     0.142 C
HETATM   18  C14 UNL     1      68.118   2.591  12.672  1.00  0.00    -0.015 C
HETATM   19  C15 UNL     1      69.638   2.327  12.488  1.00  0.00     0.018 C
HETATM   20  C17 UNL     1      67.478   1.669  11.745  1.00  0.00     0.043 C
HETATM   21  C18 UNL     1      67.795   2.048  10.340  1.00  0.00     0.165 C
HETATM   22  C24 UNL     1      66.005   1.329  11.787  1.00  0.00     0.027 C
HETATM   23  C21 UNL     1      65.116   2.342  11.309  1.00  0.00     0.007 C
HETATM   24  C25 UNL     1      65.900   0.069  10.902  1.00  0.00     0.024 C
HETATM   25  C22 UNL     1      64.503   3.139  12.422  1.00  0.00     0.014 C
HETATM   26  F1  UNL     1      67.578   3.713   8.855  1.00  0.00    -0.239 F
BRANCH  18  27
HETATM   27  C16 UNL     1      67.915   2.301  14.147  1.00  0.00     0.173 C
BRANCH  27  28
HETATM   28  O2  UNL     1      67.529   3.536  14.732  1.00  0.00    -0.400 OA
ATOM     29  H2  UNL     1      66.579   3.545  14.710  1.00  0.00     0.209 HD
ENDBRANCH  27  28
ENDBRANCH  18  27
BRANCH  21  30
HETATM   30  O3  UNL     1      69.089   2.015   9.937  1.00  0.00    -0.392 OA
ATOM     31  H3  UNL     1      69.557   1.189   9.982  1.00  0.00     0.210 HD
ENDBRANCH  21  30
BRANCH  22  32
HETATM   32  C26 UNL     1      65.632   0.786  13.137  1.00  0.00     0.241 C
HETATM   33  O4  UNL     1      65.781  -0.416  13.418  1.00  0.00    -0.306 OA
ENDBRANCH  22  32
ENDBRANCH   5   6
ENDBRANCH   4   5
BRANCH   4  34
HETATM   34  C27 UNL     1      60.666   1.073  10.310  1.00  0.00    -0.029 A
HETATM   35  C28 UNL     1      60.945   0.483   9.100  1.00  0.00     0.010 A
HETATM   36  C29 UNL     1      60.103  -0.484   8.601  1.00  0.00     0.001 A
HETATM   37  C30 UNL     1      58.982  -0.872   9.297  1.00  0.00     0.000 A
HETATM   38  C31 UNL     1      58.712  -0.282  10.496  1.00  0.00     0.001 A
HETATM   39  C32 UNL     1      59.541   0.673  10.993  1.00  0.00     0.010 A
ENDBRANCH   4  34
ENDBRANCH   3   4
TORSDOF 8
ENDMDL