MODEL 4
REMARK VINA RESULT: -8.315762204      1.950      3.347
REMARK  7 active torsions:
REMARK  status: ('A' for Active; 'I' for Inactive)
REMARK    1  A    between atoms: C3_3  and  C4_4
REMARK    2  A    between atoms: C4_4  and  C5_5
REMARK    3  A    between atoms: C5_5  and  O2_7
REMARK    4  A    between atoms: O2_7  and  C6_8
REMARK    5  A    between atoms: C23_25  and  O3_26
REMARK    6  A    between atoms: C23_25  and  C24_28
REMARK       I    between atoms: C24_28  and  N1_30
REMARK    7  A    between atoms: N1_30  and  C25_32
ROOT
HETATM    1  C1  UNL     1      59.622   0.031   8.552  1.00  0.00     0.112 C
HETATM    2  C2  UNL     1      60.977   0.465   8.855  1.00  0.00    -0.111 C
HETATM    3  C3  UNL     1      62.120   0.811   9.117  1.00  0.00    -0.097 C
ENDROOT
BRANCH   3   4
HETATM    4  C4  UNL     1      63.471   1.199   9.442  1.00  0.00     0.204 C
BRANCH   4   5
HETATM    5  C5  UNL     1      63.494   2.536  10.113  1.00  0.00     0.270 C
HETATM    6  O1  UNL     1      63.775   3.512   9.390  1.00  0.00    -0.264 OA
BRANCH   5   7
HETATM    7  O2  UNL     1      63.226   2.700  11.443  1.00  0.00    -0.315 OA
BRANCH   7   8
HETATM    8  C6  UNL     1      62.546   3.853  11.968  1.00  0.00     0.142 C
HETATM    9  C7  UNL     1      63.664   4.829  12.302  1.00  0.00     0.039 C
HETATM   10  C8  UNL     1      63.770   5.095  13.762  1.00  0.00     0.008 C
HETATM   11  C9  UNL     1      64.967   5.874  14.142  1.00  0.00    -0.043 C
HETATM   12  C15 UNL     1      62.440   5.648  14.255  1.00  0.00    -0.016 C
HETATM   13  C10 UNL     1      65.197   7.153  13.418  1.00  0.00     0.015 C
HETATM   14  C11 UNL     1      66.175   4.976  13.813  1.00  0.00     0.015 C
HETATM   15  C12 UNL     1      65.017   6.068  15.636  1.00  0.00     0.009 C
HETATM   16  C13 UNL     1      63.724   5.615  16.311  1.00  0.00     0.002 C
HETATM   17  C14 UNL     1      62.603   6.305  15.562  1.00  0.00     0.014 C
HETATM   18  C16 UNL     1      61.860   6.654  13.280  1.00  0.00     0.020 C
HETATM   19  C17 UNL     1      61.556   4.447  14.212  1.00  0.00    -0.066 C
HETATM   20  C18 UNL     1      60.670   4.289  15.161  1.00  0.00    -0.022 C
HETATM   21  C30 UNL     1      61.708   3.440  13.135  1.00  0.00     0.072 C
HETATM   22  C19 UNL     1      59.790   3.096  15.115  1.00  0.00     0.039 C
HETATM   23  C20 UNL     1      59.291   2.899  13.691  1.00  0.00    -0.012 C
HETATM   24  C21 UNL     1      58.518   4.192  13.363  1.00  0.00     0.018 C
HETATM   25  C22 UNL     1      58.278   1.824  13.739  1.00  0.00     0.064 C
HETATM   26  C29 UNL     1      60.405   2.786  12.715  1.00  0.00     0.072 C
HETATM   27  C23 UNL     1      58.218   0.963  12.498  1.00  0.00     0.156 C
HETATM   28  C27 UNL     1      59.614   0.527  12.249  1.00  0.00     0.018 C
HETATM   29  C28 UNL     1      60.607   1.370  12.353  1.00  0.00    -0.000 C
HETATM   30 CL1  UNL     1      59.877   3.641  11.225  1.00  0.00    -0.113 Cl
BRANCH  27  31
HETATM   31  O3  UNL     1      57.601   1.566  11.431  1.00  0.00    -0.376 OA
ATOM     32  H3  UNL     1      56.685   1.771  11.579  1.00  0.00     0.211 HD
ENDBRANCH  27  31
BRANCH  27  33
HETATM   33  C24 UNL     1      57.438  -0.241  12.870  1.00  0.00     0.256 C
HETATM   34  O4  UNL     1      56.880  -0.281  13.989  1.00  0.00    -0.270 OA
HETATM   35  N1  UNL     1      57.283  -1.369  12.018  1.00  0.00    -0.359 N
ATOM     36  H1  UNL     1      57.730  -1.355  11.101  1.00  0.00     0.162 HD
BRANCH  35  37
HETATM   37  C25 UNL     1      56.518  -2.534  12.400  1.00  0.00     0.118 C
HETATM   38  C26 UNL     1      55.138  -2.537  11.793  1.00  0.00     0.026 C
ENDBRANCH  35  37
ENDBRANCH  27  33
ENDBRANCH   7   8
ENDBRANCH   5   7
ENDBRANCH   4   5
ENDBRANCH   3   4
TORSDOF 7
ENDMDL