MODEL 4
REMARK VINA RESULT: -9.291625805      3.388      9.764
REMARK  9 active torsions:
REMARK  status: ('A' for Active; 'I' for Inactive)
REMARK    1  A    between atoms: C3_3  and  C4_4
REMARK    2  A    between atoms: C6_6  and  C7_7
REMARK    3  A    between atoms: C8_8  and  C9_9
REMARK    4  A    between atoms: C11_11  and  C12_12
REMARK    5  A    between atoms: C12_12  and  C13_13
REMARK    6  A    between atoms: C12_12  and  C19_21
REMARK    7  A    between atoms: C13_13  and  N1_14
REMARK       I    between atoms: C19_21  and  N3_23
REMARK    8  A    between atoms: N3_23  and  C20_25
REMARK    9  A    between atoms: C30_35  and  C31_36
ROOT
HETATM    1  C1  UNL     1      70.519   1.777  15.203  1.00  0.00     0.112 C
HETATM    2  C2  UNL     1      69.233   1.508  14.554  1.00  0.00    -0.106 C
HETATM    3  C3  UNL     1      68.162   1.298  14.021  1.00  0.00    -0.072 C
ENDROOT
BRANCH   3   4
HETATM    4  C4  UNL     1      66.886   1.056  13.413  1.00  0.00    -0.001 C
HETATM    5  C5  UNL     1      66.087  -0.175  13.718  1.00  0.00     0.059 C
HETATM    6  C6  UNL     1      66.392   1.929  12.565  1.00  0.00     0.080 C
BRANCH   6   7
HETATM    7  C7  UNL     1      65.120   1.739  11.927  1.00  0.00    -0.072 C
HETATM    8  C8  UNL     1      64.030   1.599  11.379  1.00  0.00    -0.061 C
BRANCH   8   9
HETATM    9  C9  UNL     1      62.765   1.400  10.726  1.00  0.00     0.035 A
HETATM   10  C10 UNL     1      61.576   1.576  11.455  1.00  0.00     0.029 A
HETATM   11  C11 UNL     1      60.362   1.390  10.849  1.00  0.00    -0.042 A
HETATM   12  C28 UNL     1      60.298   1.029   9.512  1.00  0.00     0.009 A
HETATM   13  C29 UNL     1      61.450   0.855   8.787  1.00  0.00     0.020 A
HETATM   14  C30 UNL     1      62.702   1.043   9.404  1.00  0.00     0.059 A
BRANCH  11  15
HETATM   15  C12 UNL     1      59.093   1.570  11.601  1.00  0.00     0.139 C
BRANCH  15  16
HETATM   16  C13 UNL     1      58.796   0.275  12.298  1.00  0.00     0.291 C
BRANCH  16  17
HETATM   17  N1  UNL     1      57.376  -0.088  12.181  1.00  0.00     0.093 N
HETATM   18  C14 UNL     1      57.196  -1.291  12.922  1.00  0.00     0.302 C
HETATM   19  C15 UNL     1      56.089  -2.170  12.423  1.00  0.00     0.302 C
HETATM   20  N2  UNL     1      56.112  -2.338  10.988  1.00  0.00     0.087 N
HETATM   21  C16 UNL     1      57.295  -3.008  10.530  1.00  0.00     0.310 C
HETATM   22  C17 UNL     1      55.935  -1.028  10.399  1.00  0.00     0.302 C
HETATM   23  C18 UNL     1      57.077  -0.161  10.791  1.00  0.00     0.302 C
ENDBRANCH  16  17
ENDBRANCH  15  16
BRANCH  15  24
HETATM   24  C19 UNL     1      59.149   2.714  12.527  1.00  0.00     0.228 C
HETATM   25  O1  UNL     1      58.063   3.124  13.015  1.00  0.00    -0.273 OA
HETATM   26  N3  UNL     1      60.333   3.376  12.900  1.00  0.00    -0.356 N
ATOM     27  H3  UNL     1      61.219   3.054  12.510  1.00  0.00     0.162 HD
BRANCH  26  28
HETATM   28  C20 UNL     1      60.343   4.496  13.814  1.00  0.00     0.084 C
HETATM   29  C21 UNL     1      61.420   5.422  13.388  1.00  0.00     0.025 C
HETATM   30  C22 UNL     1      61.290   6.854  13.716  1.00  0.00     0.002 C
HETATM   31  C23 UNL     1      60.173   7.287  14.583  1.00  0.00     0.000 C
HETATM   32  C24 UNL     1      60.501   7.207  16.080  1.00  0.00     0.000 C
HETATM   33  C25 UNL     1      60.173   5.858  16.659  1.00  0.00     0.000 C
HETATM   34  C26 UNL     1      61.163   4.810  16.176  1.00  0.00     0.002 C
HETATM   35  C27 UNL     1      60.518   3.912  15.186  1.00  0.00     0.025 C
ENDBRANCH  26  28
ENDBRANCH  15  24
ENDBRANCH  11  15
BRANCH  14  36
HETATM   36  C31 UNL     1      63.899   0.851   8.612  1.00  0.00     0.210 C
HETATM   37  O2  UNL     1      64.276   1.790   7.842  1.00  0.00    -0.644 OA
HETATM   38  O3  UNL     1      64.684  -0.273   8.612  1.00  0.00    -0.644 OA
ENDBRANCH  14  36
ENDBRANCH   8   9
ENDBRANCH   6   7
ENDBRANCH   3   4
TORSDOF 9
ENDMDL