MODEL 1
REMARK VINA RESULT: -9.896593010      0.000      0.000
REMARK  8 active torsions:
REMARK  status: ('A' for Active; 'I' for Inactive)
REMARK    1  A    between atoms: C2_2  and  C4_4
REMARK    2  A    between atoms: C6_6  and  C7_7
REMARK    3  A    between atoms: C12_12  and  C13_13
REMARK       I    between atoms: C13_13  and  N1_15
REMARK    4  A    between atoms: N1_15  and  C14_17
REMARK    5  A    between atoms: C16_19  and  N2_20
REMARK    6  A    between atoms: N3_23  and  C19_24
REMARK    7  A    between atoms: C19_24  and  C20_25
REMARK    8  A    between atoms: C24_33  and  O2_34
ROOT
HETATM    1  C13 UNL     1      59.504   2.062  13.336  1.00  0.00     0.260 C
HETATM    2  O1  UNL     1      59.527   1.594  14.492  1.00  0.00    -0.267 OA
HETATM    3  N1  UNL     1      59.857   3.366  13.042  1.00  0.00    -0.308 N
ATOM      4  H1  UNL     1      59.595   3.684  12.109  1.00  0.00     0.170 HD
ENDROOT
BRANCH   3   5
HETATM    5  C14 UNL     1      60.467   4.242  13.762  1.00  0.00     0.116 A
HETATM    6  C15 UNL     1      61.753   4.595  13.676  1.00  0.00     0.086 A
HETATM    7  C16 UNL     1      62.214   5.551  14.554  1.00  0.00     0.080 A
HETATM    8  S1  UNL     1      60.820   5.909  15.458  1.00  0.00    -0.079 SA
HETATM    9  C23 UNL     1      60.380   7.459  16.367  1.00  0.00     0.109 C
HETATM   10  N4  UNL     1      59.732   4.873  14.721  1.00  0.00    -0.320 N
ATOM     11  H4  UNL     1      58.745   4.742  14.940  1.00  0.00     0.175 HD
BRANCH   7  12
HETATM   12  N2  UNL     1      63.496   6.127  14.700  1.00  0.00    -0.368 N
HETATM   13  C17 UNL     1      64.351   5.612  15.745  1.00  0.00     0.168 C
HETATM   14  C18 UNL     1      65.804   5.667  15.398  1.00  0.00     0.083 C
HETATM   15  N3  UNL     1      66.154   6.401  14.267  1.00  0.00    -0.370 N
HETATM   16  C21 UNL     1      65.291   6.738  13.257  1.00  0.00     0.146 C
HETATM   17  C22 UNL     1      63.942   7.187  13.872  1.00  0.00     0.144 C
BRANCH  15  18
HETATM   18  C19 UNL     1      67.527   6.368  13.982  1.00  0.00     0.074 C
BRANCH  18  19
HETATM   19  C20 UNL     1      68.094   5.200  13.262  1.00  0.00     0.129 C
HETATM   20 BR1  UNL     1      69.189   4.029  14.327  1.00  0.00    -0.091 Br
ENDBRANCH  18  19
ENDBRANCH  15  18
ENDBRANCH   7  12
ENDBRANCH   3   5
BRANCH   1  21
HETATM   21  C12 UNL     1      59.063   1.103  12.296  1.00  0.00     0.066 A
HETATM   22  C11 UNL     1      59.733   0.975  11.099  1.00  0.00     0.027 A
HETATM   23  C6  UNL     1      59.329   0.078  10.140  1.00  0.00    -0.049 A
HETATM   24  C5  UNL     1      58.219  -0.687  10.437  1.00  0.00     0.018 A
HETATM   25  C4  UNL     1      57.534  -0.565  11.643  1.00  0.00    -0.020 A
HETATM   26  C24 UNL     1      57.946   0.337  12.598  1.00  0.00     0.088 A
BRANCH  23  27
HETATM   27  C7  UNL     1      60.038  -0.084   8.842  1.00  0.00    -0.024 C
HETATM   28  C8  UNL     1      59.462   0.854   7.803  1.00  0.00     0.019 C
HETATM   29  C9  UNL     1      61.522   0.237   8.962  1.00  0.00     0.019 C
HETATM   30  C10 UNL     1      59.880  -1.508   8.356  1.00  0.00     0.019 C
ENDBRANCH  23  27
BRANCH  25  31
HETATM   31  C2  UNL     1      56.359  -1.417  11.930  1.00  0.00     0.013 C
HETATM   32  C1  UNL     1      55.555  -1.569  10.645  1.00  0.00     0.015 C
HETATM   33  C3  UNL     1      56.828  -2.805  12.359  1.00  0.00     0.015 C
ENDBRANCH  25  31
BRANCH  26  34
HETATM   34  O2  UNL     1      57.290   0.501  13.826  1.00  0.00    -0.359 OA
ATOM     35  H2  UNL     1      57.614   1.071  14.513  1.00  0.00     0.217 HD
ENDBRANCH  26  34
ENDBRANCH   1  21
TORSDOF 8
ENDMDL