MODEL 1
REMARK VINA RESULT: -11.211548255      0.000      0.000
REMARK  5 active torsions:
REMARK  status: ('A' for Active; 'I' for Inactive)
REMARK    1  A    between atoms: C2_2  and  C3_3
REMARK    2  A    between atoms: C9_12  and  C10_13
REMARK       I    between atoms: C10_13  and  N2_15
REMARK    3  A    between atoms: N2_15  and  C11_17
REMARK    4  A    between atoms: C16_22  and  C17_23
REMARK    5  A    between atoms: C17_23  and  C18_24
REMARK       I    between atoms: C18_24  and  N3_26
ROOT
HETATM    1  C10 UNL     1      58.882   3.146  13.245  1.00  0.00     0.242 C
HETATM    2  O1  UNL     1      58.622   3.429  14.440  1.00  0.00    -0.271 OA
HETATM    3  N2  UNL     1      59.822   3.911  12.542  1.00  0.00    -0.355 N
ATOM      4  H2  UNL     1      60.035   3.691  11.569  1.00  0.00     0.162 HD
ENDROOT
BRANCH   3   5
HETATM    5  C11 UNL     1      60.504   5.038  13.215  1.00  0.00     0.084 C
HETATM    6  C12 UNL     1      60.546   6.124  12.185  1.00  0.00     0.025 C
HETATM    7  C13 UNL     1      60.785   7.447  12.798  1.00  0.00     0.002 C
HETATM    8  C14 UNL     1      60.995   7.407  14.254  1.00  0.00     0.000 C
HETATM    9  C15 UNL     1      62.111   6.669  14.840  1.00  0.00     0.005 C
HETATM   10  C16 UNL     1      62.799   5.610  14.090  1.00  0.00    -0.004 C
HETATM   11  C24 UNL     1      61.902   4.552  13.515  1.00  0.00     0.030 C
BRANCH  10  12
HETATM   12  C17 UNL     1      63.855   6.029  13.104  1.00  0.00     0.107 C
BRANCH  12  13
HETATM   13  C18 UNL     1      65.068   6.619  13.667  1.00  0.00     0.220 C
HETATM   14  O2  UNL     1      65.163   7.847  13.889  1.00  0.00    -0.273 OA
HETATM   15  N3  UNL     1      66.210   5.824  13.994  1.00  0.00    -0.352 N
HETATM   16  C19 UNL     1      66.192   4.382  13.763  1.00  0.00     0.125 C
HETATM   17  C23 UNL     1      67.397   6.386  14.553  1.00  0.00     0.125 C
HETATM   18  C20 UNL     1      67.397   3.759  14.421  1.00  0.00     0.020 C
HETATM   19  C21 UNL     1      68.695   4.378  14.004  1.00  0.00     0.003 C
HETATM   20  C22 UNL     1      68.572   5.862  13.738  1.00  0.00     0.020 C
ENDBRANCH  12  13
ENDBRANCH  10  12
ENDBRANCH   3   5
BRANCH   1  21
HETATM   21  C9  UNL     1      58.206   2.016  12.571  1.00  0.00     0.198 C
HETATM   22  N1  UNL     1      59.126   1.386  11.643  1.00  0.00    -0.372 N
HETATM   23  C8  UNL     1      58.623   0.188  11.010  1.00  0.00     0.074 A
ATOM     24  H1  UNL     1      60.056   1.759  11.452  1.00  0.00     0.160 HD
HETATM   25  C3  UNL     1      59.037  -0.224   9.776  1.00  0.00    -0.008 A
HETATM   26  C7  UNL     1      57.720  -0.545  11.760  1.00  0.00     0.113 A
HETATM   27  C4  UNL     1      58.560  -1.422   9.214  1.00  0.00     0.015 A
HETATM   28  C5  UNL     1      57.668  -2.153   9.950  1.00  0.00     0.023 A
HETATM   29  C6  UNL     1      57.249  -1.740  11.190  1.00  0.00     0.046 A
HETATM   30 BR1  UNL     1      55.992  -2.772  12.219  1.00  0.00    -0.048 Br
HETATM   31  O3  UNL     1      57.305  -0.133  12.991  1.00  0.00    -0.345 OA
HETATM   32  C25 UNL     1      57.778   1.020  13.624  1.00  0.00     0.210 C
BRANCH  25  33
HETATM   33  C2  UNL     1      59.983   0.538   9.006  1.00  0.00     0.003 C
HETATM   34  C1  UNL     1      61.271   0.423   9.086  1.00  0.00     0.012 C
ENDBRANCH  25  33
ENDBRANCH   1  21
TORSDOF 5
ENDMDL