MODEL 5
REMARK VINA RESULT: -7.223071586      2.549      3.905
REMARK  7 active torsions:
REMARK  status: ('A' for Active; 'I' for Inactive)
REMARK    1  A    between atoms: C2_2  and  N1_4
REMARK       I    between atoms: N1_4  and  C4_6
REMARK       I    between atoms: C4_6  and  N2_8
REMARK    2  A    between atoms: N2_8  and  C5_10
REMARK    3  A    between atoms: C5_10  and  C8_13
REMARK       I    between atoms: C8_13  and  N3_15
REMARK    4  A    between atoms: N3_15  and  C9_17
REMARK    5  A    between atoms: C9_17  and  C11_19
REMARK       I    between atoms: C11_19  and  N4_21
REMARK    6  A    between atoms: N4_21  and  C12_23
REMARK    7  A    between atoms: C19_30  and  O4_31
ROOT
HETATM    1  C9  UNL     1      23.854  11.761  33.449  1.00  0.00     0.172 C
HETATM    2  C10 UNL     1      22.694  10.796  33.734  1.00  0.00     0.042 C
ENDROOT
BRANCH   1   3
HETATM    3  N3  UNL     1      23.265  12.925  32.829  1.00  0.00    -0.346 N
HETATM    4  C8  UNL     1      23.873  14.193  33.060  1.00  0.00     0.246 C
HETATM    5  O2  UNL     1      24.896  14.318  33.782  1.00  0.00    -0.271 OA
ATOM      6  H3  UNL     1      22.436  12.841  32.240  1.00  0.00     0.163 HD
BRANCH   4   7
HETATM    7  C5  UNL     1      23.226  15.364  32.397  1.00  0.00     0.108 C
HETATM    8  C6  UNL     1      24.033  16.585  32.837  1.00  0.00     0.049 C
HETATM    9  C7  UNL     1      23.369  15.146  30.900  1.00  0.00     0.049 C
BRANCH   7  10
HETATM   10  N2  UNL     1      21.866  15.534  32.797  1.00  0.00    -0.326 N
HETATM   11  C4  UNL     1      21.255  16.804  32.710  1.00  0.00     0.317 C
HETATM   12  N1  UNL     1      19.915  17.011  33.095  1.00  0.00    -0.339 N
HETATM   13  O1  UNL     1      21.927  17.769  32.276  1.00  0.00    -0.247 OA
ATOM     14  H1  UNL     1      19.393  16.207  33.444  1.00  0.00     0.164 HD
ATOM     15  H2  UNL     1      21.334  14.737  33.148  1.00  0.00     0.165 HD
BRANCH  12  16
HETATM   16  C2  UNL     1      19.232  18.269  33.033  1.00  0.00     0.078 C
HETATM   17  C1  UNL     1      19.319  19.059  34.308  1.00  0.00     0.032 C
HETATM   18  C3  UNL     1      17.763  18.037  32.659  1.00  0.00     0.032 C
ENDBRANCH  12  16
ENDBRANCH   7  10
ENDBRANCH   4   7
ENDBRANCH   1   3
BRANCH   1  19
HETATM   19  C11 UNL     1      24.839  11.149  32.547  1.00  0.00     0.240 C
HETATM   20  O3  UNL     1      25.149  11.675  31.437  1.00  0.00    -0.271 OA
HETATM   21  N4  UNL     1      25.497   9.930  32.874  1.00  0.00    -0.354 N
ATOM     22  H4  UNL     1      25.268   9.483  33.761  1.00  0.00     0.162 HD
BRANCH  21  23
HETATM   23  C12 UNL     1      26.460   9.296  32.031  1.00  0.00     0.092 C
HETATM   24  C13 UNL     1      25.855   8.233  31.143  1.00  0.00     0.012 C
HETATM   25  C14 UNL     1      25.494   6.985  31.905  1.00  0.00     0.011 C
HETATM   26  C21 UNL     1      26.879   7.889  30.083  1.00  0.00     0.044 C
HETATM   27  C15 UNL     1      26.749   6.425  32.565  1.00  0.00    -0.011 C
HETATM   28  C16 UNL     1      27.235   7.463  33.538  1.00  0.00     0.011 C
HETATM   29  C20 UNL     1      27.772   6.116  31.500  1.00  0.00     0.042 C
HETATM   30  C17 UNL     1      27.617   8.698  32.764  1.00  0.00     0.012 C
HETATM   31  C18 UNL     1      28.695   8.363  31.732  1.00  0.00     0.044 C
HETATM   32  C19 UNL     1      28.141   7.371  30.750  1.00  0.00     0.059 C
BRANCH  32  33
HETATM   33  O4  UNL     1      29.050   7.095  29.754  1.00  0.00    -0.390 OA
ATOM     34  H4  UNL     1      29.367   6.201  29.815  1.00  0.00     0.210 HD
ENDBRANCH  32  33
ENDBRANCH  21  23
ENDBRANCH   1  19
TORSDOF 7
ENDMDL