MODEL 4
REMARK VINA RESULT: -6.993553531      1.662      2.001
REMARK  7 active torsions:
REMARK  status: ('A' for Active; 'I' for Inactive)
REMARK    1  A    between atoms: C2_2  and  C4_4
REMARK    2  A    between atoms: C4_4  and  N1_5
REMARK    3  A    between atoms: C4_4  and  C5_9
REMARK       I    between atoms: C5_9  and  N2_11
REMARK    4  A    between atoms: N2_11  and  C6_13
REMARK    5  A    between atoms: C6_13  and  C7_14
REMARK       I    between atoms: C7_14  and  N3_16
REMARK    6  A    between atoms: N3_16  and  C8_18
REMARK    7  A    between atoms: C11_21  and  N4_22
ROOT
HETATM    1  C6  UNL     1      24.548  17.541  31.107  1.00  0.00     0.117 C
HETATM    2  C16 UNL     1      25.506  17.840  32.286  1.00  0.00     0.046 C
HETATM    3  C17 UNL     1      26.416  18.932  31.713  1.00  0.00    -0.011 C
HETATM    4  C18 UNL     1      25.643  20.137  31.283  1.00  0.00     0.005 C
HETATM    5  C19 UNL     1      24.898  19.693  30.034  1.00  0.00     0.008 C
HETATM    6  C20 UNL     1      25.198  18.193  29.947  1.00  0.00     0.024 C
HETATM    7  C21 UNL     1      26.668  18.265  30.346  1.00  0.00     0.012 C
ENDROOT
BRANCH   1   8
HETATM    8  N2  UNL     1      23.274  18.125  31.493  1.00  0.00    -0.341 N
HETATM    9  C5  UNL     1      22.577  17.644  32.632  1.00  0.00     0.249 C
HETATM   10  O1  UNL     1      23.083  16.684  33.328  1.00  0.00    -0.271 OA
ATOM     11  H2  UNL     1      22.877  18.885  30.940  1.00  0.00     0.163 HD
BRANCH   9  12
HETATM   12  C4  UNL     1      21.282  18.174  33.095  1.00  0.00     0.278 C
BRANCH  12  13
HETATM   13  C2  UNL     1      20.267  17.097  33.427  1.00  0.00     0.017 C
HETATM   14  C1  UNL     1      18.975  17.855  33.784  1.00  0.00     0.012 C
HETATM   15  C3  UNL     1      19.885  16.251  32.230  1.00  0.00     0.012 C
ENDBRANCH  12  13
BRANCH  12  16
HETATM   16  N1  UNL     1      21.499  18.877  34.374  1.00  0.00    -0.066 N
ATOM     17  H13 UNL     1      22.477  18.941  34.656  1.00  0.00     0.275 HD
ATOM     18  H12 UNL     1      21.329  19.882  34.332  1.00  0.00     0.275 HD
ATOM     19  H11 UNL     1      20.905  18.380  35.037  1.00  0.00     0.275 HD
ENDBRANCH  12  16
ENDBRANCH   9  12
ENDBRANCH   1   8
BRANCH   1  20
HETATM   20  C7  UNL     1      24.371  16.073  30.969  1.00  0.00     0.246 C
HETATM   21  O2  UNL     1      23.620  15.685  30.010  1.00  0.00    -0.271 OA
HETATM   22  N3  UNL     1      24.939  15.081  31.769  1.00  0.00    -0.354 N
ATOM     23  H3  UNL     1      25.551  15.362  32.535  1.00  0.00     0.162 HD
BRANCH  22  24
HETATM   24  C8  UNL     1      24.692  13.644  31.556  1.00  0.00     0.085 C
HETATM   25  C9  UNL     1      23.654  13.176  32.498  1.00  0.00     0.027 C
HETATM   26  C10 UNL     1      24.186  12.584  33.781  1.00  0.00     0.027 C
HETATM   27  C11 UNL     1      25.201  11.547  33.403  1.00  0.00     0.087 C
HETATM   28  C13 UNL     1      26.402  12.325  32.854  1.00  0.00     0.006 C
HETATM   29  C14 UNL     1      27.604  11.434  32.684  1.00  0.00     0.012 C
HETATM   30  C15 UNL     1      25.965  12.844  31.519  1.00  0.00     0.031 C
BRANCH  27  31
HETATM   31  N4  UNL     1      25.541  10.594  34.377  1.00  0.00    -0.362 N
HETATM   32  C12 UNL     1      24.847   9.800  35.061  1.00  0.00     0.197 C
HETATM   33  N5  UNL     1      25.478   8.933  35.988  1.00  0.00    -0.067 NA
HETATM   34  N6  UNL     1      23.439   9.760  34.919  1.00  0.00    -0.067 NA
ATOM     35  H4  UNL     1      26.541  10.535  34.566  1.00  0.00     0.162 HD
ENDBRANCH  27  31
ENDBRANCH  22  24
ENDBRANCH   1  20
TORSDOF 7
ENDMDL