MODEL 3
REMARK VINA RESULT: -7.246628469      3.054      5.718
REMARK  7 active torsions:
REMARK  status: ('A' for Active; 'I' for Inactive)
REMARK    1  A    between atoms: C2_2  and  C4_4
REMARK    2  A    between atoms: C15_18  and  C16_19
REMARK    3  A    between atoms: C16_19  and  N2_20
REMARK    4  A    between atoms: N2_20  and  S1_22
REMARK    5  A    between atoms: S1_22  and  N3_25
REMARK    6  A    between atoms: N3_25  and  C17_27
REMARK    7  A    between atoms: C17_27  and  O4_28
ROOT
HETATM    1  C4  UNL     1      21.301  17.253  32.988  1.00  0.00     0.179 C
HETATM    2  N1  UNL     1      22.318  18.273  33.147  1.00  0.00    -0.347 N
ATOM      3  H1  UNL     1      22.189  19.103  32.568  1.00  0.00     0.163 HD
HETATM    4  C5  UNL     1      23.436  18.296  33.962  1.00  0.00     0.218 C
HETATM    5  O1  UNL     1      24.525  18.668  33.429  1.00  0.00    -0.274 OA
HETATM    6  C6  UNL     1      23.470  18.057  35.415  1.00  0.00     0.103 C
HETATM    7  C7  UNL     1      24.872  18.008  35.935  1.00  0.00     0.009 C
HETATM    8  C8  UNL     1      25.394  16.590  35.748  1.00  0.00     0.000 C
HETATM    9  C9  UNL     1      26.893  16.562  35.588  1.00  0.00     0.000 C
HETATM   10  C10 UNL     1      27.271  15.124  35.257  1.00  0.00     0.000 C
HETATM   11  C11 UNL     1      26.745  14.717  33.885  1.00  0.00     0.000 C
HETATM   12  C12 UNL     1      25.830  13.544  34.073  1.00  0.00     0.000 C
HETATM   13  C13 UNL     1      24.877  13.304  32.937  1.00  0.00     0.002 C
HETATM   14  C14 UNL     1      24.983  14.262  31.813  1.00  0.00     0.027 C
HETATM   15  C15 UNL     1      24.019  15.451  31.858  1.00  0.00     0.103 C
HETATM   16  N4  UNL     1      23.212  15.486  33.005  1.00  0.00    -0.353 N
ATOM     17  H4  UNL     1      23.666  15.178  33.866  1.00  0.00     0.163 HD
HETATM   18  C18 UNL     1      21.877  15.880  33.143  1.00  0.00     0.241 C
HETATM   19  O5  UNL     1      21.038  14.978  33.479  1.00  0.00    -0.271 OA
ENDROOT
BRANCH  15  20
HETATM   20  C16 UNL     1      23.328  15.495  30.511  1.00  0.00     0.158 C
BRANCH  20  21
HETATM   21  N2  UNL     1      24.160  16.096  29.500  1.00  0.00    -0.301 N
ATOM     22  H2  UNL     1      24.360  15.672  28.594  1.00  0.00     0.173 HD
BRANCH  21  23
HETATM   23  S1  UNL     1      24.754  17.568  29.996  1.00  0.00     0.316 S
HETATM   24  O2  UNL     1      25.370  18.248  28.718  1.00  0.00    -0.183 OA
HETATM   25  O3  UNL     1      23.666  18.562  30.390  1.00  0.00    -0.183 OA
BRANCH  23  26
HETATM   26  N3  UNL     1      26.058  17.574  31.090  1.00  0.00    -0.281 N
ATOM     27  H3  UNL     1      26.262  16.902  31.829  1.00  0.00     0.176 HD
BRANCH  26  28
HETATM   28  C17 UNL     1      26.812  18.755  30.727  1.00  0.00     0.300 C
BRANCH  28  29
HETATM   29  O4  UNL     1      26.075  19.884  31.138  1.00  0.00    -0.382 OA
ATOM     30  H4  UNL     1      25.371  20.017  30.514  1.00  0.00     0.211 HD
ENDBRANCH  28  29
ENDBRANCH  26  28
ENDBRANCH  23  26
ENDBRANCH  21  23
ENDBRANCH  20  21
ENDBRANCH  15  20
BRANCH   1  31
HETATM   31  C2  UNL     1      20.124  17.493  33.872  1.00  0.00     0.009 C
HETATM   32  C1  UNL     1      18.811  17.058  33.236  1.00  0.00     0.012 C
HETATM   33  C3  UNL     1      19.945  18.837  34.464  1.00  0.00     0.012 C
ENDBRANCH   1  31
TORSDOF 7
ENDMDL