MODEL 3
REMARK VINA RESULT: -6.958838407      1.573      3.060
REMARK  10 active torsions:
REMARK  status: ('A' for Active; 'I' for Inactive)
REMARK    1  A    between atoms: C2_2  and  N1_3
REMARK    2  A    between atoms: N1_3  and  C3_5
REMARK    3  A    between atoms: C3_5  and  C4_6
REMARK    4  A    between atoms: C3_5  and  C5_9
REMARK    5  A    between atoms: C4_6  and  O1_7
REMARK    6  A    between atoms: C7_13  and  N3_14
REMARK    7  A    between atoms: N3_14  and  C8_16
REMARK    8  A    between atoms: C8_16  and  C9_17
REMARK       I    between atoms: N4_21  and  C13_22
REMARK       I    between atoms: C13_22  and  N5_24
REMARK    9  A    between atoms: C18_31  and  N7_32
REMARK   10  A    between atoms: N7_32  and  C19_34
ROOT
HETATM    1  C5  UNL     1      25.669  11.207  33.520  1.00  0.00     0.049 A
HETATM    2  C6  UNL     1      26.171  12.401  33.946  1.00  0.00     0.123 A
HETATM    3  N2  UNL     1      26.324  13.459  33.081  1.00  0.00    -0.201 N
ATOM      4  H2  UNL     1      26.704  14.334  33.441  1.00  0.00     0.183 HD
HETATM    5  C7  UNL     1      25.996  13.385  31.801  1.00  0.00     0.683 A
HETATM    6  N6  UNL     1      25.495  12.188  31.374  1.00  0.00    -0.176 N
ATOM      7  H6  UNL     1      25.235  12.103  30.392  1.00  0.00     0.186 HD
HETATM    8  C18 UNL     1      25.321  11.110  32.167  1.00  0.00     0.131 A
ENDROOT
BRANCH   5   9
HETATM    9  N3  UNL     1      26.030  14.416  30.955  1.00  0.00    -0.205 N
ATOM     10  H3  UNL     1      26.826  15.054  30.985  1.00  0.00     0.183 HD
BRANCH   9  11
HETATM   11  C8  UNL     1      25.015  14.646  30.036  1.00  0.00     0.085 C
BRANCH  11  12
HETATM   12  C9  UNL     1      23.987  15.702  30.110  1.00  0.00     0.043 C
HETATM   13  C10 UNL     1      24.831  16.952  30.582  1.00  0.00     0.013 C
HETATM   14  C11 UNL     1      23.940  18.110  30.756  1.00  0.00     0.021 C
HETATM   15  C12 UNL     1      23.072  17.808  31.995  1.00  0.00     0.127 C
HETATM   16  N4  UNL     1      22.310  16.626  31.732  1.00  0.00    -0.333 N
HETATM   17  C13 UNL     1      20.975  16.505  32.252  1.00  0.00     0.320 C
HETATM   18  C17 UNL     1      22.875  15.492  31.021  1.00  0.00     0.137 C
HETATM   19  O2  UNL     1      20.278  15.549  31.797  1.00  0.00    -0.247 OA
HETATM   20  N5  UNL     1      20.466  17.399  33.219  1.00  0.00    -0.334 N
HETATM   21  C14 UNL     1      20.748  18.463  34.103  1.00  0.00     0.129 C
HETATM   22  C16 UNL     1      19.039  17.539  33.683  1.00  0.00     0.129 C
HETATM   23  C15 UNL     1      19.337  19.006  33.874  1.00  0.00     0.040 C
ENDBRANCH  11  12
ENDBRANCH   9  11
ENDBRANCH   5   9
BRANCH   8  24
HETATM   24  N7  UNL     1      24.952   9.962  31.796  1.00  0.00    -0.371 N
ATOM     25  H7  UNL     1      24.020   9.762  32.159  1.00  0.00     0.161 HD
BRANCH  24  26
HETATM   26  C19 UNL     1      25.411   8.885  31.051  1.00  0.00     0.075 C
HETATM   27  C20 UNL     1      25.188   7.573  31.849  1.00  0.00     0.031 C
HETATM   28  C21 UNL     1      26.960   8.906  30.892  1.00  0.00     0.031 C
ENDBRANCH  24  26
ENDBRANCH   8  24
BRANCH   1  29
HETATM   29  C3  UNL     1      25.337  10.175  34.535  1.00  0.00     0.044 C
BRANCH  29  30
HETATM   30  N1  UNL     1      26.372   9.689  35.308  1.00  0.00    -0.391 N
ATOM     31  H1  UNL     1      27.166  10.260  35.597  1.00  0.00     0.159 HD
BRANCH  30  32
HETATM   32  C2  UNL     1      26.223   8.269  35.676  1.00  0.00     0.115 C
HETATM   33  C1  UNL     1      27.512   7.539  35.827  1.00  0.00     0.026 C
ENDBRANCH  30  32
ENDBRANCH  29  30
BRANCH  29  34
HETATM   34  C4  UNL     1      23.909  10.185  34.940  1.00  0.00     0.221 C
BRANCH  34  35
HETATM   35  O1  UNL     1      23.139   9.240  34.297  1.00  0.00    -0.395 OA
ATOM     36  H1  UNL     1      22.301   9.076  34.715  1.00  0.00     0.209 HD
ENDBRANCH  34  35
ENDBRANCH  29  34
ENDBRANCH   1  29
TORSDOF 10
ENDMDL