MODEL 3
REMARK VINA RESULT: -7.250488804      2.889     10.255
REMARK  7 active torsions:
REMARK  status: ('A' for Active; 'I' for Inactive)
REMARK    1  A    between atoms: C2_2  and  C3_3
REMARK    2  A    between atoms: C3_3  and  N1_4
REMARK    3  A    between atoms: C3_3  and  C19_27
REMARK       I    between atoms: N1_4  and  C4_6
REMARK       I    between atoms: C4_6  and  N2_8
REMARK    4  A    between atoms: C7_11  and  N3_12
REMARK    5  A    between atoms: C10_15  and  N4_16
REMARK       I    between atoms: N4_16  and  C11_18
REMARK    6  A    between atoms: C11_18  and  C12_20
REMARK    7  A    between atoms: C20_30  and  N6_31
ROOT
HETATM    1  N1  UNL     1      21.302  17.436  33.334  1.00  0.00    -0.328 N
ATOM      2  H1  UNL     1      21.605  17.538  34.303  1.00  0.00     0.165 HD
HETATM    3  C4  UNL     1      22.252  17.117  32.335  1.00  0.00     0.319 C
HETATM    4  O1  UNL     1      21.892  16.986  31.114  1.00  0.00    -0.247 OA
HETATM    5  N2  UNL     1      23.603  16.935  32.648  1.00  0.00    -0.334 N
HETATM    6  C5  UNL     1      24.192  17.038  33.958  1.00  0.00     0.129 C
HETATM    7  C6  UNL     1      24.773  15.668  34.345  1.00  0.00     0.056 C
HETATM    8  C7  UNL     1      25.621  15.157  33.202  1.00  0.00     0.226 C
HETATM    9  C17 UNL     1      25.847  16.237  32.167  1.00  0.00     0.056 C
HETATM   10  C18 UNL     1      24.523  16.611  31.564  1.00  0.00     0.129 C
ENDROOT
BRANCH   1  11
HETATM   11  C3  UNL     1      19.881  17.625  32.992  1.00  0.00     0.178 C
BRANCH  11  12
HETATM   12  C2  UNL     1      19.124  16.421  33.350  1.00  0.00    -0.004 C
HETATM   13  C1  UNL     1      19.612  15.201  33.258  1.00  0.00     0.009 C
ENDBRANCH  11  12
BRANCH  11  14
HETATM   14  C19 UNL     1      19.400  18.844  33.679  1.00  0.00     0.139 A
HETATM   15  N5  UNL     1      18.839  19.915  33.091  1.00  0.00    -0.176 N
HETATM   16  C20 UNL     1      18.519  20.851  34.023  1.00  0.00     0.692 A
ATOM     17  H5  UNL     1      18.677  20.011  32.089  1.00  0.00     0.185 HD
HETATM   18  N7  UNL     1      18.898  20.324  35.196  1.00  0.00    -0.131 N
HETATM   19  N8  UNL     1      19.422  19.129  34.988  1.00  0.00    -0.272 N
ATOM     20  H7  UNL     1      18.798  20.775  36.106  1.00  0.00     0.205 HD
ATOM     21  H8  UNL     1      19.788  18.515  35.716  1.00  0.00     0.189 HD
BRANCH  16  22
HETATM   22  N6  UNL     1      17.966  22.002  33.817  1.00  0.00    -0.233 N
ATOM     23  H62 UNL     1      17.704  22.415  32.921  1.00  0.00     0.174 HD
ATOM     24  H61 UNL     1      17.700  22.693  34.518  1.00  0.00     0.174 HD
ENDBRANCH  16  22
ENDBRANCH  11  14
ENDBRANCH   1  11
BRANCH   8  25
HETATM   25  N3  UNL     1      24.993  14.032  32.534  1.00  0.00     0.095 N
HETATM   26  C8  UNL     1      23.919  13.482  33.352  1.00  0.00     0.275 C
HETATM   27  C9  UNL     1      23.726  12.113  32.757  1.00  0.00     0.057 C
HETATM   28  C10 UNL     1      25.119  11.692  32.377  1.00  0.00     0.114 C
HETATM   29  C16 UNL     1      25.981  12.939  32.480  1.00  0.00     0.298 C
BRANCH  28  30
HETATM   30  N4  UNL     1      25.546  10.674  33.346  1.00  0.00    -0.354 N
HETATM   31  C11 UNL     1      25.480   9.320  32.994  1.00  0.00     0.222 C
HETATM   32  O2  UNL     1      25.058   8.980  31.854  1.00  0.00    -0.273 OA
ATOM     33  H4  UNL     1      25.886  10.951  34.267  1.00  0.00     0.162 HD
BRANCH  31  34
HETATM   34  C12 UNL     1      25.910   8.291  33.966  1.00  0.00     0.078 C
HETATM   35  C13 UNL     1      24.965   8.046  35.125  1.00  0.00     0.014 C
HETATM   36  C14 UNL     1      25.327   6.558  34.997  1.00  0.00     0.002 C
HETATM   37  C15 UNL     1      25.584   6.859  33.515  1.00  0.00     0.014 C
ENDBRANCH  31  34
ENDBRANCH  28  30
ENDBRANCH   8  25
TORSDOF 7
ENDMDL