MODEL 5
REMARK VINA RESULT: -7.288549671      2.836      6.272
REMARK  7 active torsions:
REMARK  status: ('A' for Active; 'I' for Inactive)
REMARK    1  A    between atoms: C2_2  and  N1_3
REMARK    2  A    between atoms: C2_2  and  C17_29
REMARK       I    between atoms: N1_3  and  C3_5
REMARK       I    between atoms: C3_5  and  N2_7
REMARK    3  A    between atoms: N2_7  and  C4_9
REMARK    4  A    between atoms: C10_15  and  O2_16
REMARK    5  A    between atoms: C13_20  and  N3_21
REMARK    6  A    between atoms: N3_21  and  S1_23
REMARK    7  A    between atoms: S1_23  and  C14_26
ROOT
HETATM    1  C4  UNL     1      24.766  15.923  31.494  1.00  0.00     0.059 C
HETATM    2  C5  UNL     1      26.010  16.301  32.269  1.00  0.00     0.038 C
HETATM    3  C6  UNL     1      26.256  17.774  32.173  1.00  0.00    -0.009 C
HETATM    4  C7  UNL     1      25.075  18.553  32.724  1.00  0.00     0.011 C
HETATM    5  C8  UNL     1      23.891  18.196  31.868  1.00  0.00     0.014 C
HETATM    6  C9  UNL     1      24.159  18.644  30.469  1.00  0.00     0.044 C
HETATM    7  C10 UNL     1      25.314  17.827  29.927  1.00  0.00     0.061 C
HETATM    8  C11 UNL     1      26.541  18.155  30.747  1.00  0.00     0.042 C
HETATM    9  C12 UNL     1      25.049  16.365  30.034  1.00  0.00     0.071 C
HETATM   10  C13 UNL     1      23.562  16.709  31.896  1.00  0.00     0.125 C
ENDROOT
BRANCH   1  11
HETATM   11  N2  UNL     1      24.586  14.510  31.440  1.00  0.00    -0.332 N
HETATM   12  C3  UNL     1      24.723  13.571  32.473  1.00  0.00     0.317 C
HETATM   13  N1  UNL     1      24.509  12.176  32.312  1.00  0.00    -0.329 N
HETATM   14  O1  UNL     1      25.052  13.943  33.624  1.00  0.00    -0.247 OA
ATOM     15  H1  UNL     1      24.239  11.841  31.387  1.00  0.00     0.165 HD
ATOM     16  H2  UNL     1      24.322  14.131  30.531  1.00  0.00     0.165 HD
BRANCH  13  17
HETATM   17  C2  UNL     1      24.644  11.208  33.354  1.00  0.00     0.183 C
HETATM   18  C1  UNL     1      25.330   9.957  32.926  1.00  0.00     0.043 C
BRANCH  17  19
HETATM   19  C17 UNL     1      23.360  10.891  34.023  1.00  0.00     0.196 C
HETATM   20  O5  UNL     1      22.302  11.508  33.751  1.00  0.00    -0.646 OA
HETATM   21  O6  UNL     1      23.300   9.890  34.979  1.00  0.00    -0.646 OA
ENDBRANCH  17  19
ENDBRANCH  13  17
ENDBRANCH   1  11
BRANCH  10  22
HETATM   22  N3  UNL     1      22.925  16.354  33.102  1.00  0.00    -0.312 N
ATOM     23  H3  UNL     1      23.432  16.328  33.986  1.00  0.00     0.172 HD
BRANCH  22  24
HETATM   24  S1  UNL     1      21.269  15.972  33.016  1.00  0.00     0.230 S
HETATM   25  O3  UNL     1      21.020  14.657  33.752  1.00  0.00    -0.206 OA
HETATM   26  O4  UNL     1      20.804  15.822  31.573  1.00  0.00    -0.206 OA
BRANCH  24  27
HETATM   27  C14 UNL     1      20.198  17.164  33.776  1.00  0.00     0.121 C
HETATM   28  C15 UNL     1      20.820  18.512  33.973  1.00  0.00     0.027 C
HETATM   29  C16 UNL     1      19.062  17.386  32.743  1.00  0.00     0.027 C
ENDBRANCH  24  27
ENDBRANCH  22  24
ENDBRANCH  10  22
BRANCH   7  30
HETATM   30  O2  UNL     1      25.581  18.122  28.606  1.00  0.00    -0.390 OA
ATOM     31  H2  UNL     1      25.658  17.338  28.075  1.00  0.00     0.210 HD
ENDBRANCH   7  30
TORSDOF 7
ENDMDL