MODEL 5
REMARK VINA RESULT: -7.715871892      3.803      9.262
REMARK  6 active torsions:
REMARK  status: ('A' for Active; 'I' for Inactive)
REMARK       I    between atoms: N1_2  and  C2_4
REMARK       I    between atoms: C2_4  and  N2_6
REMARK    1  A    between atoms: C8_12  and  C9_13
REMARK    2  A    between atoms: C9_13  and  N3_14
REMARK       I    between atoms: N3_14  and  C10_16
REMARK       I    between atoms: N6_22  and  C11_23
REMARK       I    between atoms: C11_23  and  N7_25
REMARK    3  A    between atoms: N7_25  and  C12_27
REMARK    4  A    between atoms: C12_27  and  C13_28
REMARK    5  A    between atoms: C13_28  and  C14_29
REMARK    6  A    between atoms: C14_29  and  C15_30
ROOT
HETATM    1  C1  UNL     1      24.401  19.944  37.186  1.00  0.00     0.151 C
HETATM    2  N1  UNL     1      24.259  19.202  35.957  1.00  0.00    -0.347 N
ATOM      3  H1  UNL     1      23.722  19.603  35.188  1.00  0.00     0.163 HD
HETATM    4  C2  UNL     1      24.849  17.939  35.802  1.00  0.00     0.317 C
HETATM    5  O1  UNL     1      25.511  17.464  36.772  1.00  0.00    -0.247 OA
HETATM    6  N2  UNL     1      24.719  17.182  34.585  1.00  0.00    -0.334 N
HETATM    7  C3  UNL     1      25.376  15.883  34.532  1.00  0.00     0.129 C
HETATM    8  C4  UNL     1      25.615  15.612  33.057  1.00  0.00     0.048 C
HETATM    9  C5  UNL     1      24.267  15.493  32.418  1.00  0.00     0.127 C
HETATM   10  C6  UNL     1      23.711  16.913  32.329  1.00  0.00     0.032 C
HETATM   11  C7  UNL     1      22.228  16.821  32.027  1.00  0.00     0.044 C
HETATM   12  C8  UNL     1      21.489  15.878  32.944  1.00  0.00     0.170 C
HETATM   13  O2  UNL     1      22.369  15.309  33.873  1.00  0.00    -0.267 OA
HETATM   14  N6  UNL     1      23.324  14.697  33.141  1.00  0.00    -0.202 N
HETATM   15  C11 UNL     1      23.362  13.280  33.091  1.00  0.00     0.342 C
HETATM   16  O3  UNL     1      22.494  12.642  33.784  1.00  0.00    -0.245 OA
HETATM   17  N7  UNL     1      24.314  12.625  32.310  1.00  0.00    -0.341 N
ATOM     18  H7  UNL     1      24.971  13.189  31.770  1.00  0.00     0.164 HD
HETATM   19  C20 UNL     1      23.963  17.754  33.524  1.00  0.00     0.134 C
ENDROOT
BRANCH  12  20
HETATM   20  C9  UNL     1      20.351  16.607  33.585  1.00  0.00     0.156 C
BRANCH  20  21
HETATM   21  N3  UNL     1      19.578  17.374  32.628  1.00  0.00    -0.362 N
HETATM   22  C10 UNL     1      18.544  18.202  33.115  1.00  0.00     0.181 C
HETATM   23  N4  UNL     1      18.736  18.903  34.167  1.00  0.00    -0.374 N
HETATM   24  N5  UNL     1      17.306  18.251  32.441  1.00  0.00    -0.064 NA
ATOM     25  H42 UNL     1      19.632  18.867  34.654  1.00  0.00     0.158 HD
ATOM     26  H41 UNL     1      17.989  19.501  34.519  1.00  0.00     0.158 HD
ATOM     27  H3  UNL     1      19.775  17.317  31.628  1.00  0.00     0.162 HD
ENDBRANCH  20  21
ENDBRANCH  12  20
BRANCH  17  28
HETATM   28  C12 UNL     1      24.413  11.195  32.229  1.00  0.00     0.124 C
BRANCH  28  29
HETATM   29  C13 UNL     1      25.778  10.739  32.613  1.00  0.00     0.020 C
BRANCH  29  30
HETATM   30  C14 UNL     1      26.881  11.677  32.489  1.00  0.00     0.006 C
BRANCH  30  31
HETATM   31  C15 UNL     1      27.629  11.990  31.298  1.00  0.00    -0.014 C
HETATM   32  C16 UNL     1      27.478  11.113  30.098  1.00  0.00     0.004 C
HETATM   33  C17 UNL     1      27.058  11.987  28.935  1.00  0.00     0.000 C
HETATM   34  C18 UNL     1      26.593  13.252  29.597  1.00  0.00     0.000 C
HETATM   35  C19 UNL     1      27.516  13.394  30.766  1.00  0.00     0.004 C
ENDBRANCH  30  31
ENDBRANCH  29  30
ENDBRANCH  28  29
ENDBRANCH  17  28
TORSDOF 6
ENDMDL