MODEL 4
REMARK VINA RESULT: -6.559142276      2.429      4.509
REMARK  7 active torsions:
REMARK  status: ('A' for Active; 'I' for Inactive)
REMARK    1  A    between atoms: C1_2  and  C2_4
REMARK    2  A    between atoms: C2_4  and  N2_5
REMARK    3  A    between atoms: C10_16  and  C11_17
REMARK    4  A    between atoms: C11_17  and  C12_18
REMARK    5  A    between atoms: C12_18  and  C13_19
REMARK    6  A    between atoms: C13_19  and  C14_20
REMARK    7  A    between atoms: C14_20  and  O3_21
ROOT
HETATM    1  N2  UNL     1      27.579  15.059  32.049  1.00  0.00    -0.340 N
HETATM    2  C3  UNL     1      27.050  14.723  30.747  1.00  0.00     0.126 C
HETATM    3  C4  UNL     1      26.963  15.940  29.843  1.00  0.00     0.020 C
HETATM    4  C5  UNL     1      26.473  17.170  30.569  1.00  0.00     0.002 C
HETATM    5  C6  UNL     1      25.933  18.123  29.561  1.00  0.00     0.002 C
HETATM    6  C7  UNL     1      24.738  18.911  30.035  1.00  0.00     0.020 C
HETATM    7  C8  UNL     1      23.732  18.090  30.759  1.00  0.00     0.122 C
HETATM    8  N3  UNL     1      23.679  18.470  32.164  1.00  0.00    -0.359 N
ATOM      9  H3  UNL     1      24.193  19.300  32.460  1.00  0.00     0.162 HD
HETATM   10  C9  UNL     1      22.953  17.749  33.141  1.00  0.00     0.248 C
HETATM   11  O2  UNL     1      22.479  18.359  34.135  1.00  0.00    -0.271 OA
HETATM   12  C10 UNL     1      22.703  16.285  33.076  1.00  0.00     0.277 C
HETATM   13  N4  UNL     1      23.701  15.637  33.873  1.00  0.00    -0.054 N
ATOM     14  H41 UNL     1      23.299  15.249  34.727  1.00  0.00     0.279 HD
ATOM     15  H42 UNL     1      24.339  16.314  34.289  1.00  0.00     0.279 HD
HETATM   16  C15 UNL     1      24.435  14.606  33.107  1.00  0.00     0.221 C
HETATM   17  C16 UNL     1      23.505  13.409  33.106  1.00  0.00     0.038 C
HETATM   18  C17 UNL     1      24.101  12.177  32.545  1.00  0.00     0.003 C
HETATM   19  C18 UNL     1      25.528  11.935  32.859  1.00  0.00     0.004 C
HETATM   20  C19 UNL     1      26.001  12.816  33.953  1.00  0.00     0.042 C
HETATM   21  C20 UNL     1      25.756  14.293  33.753  1.00  0.00     0.018 C
HETATM   22  C21 UNL     1      26.902  15.069  33.285  1.00  0.00     0.248 C
HETATM   23  O4  UNL     1      27.423  15.929  34.108  1.00  0.00    -0.268 OA
ENDROOT
BRANCH  12  24
HETATM   24  C11 UNL     1      21.298  16.038  33.558  1.00  0.00     0.043 C
BRANCH  24  25
HETATM   25  C12 UNL     1      20.345  16.498  32.488  1.00  0.00     0.004 C
BRANCH  25  26
HETATM   26  C13 UNL     1      19.040  16.930  33.122  1.00  0.00     0.026 C
BRANCH  26  27
HETATM   27  C14 UNL     1      18.994  18.408  33.361  1.00  0.00     0.164 C
BRANCH  27  28
HETATM   28  O3  UNL     1      17.668  18.722  33.720  1.00  0.00    -0.401 OA
ATOM     29  H3  UNL     1      17.235  19.028  32.931  1.00  0.00     0.209 HD
ENDBRANCH  27  28
ENDBRANCH  26  27
ENDBRANCH  25  26
ENDBRANCH  24  25
ENDBRANCH  12  24
BRANCH   1  30
HETATM   30  C2  UNL     1      29.011  15.435  32.002  1.00  0.00     0.225 C
BRANCH  30  31
HETATM   31  C1  UNL     1      29.781  14.207  31.679  1.00  0.00     0.249 C
HETATM   32  N1  UNL     1      29.726  13.036  32.466  1.00  0.00    -0.061 NA
HETATM   33  O1  UNL     1      30.546  14.139  30.660  1.00  0.00    -0.275 OA
ENDBRANCH  30  31
ENDBRANCH   1  30
TORSDOF 7
ENDMDL