MODEL 4
REMARK VINA RESULT: -7.309103201      2.563      3.359
REMARK  7 active torsions:
REMARK  status: ('A' for Active; 'I' for Inactive)
REMARK    1  A    between atoms: C2_2  and  C3_3
REMARK    2  A    between atoms: C4_4  and  N1_5
REMARK       I    between atoms: N1_5  and  C5_7
REMARK    3  A    between atoms: C5_7  and  C6_9
REMARK    4  A    between atoms: C6_9  and  N2_10
REMARK       I    between atoms: N2_10  and  C7_12
REMARK    5  A    between atoms: C7_12  and  C8_14
REMARK    6  A    between atoms: C8_14  and  N3_15
REMARK    7  A    between atoms: C15_27  and  O3_28
ROOT
HETATM    1  C3  UNL     1      23.897  17.758  31.062  1.00  0.00     0.015 C
HETATM    2  C4  UNL     1      24.235  17.692  32.552  1.00  0.00     0.093 C
HETATM    3  C9  UNL     1      25.440  18.573  32.173  1.00  0.00     0.016 C
HETATM    4  C10 UNL     1      26.600  18.294  33.030  1.00  0.00     0.014 C
HETATM    5  C11 UNL     1      27.942  18.722  32.433  1.00  0.00     0.013 C
HETATM    6  C12 UNL     1      27.886  20.113  31.858  1.00  0.00     0.077 C
HETATM    7  C13 UNL     1      27.154  21.075  32.756  1.00  0.00     0.032 C
HETATM    8  N4  UNL     1      27.453  20.195  30.522  1.00  0.00    -0.410 N
ATOM      9  H4  UNL     1      27.263  21.108  30.108  1.00  0.00     0.154 HD
HETATM   10  C14 UNL     1      27.281  19.042  29.758  1.00  0.00     0.110 C
HETATM   11  C15 UNL     1      25.781  18.703  29.738  1.00  0.00     0.145 C
HETATM   12  C16 UNL     1      25.421  17.809  30.865  1.00  0.00     0.028 C
HETATM   13  C17 UNL     1      28.032  17.831  30.084  1.00  0.00     0.019 C
HETATM   14  C18 UNL     1      29.363  17.656  29.364  1.00  0.00    -0.008 C
HETATM   15  C19 UNL     1      30.338  18.750  29.648  1.00  0.00     0.005 C
HETATM   16  C20 UNL     1      30.817  18.446  31.043  1.00  0.00     0.005 C
HETATM   17  C21 UNL     1      29.908  17.379  31.545  1.00  0.00    -0.009 C
HETATM   18  C22 UNL     1      29.935  16.522  30.247  1.00  0.00     0.010 C
HETATM   19  C23 UNL     1      28.438  17.681  31.527  1.00  0.00     0.002 C
ENDROOT
BRANCH   2  20
HETATM   20  N1  UNL     1      23.290  18.342  33.406  1.00  0.00    -0.354 N
HETATM   21  C5  UNL     1      22.292  17.555  34.046  1.00  0.00     0.235 C
HETATM   22  O1  UNL     1      22.211  16.314  33.889  1.00  0.00    -0.272 OA
ATOM     23  H1  UNL     1      23.331  19.351  33.554  1.00  0.00     0.162 HD
BRANCH  21  24
HETATM   24  C6  UNL     1      21.308  18.222  34.935  1.00  0.00     0.225 C
BRANCH  24  25
HETATM   25  N2  UNL     1      20.383  19.028  34.169  1.00  0.00    -0.351 N
HETATM   26  C7  UNL     1      19.139  18.479  33.794  1.00  0.00     0.243 C
HETATM   27  O2  UNL     1      18.854  17.315  34.124  1.00  0.00    -0.272 OA
ATOM     28  H2  UNL     1      20.627  19.981  33.903  1.00  0.00     0.163 HD
BRANCH  26  29
HETATM   29  C8  UNL     1      18.130  19.240  33.007  1.00  0.00     0.332 C
BRANCH  29  30
HETATM   30  N3  UNL     1      17.086  19.679  33.912  1.00  0.00    -0.071 N
ATOM     31  H33 UNL     1      16.333  20.172  33.432  1.00  0.00     0.274 HD
ATOM     32  H32 UNL     1      16.534  18.905  34.279  1.00  0.00     0.274 HD
ATOM     33  H31 UNL     1      17.517  20.239  34.647  1.00  0.00     0.274 HD
ENDBRANCH  29  30
ENDBRANCH  26  29
ENDBRANCH  24  25
ENDBRANCH  21  24
ENDBRANCH   2  20
BRANCH   1  34
HETATM   34  C2  UNL     1      23.257  16.493  30.539  1.00  0.00     0.002 C
HETATM   35  C1  UNL     1      24.197  15.337  30.846  1.00  0.00     0.005 C
ENDBRANCH   1  34
BRANCH  11  36
HETATM   36  O3  UNL     1      25.416  18.201  28.492  1.00  0.00    -0.393 OA
ATOM     37  H3  UNL     1      26.065  18.433  27.838  1.00  0.00     0.210 HD
ENDBRANCH  11  36
TORSDOF 7
ENDMDL