MODEL 1
REMARK VINA RESULT: -7.372130970      0.000      0.000
REMARK  6 active torsions:
REMARK  status: ('A' for Active; 'I' for Inactive)
REMARK    1  A    between atoms: C2_2  and  C3_3
REMARK    2  A    between atoms: C3_3  and  C4_4
REMARK       I    between atoms: C4_4  and  N1_6
REMARK    3  A    between atoms: N1_6  and  C5_8
REMARK    4  A    between atoms: C5_8  and  C6_9
REMARK    5  A    between atoms: C6_9  and  C7_10
REMARK    6  A    between atoms: C15_20  and  C16_21
ROOT
HETATM    1  C7  UNL     1      23.836  16.607  32.705  1.00  0.00    -0.014 C
HETATM    2  C8  UNL     1      23.162  17.170  31.434  1.00  0.00     0.020 C
HETATM    3  C9  UNL     1      24.267  18.214  31.485  1.00  0.00     0.034 C
HETATM    4  C10 UNL     1      24.092  18.024  32.995  1.00  0.00     0.025 C
HETATM    5  C11 UNL     1      25.182  18.550  33.755  1.00  0.00    -0.024 C
HETATM    6  C12 UNL     1      26.023  19.563  33.610  1.00  0.00    -0.025 C
HETATM    7  C13 UNL     1      26.296  20.662  32.635  1.00  0.00     0.071 C
HETATM    8  C14 UNL     1      26.338  20.077  31.223  1.00  0.00     0.060 C
HETATM    9  N2  UNL     1      26.638  18.707  31.353  1.00  0.00    -0.383 N
ATOM     10  H2  UNL     1      27.542  18.384  31.696  1.00  0.00     0.160 HD
HETATM   11  C15 UNL     1      25.591  17.784  30.973  1.00  0.00     0.127 C
HETATM   12  C17 UNL     1      26.016  16.438  31.479  1.00  0.00     0.044 C
HETATM   13  C18 UNL     1      26.485  15.488  30.417  1.00  0.00     0.009 C
HETATM   14  C19 UNL     1      25.498  14.376  30.337  1.00  0.00     0.008 C
HETATM   15  C20 UNL     1      24.487  14.551  31.447  1.00  0.00     0.022 C
HETATM   16  C21 UNL     1      24.427  13.339  32.331  1.00  0.00     0.128 C
HETATM   17  N3  UNL     1      24.991  13.728  33.582  1.00  0.00    -0.360 N
ATOM     18  H3  UNL     1      24.989  13.166  34.433  1.00  0.00     0.162 HD
HETATM   19  C22 UNL     1      25.554  15.026  33.451  1.00  0.00     0.228 C
HETATM   20  O4  UNL     1      26.422  15.451  34.227  1.00  0.00    -0.273 OA
HETATM   21  C23 UNL     1      24.951  15.729  32.292  1.00  0.00     0.061 C
ENDROOT
BRANCH   1  22
HETATM   22  C6  UNL     1      22.878  15.890  33.621  1.00  0.00     0.031 C
BRANCH  22  23
HETATM   23  C5  UNL     1      21.509  15.675  33.054  1.00  0.00     0.123 C
BRANCH  23  24
HETATM   24  N1  UNL     1      20.565  16.633  33.586  1.00  0.00    -0.361 N
HETATM   25  C4  UNL     1      19.443  16.993  32.827  1.00  0.00     0.217 C
HETATM   26  O1  UNL     1      19.256  16.494  31.701  1.00  0.00    -0.274 OA
ATOM     27  H1  UNL     1      20.715  17.044  34.508  1.00  0.00     0.162 HD
BRANCH  25  28
HETATM   28  C3  UNL     1      18.475  17.970  33.363  1.00  0.00     0.102 C
BRANCH  28  29
HETATM   29  C2  UNL     1      19.190  19.126  33.991  1.00  0.00     0.005 C
HETATM   30  C1  UNL     1      18.425  20.404  33.859  1.00  0.00     0.005 C
ENDBRANCH  28  29
ENDBRANCH  25  28
ENDBRANCH  23  24
ENDBRANCH  22  23
ENDBRANCH   1  22
BRANCH  11  31
HETATM   31  C16 UNL     1      25.528  17.860  29.471  1.00  0.00     0.203 C
HETATM   32  O2  UNL     1      24.475  17.606  28.820  1.00  0.00    -0.646 OA
HETATM   33  O3  UNL     1      26.616  18.214  28.686  1.00  0.00    -0.646 OA
ENDBRANCH  11  31
TORSDOF 6
ENDMDL