MODEL 3
REMARK VINA RESULT: -10.096271596      0.565      1.003
REMARK  5 active torsions:
REMARK  status: ('A' for Active; 'I' for Inactive)
REMARK    1  A    between atoms: C4_8  and  C5_9
REMARK    2  A    between atoms: C6_12  and  C7_13
REMARK    3  A    between atoms: C7_13  and  C8_14
REMARK    4  A    between atoms: N4_17  and  C11_18
REMARK    5  A    between atoms: N5_21  and  C14_22
ROOT
HETATM    1  C7  UNL     1      46.197  -1.541   4.007  1.00  0.00     0.063 C
ENDROOT
BRANCH   1   2
HETATM    2  C6  UNL     1      46.395  -0.076   4.083  1.00  0.00     0.026 A
HETATM    3  N3  UNL     1      47.405   0.620   3.477  1.00  0.00    -0.343 N
HETATM    4  C5  UNL     1      47.331   1.923   3.756  1.00  0.00     0.134 A
ATOM      5  H3  UNL     1      48.122   0.197   2.888  1.00  0.00     0.167 HD
HETATM    6  N6  UNL     1      46.254   2.074   4.556  1.00  0.00    -0.348 N
HETATM    7  C24 UNL     1      45.674   0.881   4.766  1.00  0.00     0.114 A
ATOM      8  H6  UNL     1      45.929   2.961   4.942  1.00  0.00     0.167 HD
BRANCH   4   9
HETATM    9  C4  UNL     1      48.237   2.965   3.285  1.00  0.00     0.109 A
HETATM   10  N2  UNL     1      48.269   4.230   3.708  1.00  0.00    -0.186 N
HETATM   11  C3  UNL     1      49.240   4.915   3.048  1.00  0.00     0.688 A
ATOM     12  H2  UNL     1      47.656   4.624   4.421  1.00  0.00     0.184 HD
HETATM   13  N1  UNL     1      49.690   6.179   3.081  1.00  0.00    -0.201 N
HETATM   14  N7  UNL     1      49.800   4.050   2.217  1.00  0.00    -0.166 N
HETATM   15  C2  UNL     1      50.693   6.606   2.299  1.00  0.00     0.107 A
ATOM     16  H1  UNL     1      49.253   6.839   3.725  1.00  0.00     0.183 HD
HETATM   17  C1  UNL     1      51.261   5.693   1.444  1.00  0.00     0.036 A
HETATM   18  C26 UNL     1      50.817   4.403   1.397  1.00  0.00     0.116 A
HETATM   19  C25 UNL     1      49.217   2.840   2.328  1.00  0.00     0.148 A
ENDBRANCH   4   9
ENDBRANCH   1   2
BRANCH   1  20
HETATM   20  C8  UNL     1      45.145  -1.973   3.048  1.00  0.00    -0.006 C
HETATM   21  C9  UNL     1      45.734  -2.046   1.641  1.00  0.00     0.035 C
HETATM   22  C10 UNL     1      44.868  -2.838   0.694  1.00  0.00     0.273 C
HETATM   23  N4  UNL     1      44.705  -4.156   1.190  1.00  0.00     0.093 N
HETATM   24  C22 UNL     1      45.204  -4.369   2.507  1.00  0.00     0.273 C
HETATM   25  C23 UNL     1      44.586  -3.312   3.401  1.00  0.00     0.035 C
BRANCH  23  26
HETATM   26  C11 UNL     1      45.047  -5.228   0.314  1.00  0.00     0.226 C
HETATM   27  C12 UNL     1      44.966  -6.532   1.070  1.00  0.00     0.066 C
HETATM   28  C13 UNL     1      45.936  -7.497   0.378  1.00  0.00     0.275 C
HETATM   29  N5  UNL     1      45.831  -7.215  -1.047  1.00  0.00     0.093 N
HETATM   30  C20 UNL     1      46.632  -6.058  -1.356  1.00  0.00     0.275 C
HETATM   31  C21 UNL     1      46.489  -5.092  -0.200  1.00  0.00     0.066 C
BRANCH  29  32
HETATM   32  C14 UNL     1      46.228  -8.394  -1.748  1.00  0.00     0.223 C
HETATM   33  C15 UNL     1      46.592  -8.124  -3.201  1.00  0.00     0.036 C
HETATM   34  C16 UNL     1      47.394  -9.332  -3.661  1.00  0.00     0.002 C
HETATM   35  C17 UNL     1      46.681 -10.625  -3.459  1.00  0.00     0.000 C
HETATM   36  C18 UNL     1      45.954 -10.767  -2.163  1.00  0.00     0.002 C
HETATM   37  C19 UNL     1      45.220  -9.501  -1.745  1.00  0.00     0.036 C
ENDBRANCH  29  32
ENDBRANCH  23  26
ENDBRANCH   1  20
TORSDOF 5
ENDMDL