MODEL 5
REMARK VINA RESULT: -8.984845797      3.932     11.278
REMARK  5 active torsions:
REMARK  status: ('A' for Active; 'I' for Inactive)
REMARK    1  A    between atoms: C5_6  and  C6_7
REMARK    2  A    between atoms: C8_11  and  N2_12
REMARK    3  A    between atoms: C18_25  and  N4_26
REMARK    4  A    between atoms: N4_26  and  C19_28
REMARK    5  A    between atoms: C19_28  and  C20_29
ROOT
HETATM    1  C1  UNL     1      43.718  -2.440   0.831  1.00  0.00     0.023 C
HETATM    2  C2  UNL     1      44.871  -2.921   1.728  1.00  0.00     0.007 C
HETATM    3  C3  UNL     1      46.075  -2.151   1.314  1.00  0.00     0.023 C
HETATM    4  C4  UNL     1      45.136  -4.365   1.420  1.00  0.00    -0.001 A
HETATM    5  S1  UNL     1      45.548  -5.149  -0.052  1.00  0.00    -0.093 SA
HETATM    6  C5  UNL     1      45.680  -6.754   0.512  1.00  0.00     0.018 A
HETATM    7  C14 UNL     1      45.394  -6.631   1.848  1.00  0.00     0.028 A
HETATM    8  C15 UNL     1      45.113  -5.388   2.313  1.00  0.00    -0.043 A
HETATM    9  C16 UNL     1      44.784  -5.087   3.780  1.00  0.00     0.042 C
HETATM   10  C17 UNL     1      45.273  -3.665   4.010  1.00  0.00     0.030 C
HETATM   11  C18 UNL     1      44.412  -2.777   3.123  1.00  0.00     0.089 C
ENDROOT
BRANCH   6  12
HETATM   12  C6  UNL     1      46.024  -7.974  -0.223  1.00  0.00     0.013 A
HETATM   13  C7  UNL     1      45.047  -8.768  -0.736  1.00  0.00     0.120 A
HETATM   14  N1  UNL     1      45.360  -9.905  -1.430  1.00  0.00    -0.201 N
HETATM   15  C8  UNL     1      46.664 -10.254  -1.619  1.00  0.00     0.680 A
ATOM     16  H1  UNL     1      44.616 -10.491  -1.808  1.00  0.00     0.183 HD
HETATM   17  N3  UNL     1      47.644  -9.473  -1.115  1.00  0.00    -0.201 N
HETATM   18  C13 UNL     1      47.327  -8.337  -0.419  1.00  0.00     0.120 A
ATOM     19  H3  UNL     1      48.621  -9.730  -1.254  1.00  0.00     0.183 HD
BRANCH  15  20
HETATM   20  N2  UNL     1      47.030 -11.412  -2.334  1.00  0.00    -0.214 N
HETATM   21  C9  UNL     1      46.051 -12.157  -3.092  1.00  0.00     0.167 C
HETATM   22  C10 UNL     1      46.292 -13.624  -2.888  1.00  0.00     0.188 C
HETATM   23  O1  UNL     1      47.621 -13.988  -2.912  1.00  0.00    -0.388 OA
HETATM   24  C11 UNL     1      48.351 -13.348  -1.921  1.00  0.00     0.188 C
HETATM   25  C12 UNL     1      48.391 -11.870  -2.315  1.00  0.00     0.167 C
ENDBRANCH  15  20
ENDBRANCH   6  12
BRANCH  11  26
HETATM   26  N4  UNL     1      44.192  -1.501   3.656  1.00  0.00    -0.416 N
ATOM     27  H4  UNL     1      43.455  -0.924   3.251  1.00  0.00     0.153 HD
BRANCH  26  28
HETATM   28  C19 UNL     1      44.934  -0.986   4.714  1.00  0.00     0.118 C
BRANCH  28  29
HETATM   29  C20 UNL     1      45.994  -0.015   4.157  1.00  0.00     0.007 C
HETATM   30  C21 UNL     1      47.386  -0.523   4.326  1.00  0.00     0.032 C
HETATM   31  C22 UNL     1      48.343   0.627   4.567  1.00  0.00     0.168 C
HETATM   32  O2  UNL     1      47.959   1.674   3.738  1.00  0.00    -0.391 OA
HETATM   33  C23 UNL     1      46.861   2.290   4.330  1.00  0.00     0.168 C
HETATM   34  C24 UNL     1      45.883   1.298   4.903  1.00  0.00     0.032 C
ENDBRANCH  28  29
ENDBRANCH  26  28
ENDBRANCH  11  26
TORSDOF 5
ENDMDL