MODEL 4
REMARK VINA RESULT: -9.759862676      4.792     10.741
REMARK  6 active torsions:
REMARK  status: ('A' for Active; 'I' for Inactive)
REMARK    1  A    between atoms: C3_3  and  C4_4
REMARK    2  A    between atoms: C3_3  and  O3_17
REMARK    3  A    between atoms: C4_4  and  C5_5
REMARK    4  A    between atoms: O3_17  and  C15_18
REMARK    5  A    between atoms: C15_18  and  C16_19
REMARK    6  A    between atoms: C19_22  and  N1_23
ROOT
HETATM    1  C1  UNL     1      46.328  -3.584   6.124  1.00  0.00     0.015 C
HETATM    2  C2  UNL     1      45.471  -3.597   5.279  1.00  0.00    -0.085 C
HETATM    3  C3  UNL     1      44.406  -3.626   4.258  1.00  0.00     0.200 C
ENDROOT
BRANCH   3   4
HETATM    4  C4  UNL     1      45.033  -4.218   3.018  1.00  0.00     0.063 C
BRANCH   4   5
HETATM    5  C5  UNL     1      44.127  -5.252   2.324  1.00  0.00     0.111 C
HETATM    6  C6  UNL     1      43.882  -4.795   0.949  1.00  0.00    -0.012 C
HETATM    7  C7  UNL     1      43.199  -5.622  -0.045  1.00  0.00    -0.007 C
HETATM    8  C8  UNL     1      42.651  -6.939   0.270  1.00  0.00    -0.027 C
HETATM    9  C9  UNL     1      43.311  -8.181  -0.140  1.00  0.00     0.027 C
HETATM   10  C10 UNL     1      44.431  -8.153  -1.111  1.00  0.00     0.006 C
HETATM   11  C11 UNL     1      45.811  -8.300  -0.501  1.00  0.00     0.032 C
HETATM   12  C12 UNL     1      46.191  -7.188   0.448  1.00  0.00     0.128 C
HETATM   13  C13 UNL     1      47.625  -7.537   0.894  1.00  0.00     0.040 C
HETATM   14  O1  UNL     1      45.392  -7.310   1.555  1.00  0.00    -0.316 OA
HETATM   15  C14 UNL     1      44.875  -6.519   2.488  1.00  0.00     0.267 C
HETATM   16  O2  UNL     1      45.038  -6.889   3.707  1.00  0.00    -0.265 OA
ENDBRANCH   4   5
ENDBRANCH   3   4
BRANCH   3  17
HETATM   17  O3  UNL     1      44.041  -2.324   4.022  1.00  0.00    -0.371 OA
BRANCH  17  18
HETATM   18  C15 UNL     1      44.765  -1.527   3.230  1.00  0.00     0.201 C
BRANCH  18  19
HETATM   19  C16 UNL     1      45.469  -0.343   3.751  1.00  0.00     0.148 C
HETATM   20  C17 UNL     1      45.207   0.139   5.127  1.00  0.00     0.038 C
HETATM   21  C18 UNL     1      46.201   1.349   5.115  1.00  0.00     0.057 C
HETATM   22  C19 UNL     1      47.343   0.684   4.390  1.00  0.00     0.232 C
HETATM   23  O6  UNL     1      46.853  -0.323   3.578  1.00  0.00    -0.359 OA
BRANCH  22  24
HETATM   24  N1  UNL     1      48.075   1.704   3.675  1.00  0.00    -0.282 N
HETATM   25  C20 UNL     1      47.688   2.986   3.778  1.00  0.00     0.110 A
HETATM   26  C21 UNL     1      48.372   3.974   3.106  1.00  0.00     0.022 A
HETATM   27  C22 UNL     1      47.974   5.385   3.198  1.00  0.00     0.056 C
HETATM   28  C23 UNL     1      49.462   3.656   2.320  1.00  0.00     0.256 A
HETATM   29  O4  UNL     1      50.081   4.549   1.712  1.00  0.00    -0.267 OA
HETATM   30  N2  UNL     1      49.798   2.354   2.260  1.00  0.00    -0.275 N
HETATM   31  C24 UNL     1      49.141   1.393   2.906  1.00  0.00     0.331 A
ATOM     32  H2  UNL     1      50.599   2.088   1.687  1.00  0.00     0.173 HD
HETATM   33  O5  UNL     1      49.480   0.180   2.830  1.00  0.00    -0.246 OA
ENDBRANCH  22  24
ENDBRANCH  18  19
ENDBRANCH  17  18
ENDBRANCH   3  17
TORSDOF 6
ENDMDL