MODEL 3
REMARK VINA RESULT: -9.521096718      2.993      5.309
REMARK  8 active torsions:
REMARK  status: ('A' for Active; 'I' for Inactive)
REMARK    1  A    between atoms: C2_2  and  C3_3
REMARK    2  A    between atoms: C2_2  and  C19_22
REMARK    3  A    between atoms: C3_3  and  C4_4
REMARK    4  A    between atoms: C4_4  and  C5_5
REMARK    5  A    between atoms: C19_22  and  C20_23
REMARK    6  A    between atoms: C20_23  and  C21_24
REMARK    7  A    between atoms: C21_24  and  O4_25
REMARK    8  A    between atoms: C21_24  and  C22_27
ROOT
HETATM    1  C5  UNL     1      46.341  -7.870  -2.346  1.00  0.00    -0.006 C
HETATM    2  C6  UNL     1      46.964  -8.031  -3.688  1.00  0.00     0.014 C
HETATM    3  C7  UNL     1      48.204  -8.848  -3.408  1.00  0.00     0.033 A
HETATM    4  C8  UNL     1      48.017 -10.402  -3.443  1.00  0.00     0.071 A
HETATM    5  C9  UNL     1      49.296 -11.183  -3.707  1.00  0.00     0.047 C
HETATM    6  O1  UNL     1      46.966 -10.771  -4.196  1.00  0.00    -0.366 OA
HETATM    7  C10 UNL     1      46.028 -11.591  -3.684  1.00  0.00     0.093 C
HETATM    8  C11 UNL     1      44.647 -11.407  -4.273  1.00  0.00     0.049 C
HETATM    9  C12 UNL     1      46.341 -13.087  -3.817  1.00  0.00     0.151 C
HETATM   10  C13 UNL     1      45.455 -13.613  -2.747  1.00  0.00     0.262 C
HETATM   11  O2  UNL     1      45.061 -14.791  -2.637  1.00  0.00    -0.265 OA
HETATM   12  O3  UNL     1      45.120 -12.592  -1.872  1.00  0.00    -0.313 OA
HETATM   13  C14 UNL     1      45.986 -11.511  -2.151  1.00  0.00     0.167 C
HETATM   14  C15 UNL     1      45.459 -10.170  -1.805  1.00  0.00     0.041 C
HETATM   15  C16 UNL     1      46.620  -9.217  -1.700  1.00  0.00     0.004 C
HETATM   16  C17 UNL     1      47.901  -9.709  -2.213  1.00  0.00    -0.002 A
HETATM   17  C18 UNL     1      49.084  -9.799  -1.239  1.00  0.00     0.019 C
ENDROOT
BRANCH   1  18
HETATM   18  C4  UNL     1      47.172  -6.839  -1.568  1.00  0.00     0.032 C
BRANCH  18  19
HETATM   19  C3  UNL     1      47.023  -6.948  -0.120  1.00  0.00    -0.024 C
BRANCH  19  20
HETATM   20  C2  UNL     1      45.952  -6.617   0.595  1.00  0.00    -0.087 C
HETATM   21  C1  UNL     1      45.621  -7.498   1.754  1.00  0.00     0.043 C
BRANCH  20  22
HETATM   22  C19 UNL     1      45.191  -5.412   0.264  1.00  0.00     0.036 C
BRANCH  22  23
HETATM   23  C20 UNL     1      44.500  -4.740   1.380  1.00  0.00     0.043 C
BRANCH  23  24
HETATM   24  C21 UNL     1      43.986  -3.380   1.140  1.00  0.00     0.176 C
BRANCH  24  25
HETATM   25  O4  UNL     1      43.400  -3.382  -0.179  1.00  0.00    -0.389 OA
ATOM     26  H4  UNL     1      43.429  -2.486  -0.494  1.00  0.00     0.210 HD
ENDBRANCH  24  25
BRANCH  24  27
HETATM   27  C22 UNL     1      45.134  -2.394   1.043  1.00  0.00     0.096 A
HETATM   28  N1  UNL     1      45.647  -1.928  -0.111  1.00  0.00    -0.295 N
HETATM   29  N2  UNL     1      46.616  -1.132  -0.077  1.00  0.00    -0.298 N
ATOM     30  H1  UNL     1      45.252  -2.220  -1.005  1.00  0.00     0.187 HD
HETATM   31  C23 UNL     1      47.132  -0.752   1.088  1.00  0.00     0.064 A
ATOM     32  H2  UNL     1      47.010  -0.775  -0.947  1.00  0.00     0.187 HD
HETATM   33  C24 UNL     1      48.287   0.187   1.334  1.00  0.00     0.078 C
HETATM   34  S1  UNL     1      46.130  -1.618   2.167  1.00  0.00    -0.059 SA
ENDBRANCH  24  27
ENDBRANCH  23  24
ENDBRANCH  22  23
ENDBRANCH  20  22
ENDBRANCH  19  20
ENDBRANCH  18  19
ENDBRANCH   1  18
TORSDOF 8
ENDMDL