MODEL 5
REMARK VINA RESULT: -7.471812095      1.095      1.253
REMARK  8 active torsions:
REMARK  status: ('A' for Active; 'I' for Inactive)
REMARK    1  A    between atoms: C2_2  and  O2_4
REMARK    2  A    between atoms: O2_4  and  C3_5
REMARK    3  A    between atoms: C3_5  and  C5_7
REMARK    4  A    between atoms: C7_9  and  C8_10
REMARK    5  A    between atoms: C8_10  and  O3_11
REMARK    6  A    between atoms: O3_11  and  C9_12
REMARK    7  A    between atoms: C11_16  and  O5_17
REMARK    8  A    between atoms: O5_17  and  C12_18
ROOT
HETATM    1  C5  UNL     1      47.479  -0.426   3.499  1.00  0.00     0.024 C
HETATM    2  C6  UNL     1      46.332  -0.581   4.511  1.00  0.00     0.015 C
HETATM    3  C7  UNL     1      46.136   0.850   5.053  1.00  0.00     0.018 C
HETATM    4  C10 UNL     1      47.314   1.621   4.652  1.00  0.00     0.033 C
HETATM    5  C11 UNL     1      47.807   2.711   5.503  1.00  0.00     0.171 C
HETATM    6  C14 UNL     1      48.714   3.733   4.888  1.00  0.00     0.084 C
HETATM    7  C15 UNL     1      48.464   5.043   5.714  1.00  0.00     0.049 C
HETATM    8  C16 UNL     1      48.420   4.176   3.489  1.00  0.00     0.040 C
HETATM    9  C17 UNL     1      49.479   3.641   2.509  1.00  0.00     0.004 C
HETATM   10  C18 UNL     1      49.120   2.217   2.263  1.00  0.00     0.005 C
HETATM   11  C19 UNL     1      49.413   1.211   3.295  1.00  0.00    -0.004 C
HETATM   12  C20 UNL     1      50.698   1.497   4.014  1.00  0.00     0.032 C
HETATM   13  C21 UNL     1      50.825   2.596   4.958  1.00  0.00     0.169 C
HETATM   14  O7  UNL     1      50.026   3.626   4.983  1.00  0.00    -0.378 OA
HETATM   15  C22 UNL     1      48.296   0.639   4.105  1.00  0.00    -0.028 C
HETATM   16  C23 UNL     1      49.011  -0.132   5.247  1.00  0.00     0.016 C
ENDROOT
BRANCH   1  17
HETATM   17  C3  UNL     1      46.891  -0.499   2.193  1.00  0.00     0.132 C
HETATM   18  C4  UNL     1      48.031  -0.962   1.239  1.00  0.00     0.040 C
BRANCH  17  19
HETATM   19  O2  UNL     1      45.924  -1.507   1.993  1.00  0.00    -0.316 OA
BRANCH  19  20
HETATM   20  C2  UNL     1      45.649  -2.164   0.829  1.00  0.00     0.255 C
HETATM   21  C1  UNL     1      45.622  -3.649   0.829  1.00  0.00     0.126 C
HETATM   22  O1  UNL     1      45.430  -1.461  -0.196  1.00  0.00    -0.266 OA
ENDBRANCH  19  20
ENDBRANCH  17  19
ENDBRANCH   1  17
BRANCH   3  23
HETATM   23  C8  UNL     1      45.751   0.673   6.462  1.00  0.00     0.185 C
BRANCH  23  24
HETATM   24  O3  UNL     1      44.529   1.424   6.638  1.00  0.00    -0.306 OA
BRANCH  24  25
HETATM   25  C9  UNL     1      44.066   1.727   7.911  1.00  0.00     0.372 C
HETATM   26  N1  UNL     1      43.086   2.706   8.169  1.00  0.00    -0.032 NA
HETATM   27  O4  UNL     1      44.578   1.064   8.862  1.00  0.00    -0.242 OA
ENDBRANCH  24  25
ENDBRANCH  23  24
ENDBRANCH   3  23
BRANCH   5  28
HETATM   28  O5  UNL     1      48.421   2.353   6.719  1.00  0.00    -0.313 OA
BRANCH  28  29
HETATM   29  C12 UNL     1      47.885   2.394   7.974  1.00  0.00     0.255 C
HETATM   30  C13 UNL     1      47.165   3.582   8.517  1.00  0.00     0.126 C
HETATM   31  O6  UNL     1      47.988   1.410   8.718  1.00  0.00    -0.266 OA
ENDBRANCH  28  29
ENDBRANCH   5  28
TORSDOF 8
ENDMDL