MODEL 3
REMARK VINA RESULT: -9.318144647      1.426      1.676
REMARK  6 active torsions:
REMARK  status: ('A' for Active; 'I' for Inactive)
REMARK    1  A    between atoms: C2_2  and  C4_4
REMARK    2  A    between atoms: C5_7  and  N2_8
REMARK    3  A    between atoms: N3_11  and  C8_12
REMARK    4  A    between atoms: C11_15  and  N4_16
REMARK       I    between atoms: N4_16  and  C12_18
REMARK    5  A    between atoms: C12_18  and  O2_20
REMARK    6  A    between atoms: O2_20  and  C13_21
ROOT
HETATM    1  N2  UNL     1      48.404   2.303   3.088  1.00  0.00    -0.197 N
HETATM    2  C6  UNL     1      47.855   1.684   1.900  1.00  0.00     0.173 C
HETATM    3  C7  UNL     1      47.685   0.184   2.108  1.00  0.00     0.293 C
HETATM    4  N3  UNL     1      46.698   0.072   3.158  1.00  0.00     0.097 N
HETATM    5  C20 UNL     1      47.239   0.552   4.372  1.00  0.00     0.313 C
HETATM    6  C21 UNL     1      48.331   1.548   4.306  1.00  0.00     0.237 C
HETATM    7  C22 UNL     1      48.210   2.418   5.506  1.00  0.00     0.087 C
HETATM    8  N5  UNL     1      48.102   3.079   6.452  1.00  0.00    -0.195 NA
ENDROOT
BRANCH   1   9
HETATM    9  C5  UNL     1      48.981   3.617   2.977  1.00  0.00     0.688 A
HETATM   10  N1  UNL     1      50.252   3.799   2.745  1.00  0.00    -0.187 N
HETATM   11  C4  UNL     1      50.732   5.019   2.654  1.00  0.00     0.088 A
ATOM     12  H1  UNL     1      50.872   2.997   2.633  1.00  0.00     0.184 HD
HETATM   13  S1  UNL     1      49.344   5.974   2.905  1.00  0.00     0.016 SA
HETATM   14  N6  UNL     1      48.234   4.724   3.111  1.00  0.00    -0.159 N
ATOM     15  H6  UNL     1      47.233   4.792   3.294  1.00  0.00     0.193 HD
BRANCH  11  16
HETATM   16  C2  UNL     1      52.164   5.387   2.391  1.00  0.00     0.037 C
HETATM   17  C1  UNL     1      52.287   6.456   1.337  1.00  0.00     0.016 C
HETATM   18  C3  UNL     1      52.800   5.862   3.656  1.00  0.00     0.016 C
ENDBRANCH  11  16
ENDBRANCH   1   9
BRANCH   4  19
HETATM   19  C8  UNL     1      46.077  -1.202   3.227  1.00  0.00     0.223 C
HETATM   20  C9  UNL     1      44.739  -1.235   3.918  1.00  0.00     0.038 C
HETATM   21  C10 UNL     1      44.421  -2.673   4.272  1.00  0.00     0.027 C
HETATM   22  C11 UNL     1      45.052  -3.665   3.321  1.00  0.00     0.086 C
HETATM   23  C18 UNL     1      45.176  -3.138   1.924  1.00  0.00     0.027 C
HETATM   24  C19 UNL     1      45.934  -1.828   1.874  1.00  0.00     0.038 C
BRANCH  22  25
HETATM   25  N4  UNL     1      44.258  -4.859   3.317  1.00  0.00    -0.332 N
HETATM   26  C12 UNL     1      44.749  -6.105   2.848  1.00  0.00     0.361 C
HETATM   27  O1  UNL     1      45.935  -6.138   2.422  1.00  0.00    -0.238 OA
ATOM     28  H4  UNL     1      43.301  -4.811   3.665  1.00  0.00     0.165 HD
BRANCH  26  29
HETATM   29  O2  UNL     1      44.022  -7.264   2.829  1.00  0.00    -0.299 OA
BRANCH  29  30
HETATM   30  C13 UNL     1      43.272  -7.615   1.683  1.00  0.00     0.133 C
HETATM   31  C14 UNL     1      44.130  -8.365   0.690  1.00  0.00     0.032 C
HETATM   32  C15 UNL     1      43.320  -8.255  -0.585  1.00  0.00     0.002 C
HETATM   33  C16 UNL     1      42.417  -7.057  -0.425  1.00  0.00     0.002 C
HETATM   34  C17 UNL     1      42.843  -6.403   0.892  1.00  0.00     0.032 C
ENDBRANCH  29  30
ENDBRANCH  26  29
ENDBRANCH  22  25
ENDBRANCH   4  19
TORSDOF 6
ENDMDL