MODEL 1
REMARK VINA RESULT: -7.319583217      0.000      0.000
REMARK  6 active torsions:
REMARK  status: ('A' for Active; 'I' for Inactive)
REMARK    1  A    between atoms: O1_2  and  C2_3
REMARK    2  A    between atoms: C3_4  and  C4_5
REMARK    3  A    between atoms: C4_5  and  O2_6
REMARK    4  A    between atoms: C5_8  and  C6_9
REMARK    5  A    between atoms: C6_9  and  C7_10
REMARK    6  A    between atoms: C22_29  and  O7_31
ROOT
HETATM    1  C2  UNL     1      47.485  -9.675  -3.161  1.00  0.00     0.165 C
HETATM    2  C3  UNL     1      46.445  -8.762  -2.661  1.00  0.00     0.071 C
HETATM    3  C5  UNL     1      46.332  -8.487  -1.208  1.00  0.00     0.140 C
HETATM    4  O3  UNL     1      47.085  -9.242  -0.332  1.00  0.00    -0.315 OA
HETATM    5  C10 UNL     1      48.232  -8.853   0.342  1.00  0.00     0.259 C
HETATM    6  O4  UNL     1      48.912  -9.757   0.890  1.00  0.00    -0.265 OA
HETATM    7  C11 UNL     1      48.662  -7.461   0.433  1.00  0.00     0.111 C
HETATM    8  C12 UNL     1      49.981  -7.322   1.146  1.00  0.00     0.010 C
HETATM    9  C13 UNL     1      51.078  -7.888   0.291  1.00  0.00     0.000 C
HETATM   10  C14 UNL     1      52.048  -8.767   1.048  1.00  0.00     0.000 C
HETATM   11  C15 UNL     1      52.693  -9.766   0.081  1.00  0.00     0.000 C
HETATM   12  C16 UNL     1      52.228 -11.183   0.343  1.00  0.00     0.000 C
HETATM   13  C17 UNL     1      51.505 -11.656  -0.913  1.00  0.00     0.000 C
HETATM   14  C18 UNL     1      51.130 -13.099  -0.876  1.00  0.00     0.010 C
HETATM   15  C19 UNL     1      49.691 -13.379  -0.570  1.00  0.00     0.111 C
HETATM   16  C20 UNL     1      48.959 -13.838  -1.770  1.00  0.00     0.258 C
HETATM   17  O5  UNL     1      49.435 -14.804  -2.416  1.00  0.00    -0.265 OA
HETATM   18  O6  UNL     1      47.793 -13.262  -2.202  1.00  0.00    -0.318 OA
HETATM   19  C21 UNL     1      47.489 -11.898  -1.936  1.00  0.00     0.219 C
HETATM   20  C22 UNL     1      47.161 -11.146  -3.194  1.00  0.00     0.105 C
HETATM   21  C23 UNL     1      48.087 -11.829  -4.260  1.00  0.00     0.051 C
ENDROOT
BRANCH   3  22
HETATM   22  C6  UNL     1      44.848  -8.423  -0.868  1.00  0.00     0.037 C
BRANCH  22  23
HETATM   23  C7  UNL     1      44.452  -7.328   0.055  1.00  0.00    -0.020 C
HETATM   24  C8  UNL     1      42.925  -7.182  -0.129  1.00  0.00     0.009 C
HETATM   25  C9  UNL     1      44.617  -7.720   1.519  1.00  0.00     0.009 C
ENDBRANCH  22  23
ENDBRANCH   3  22
BRANCH   2  26
HETATM   26  C4  UNL     1      46.682  -7.385  -3.319  1.00  0.00     0.174 C
BRANCH  26  27
HETATM   27  O2  UNL     1      46.683  -7.448  -4.684  1.00  0.00    -0.400 OA
ATOM     28  H2  UNL     1      46.891  -6.614  -5.087  1.00  0.00     0.209 HD
ENDBRANCH  26  27
ENDBRANCH   2  26
BRANCH   1  29
HETATM   29  O1  UNL     1      48.754  -9.442  -2.635  1.00  0.00    -0.387 OA
HETATM   30  C1  UNL     1      49.728  -9.175  -3.564  1.00  0.00     0.202 C
ENDBRANCH   1  29
BRANCH  20  31
HETATM   31  O7  UNL     1      45.878 -11.377  -3.577  1.00  0.00    -0.381 OA
HETATM   32  C24 UNL     1      45.660 -12.193  -4.651  1.00  0.00     0.202 C
ENDBRANCH  20  31
TORSDOF 6
ENDMDL