MODEL 1
REMARK VINA RESULT: -9.074409977      0.000      0.000
REMARK  6 active torsions:
REMARK  status: ('A' for Active; 'I' for Inactive)
REMARK    1  A    between atoms: C2_2  and  C3_3
REMARK    2  A    between atoms: C3_3  and  C4_4
REMARK    3  A    between atoms: C4_4  and  C5_5
REMARK    4  A    between atoms: C5_5  and  C7_7
REMARK    5  A    between atoms: C9_9  and  O1_10
REMARK    6  A    between atoms: C15_20  and  C16_21
ROOT
HETATM    1  C7  UNL     1      45.103  -4.757   0.447  1.00  0.00    -0.008 C
HETATM    2  C8  UNL     1      43.662  -4.967   0.649  1.00  0.00     0.037 C
HETATM    3  C9  UNL     1      43.271  -6.323   1.162  1.00  0.00     0.123 C
HETATM    4  C10 UNL     1      44.146  -7.444   0.780  1.00  0.00     0.026 C
HETATM    5  C11 UNL     1      43.763  -8.042  -0.591  1.00  0.00     0.011 C
HETATM    6  C12 UNL     1      44.965  -9.015  -0.656  1.00  0.00     0.043 C
HETATM    7  C13 UNL     1      46.044  -7.992  -0.491  1.00  0.00     0.108 C
HETATM    8  O2  UNL     1      45.804  -7.034  -1.544  1.00  0.00    -0.283 OA
HETATM    9  C14 UNL     1      46.858  -6.970  -2.403  1.00  0.00     0.407 C
HETATM   10  O3  UNL     1      46.854  -6.388  -3.514  1.00  0.00    -0.229 OA
HETATM   11  O4  UNL     1      47.889  -7.660  -1.806  1.00  0.00    -0.289 OA
HETATM   12  C15 UNL     1      47.413  -8.354  -0.632  1.00  0.00     0.186 C
HETATM   13  C22 UNL     1      45.610  -7.221   0.766  1.00  0.00    -0.003 C
HETATM   14  C23 UNL     1      46.182  -7.848   2.024  1.00  0.00     0.019 C
HETATM   15  C24 UNL     1      46.071  -5.803   0.745  1.00  0.00     0.018 C
ENDROOT
BRANCH  12  16
HETATM   16  C16 UNL     1      47.912  -9.726  -0.762  1.00  0.00     0.142 C
HETATM   17  C17 UNL     1      47.970 -10.366  -2.090  1.00  0.00     0.188 C
HETATM   18  O5  UNL     1      48.129 -11.764  -1.880  1.00  0.00    -0.354 OA
HETATM   19  C18 UNL     1      49.448 -12.022  -1.516  1.00  0.00     0.165 C
HETATM   20  C19 UNL     1      50.202 -12.303  -2.801  1.00  0.00     0.079 C
HETATM   21  C20 UNL     1      49.446 -13.295  -0.696  1.00  0.00     0.079 C
HETATM   22  O6  UNL     1      50.015 -10.961  -0.780  1.00  0.00    -0.284 OA
HETATM   23  C21 UNL     1      49.240  -9.984  -0.141  1.00  0.00     0.270 C
HETATM   24  O7  UNL     1      49.724  -9.445   0.851  1.00  0.00    -0.265 OA
ENDBRANCH  12  16
BRANCH   3  25
HETATM   25  O1  UNL     1      43.156  -6.324   2.574  1.00  0.00    -0.395 OA
ATOM     26  H1  UNL     1      42.796  -7.145   2.890  1.00  0.00     0.210 HD
ENDBRANCH   3  25
BRANCH   1  27
HETATM   27  C5  UNL     1      45.480  -3.403   1.099  1.00  0.00    -0.014 C
HETATM   28  C6  UNL     1      44.297  -2.675   1.583  1.00  0.00     0.010 C
BRANCH  27  29
HETATM   29  C4  UNL     1      46.359  -2.619   0.208  1.00  0.00     0.004 C
BRANCH  29  30
HETATM   30  C3  UNL     1      46.605  -1.200   0.434  1.00  0.00     0.000 C
BRANCH  30  31
HETATM   31  C2  UNL     1      47.915  -0.674   0.843  1.00  0.00    -0.005 C
HETATM   32  C1  UNL     1      48.138  -0.572   2.340  1.00  0.00     0.005 C
ENDBRANCH  30  31
ENDBRANCH  29  30
ENDBRANCH  27  29
ENDBRANCH   1  27
TORSDOF 6
ENDMDL