MODEL 2
REMARK VINA RESULT: -9.062107049      5.907     11.034
REMARK  6 active torsions:
REMARK  status: ('A' for Active; 'I' for Inactive)
REMARK    1  A    between atoms: N1_2  and  C2_4
REMARK    2  A    between atoms: C4_6  and  C5_7
REMARK    3  A    between atoms: C8_12  and  N3_13
REMARK    4  A    between atoms: N5_22  and  C14_23
REMARK    5  A    between atoms: C14_23  and  C15_24
REMARK    6  A    between atoms: C15_24  and  C16_25
ROOT
HETATM    1  C5  UNL     1      47.945   1.658   2.509  1.00  0.00     0.118 A
HETATM    2  N2  UNL     1      47.708   0.988   1.380  1.00  0.00    -0.344 N
ATOM      3  H2  UNL     1      48.008   1.382   0.489  1.00  0.00     0.167 HD
HETATM    4  C6  UNL     1      47.065  -0.224   1.401  1.00  0.00     0.024 A
HETATM    5  C7  UNL     1      46.649  -0.781   2.586  1.00  0.00     0.026 A
HETATM    6  C8  UNL     1      46.899  -0.088   3.747  1.00  0.00     0.115 A
HETATM    7  N4  UNL     1      47.543   1.110   3.629  1.00  0.00    -0.327 N
ATOM      8  H4  UNL     1      47.727   1.625   4.490  1.00  0.00     0.169 HD
HETATM    9  C13 UNL     1      45.902  -2.084   2.599  1.00  0.00     0.166 C
HETATM   10  N5  UNL     1      45.584  -2.414   1.261  1.00  0.00    -0.389 N
HETATM   11  C22 UNL     1      46.616  -2.340   0.302  1.00  0.00     0.128 C
HETATM   12  C23 UNL     1      46.868  -0.871   0.052  1.00  0.00     0.077 C
ENDROOT
BRANCH   1  13
HETATM   13  C4  UNL     1      48.643   2.983   2.497  1.00  0.00     0.017 A
HETATM   14  C3  UNL     1      49.737   3.225   1.762  1.00  0.00     0.052 A
HETATM   15  C2  UNL     1      50.283   4.484   1.839  1.00  0.00     0.070 A
HETATM   16  S1  UNL     1      49.250   5.283   2.934  1.00  0.00    -0.084 SA
HETATM   17  C24 UNL     1      48.165   4.017   3.264  1.00  0.00     0.067 A
BRANCH  15  18
HETATM   18  N1  UNL     1      51.444   4.970   1.147  1.00  0.00    -0.389 N
HETATM   19  C1  UNL     1      51.880   6.308   1.377  1.00  0.00     0.147 C
ATOM     20  H1  UNL     1      51.950   4.365   0.499  1.00  0.00     0.159 HD
ENDBRANCH  15  18
ENDBRANCH   1  13
BRANCH   6  21
HETATM   21  N3  UNL     1      46.578  -0.562   5.015  1.00  0.00    -0.363 N
HETATM   22  C9  UNL     1      45.299  -0.115   5.597  1.00  0.00     0.150 C
HETATM   23  C10 UNL     1      45.694   0.711   6.799  1.00  0.00     0.187 C
HETATM   24  O1  UNL     1      46.461  -0.012   7.657  1.00  0.00    -0.388 OA
HETATM   25  C11 UNL     1      46.811  -1.278   7.314  1.00  0.00     0.187 C
HETATM   26  C12 UNL     1      47.350  -1.373   5.868  1.00  0.00     0.150 C
ENDBRANCH   6  21
BRANCH  10  27
HETATM   27  C14 UNL     1      44.334  -2.928   0.929  1.00  0.00     0.059 C
BRANCH  27  28
HETATM   28  C15 UNL     1      43.939  -4.204   1.585  1.00  0.00     0.049 C
BRANCH  28  29
HETATM   29  C16 UNL     1      44.054  -5.403   0.696  1.00  0.00    -0.010 C
HETATM   30  C17 UNL     1      45.368  -6.123   0.758  1.00  0.00     0.005 C
HETATM   31  C18 UNL     1      45.170  -7.639   0.642  1.00  0.00     0.000 C
HETATM   32  C19 UNL     1      44.187  -7.985  -0.434  1.00  0.00     0.000 C
HETATM   33  C20 UNL     1      42.854  -7.317  -0.250  1.00  0.00     0.000 C
HETATM   34  C21 UNL     1      42.953  -6.413   0.957  1.00  0.00     0.005 C
ENDBRANCH  28  29
ENDBRANCH  27  28
ENDBRANCH  10  27
TORSDOF 6
ENDMDL