MODEL 4
REMARK VINA RESULT: -8.057599446      3.317      7.683
REMARK  5 active torsions:
REMARK  status: ('A' for Active; 'I' for Inactive)
REMARK    1  A    between atoms: C4_7  and  C5_8
REMARK    2  A    between atoms: C5_8  and  N3_11
REMARK    3  A    between atoms: C7_13  and  C8_14
REMARK    4  A    between atoms: C8_14  and  C9_15
REMARK    5  A    between atoms: C17_24  and  C18_25
ROOT
HETATM    1  C5  UNL     1      44.606  -2.953   2.264  1.00  0.00     0.231 C
HETATM    2  C6  UNL     1      43.903  -2.653   0.983  1.00  0.00     0.090 C
HETATM    3  N2  UNL     1      43.372  -2.405  -0.016  1.00  0.00    -0.195 NA
ENDROOT
BRANCH   1   4
HETATM    4  C4  UNL     1      44.721  -4.482   2.220  1.00  0.00     0.042 A
HETATM    5  C2  UNL     1      44.789  -5.366   3.261  1.00  0.00     0.021 A
HETATM    6  C1  UNL     1      44.722  -4.955   4.724  1.00  0.00     0.069 C
HETATM    7  N1  UNL     1      44.904  -6.633   2.955  1.00  0.00    -0.363 N
HETATM    8  C3  UNL     1      44.949  -7.000   1.689  1.00  0.00     0.138 A
ATOM      9  H1  UNL     1      44.958  -7.335   3.693  1.00  0.00     0.165 HD
HETATM   10  S1  UNL     1      44.824  -5.507   0.866  1.00  0.00    -0.084 SA
ENDBRANCH   1   4
BRANCH   1  11
HETATM   11  N3  UNL     1      45.859  -2.441   2.356  1.00  0.00    -0.381 N
HETATM   12  C7  UNL     1      46.464  -1.283   2.617  1.00  0.00     0.074 C
ATOM     13  H3  UNL     1      46.551  -3.166   2.167  1.00  0.00     0.160 HD
BRANCH  12  14
HETATM   14  C8  UNL     1      46.710  -0.585   3.946  1.00  0.00     0.040 C
HETATM   15  C12 UNL     1      46.341   0.889   3.917  1.00  0.00     0.191 C
HETATM   16  O1  UNL     1      47.210   1.809   3.804  1.00  0.00    -0.359 OA
HETATM   17  C13 UNL     1      48.298   2.417   4.032  1.00  0.00     0.137 C
HETATM   18  C14 UNL     1      48.539   2.908   2.711  1.00  0.00     0.065 C
HETATM   19  C20 UNL     1      48.036   2.822   5.378  1.00  0.00     0.062 C
HETATM   20  N4  UNL     1      49.676   2.064   4.261  1.00  0.00    -0.346 N
HETATM   21  C15 UNL     1      49.005   1.601   2.054  1.00  0.00     0.032 C
HETATM   22  C16 UNL     1      48.598   0.298   2.557  1.00  0.00    -0.022 C
HETATM   23  C17 UNL     1      48.253  -0.226   3.896  1.00  0.00    -0.056 C
HETATM   24  C19 UNL     1      48.169   1.381   5.968  1.00  0.00     0.022 C
HETATM   25  C18 UNL     1      48.792   0.344   5.113  1.00  0.00     0.021 A
HETATM   26  C21 UNL     1      50.200   0.170   5.675  1.00  0.00     0.092 A
HETATM   27  C23 UNL     1      50.070   0.768   4.426  1.00  0.00     0.116 A
HETATM   28  S2  UNL     1      50.983   1.713   6.403  1.00  0.00    -0.116 SA
HETATM   29  C22 UNL     1      50.565   2.802   4.953  1.00  0.00     0.135 C
BRANCH  14  30
HETATM   30  C9  UNL     1      46.317  -1.421   5.041  1.00  0.00    -0.003 C
HETATM   31  C10 UNL     1      47.168  -2.327   5.828  1.00  0.00     0.011 C
HETATM   32  C11 UNL     1      44.932  -1.225   5.706  1.00  0.00     0.011 C
ENDBRANCH  14  30
ENDBRANCH  12  14
ENDBRANCH   1  11
TORSDOF 5
ENDMDL