MODEL 5
REMARK VINA RESULT: -6.473802271      2.297      6.083
REMARK  4 active torsions:
REMARK  status: ('A' for Active; 'I' for Inactive)
REMARK    1  A    between atoms: C2_2  and  C4_4
REMARK       I    between atoms: C4_4  and  N1_6
REMARK    2  A    between atoms: N1_6  and  N2_7
REMARK       I    between atoms: N2_7  and  C5_9
REMARK    3  A    between atoms: C5_9  and  C6_11
REMARK    4  A    between atoms: C11_16  and  C12_17
ROOT
HETATM    1  N2  UNL     1      21.291  19.117  34.518  1.00  0.00    -0.199 N
ATOM      2  H2  UNL     1      21.707  20.025  34.724  1.00  0.00     0.205 HD
HETATM    3  C5  UNL     1      22.119  17.896  34.602  1.00  0.00     0.251 C
HETATM    4  O2  UNL     1      21.533  16.861  34.481  1.00  0.00    -0.271 OA
ENDROOT
BRANCH   3   5
HETATM    5  C6  UNL     1      23.590  18.064  34.807  1.00  0.00     0.094 C
HETATM    6  C7  UNL     1      23.712  19.345  35.645  1.00  0.00     0.015 C
HETATM    7  C8  UNL     1      25.231  19.788  35.466  1.00  0.00     0.001 C
HETATM    8  C9  UNL     1      25.867  18.700  36.365  1.00  0.00     0.001 C
HETATM    9  C10 UNL     1      25.846  17.476  35.626  1.00  0.00     0.016 C
HETATM   10  C11 UNL     1      24.428  16.991  35.159  1.00  0.00     0.100 C
BRANCH  10  11
HETATM   11  C12 UNL     1      24.859  16.069  34.043  1.00  0.00     0.177 C
HETATM   12  O3  UNL     1      25.049  15.005  33.716  1.00  0.00    -0.648 OA
HETATM   13  O4  UNL     1      25.122  17.022  32.849  1.00  0.00    -0.648 OA
ENDBRANCH  10  11
ENDBRANCH   3   5
BRANCH   1  14
HETATM   14  N1  UNL     1      19.955  19.042  34.163  1.00  0.00    -0.284 NA
HETATM   15  C4  UNL     1      18.717  18.995  33.854  1.00  0.00     0.316 C
HETATM   16  O1  UNL     1      17.565  19.301  33.906  1.00  0.00    -0.255 OA
BRANCH  15  17
HETATM   17  C2  UNL     1      18.623  17.691  32.708  1.00  0.00     0.087 C
HETATM   18  C1  UNL     1      17.415  18.024  31.912  1.00  0.00     0.020 C
HETATM   19  C3  UNL     1      18.352  16.491  33.634  1.00  0.00     0.020 C
ENDBRANCH  15  17
ENDBRANCH   1  14
TORSDOF 4
ENDMDL