MODEL 3
REMARK VINA RESULT: -6.580144604      4.127      6.642
REMARK  3 active torsions:
REMARK  status: ('A' for Active; 'I' for Inactive)
REMARK    1  A    between atoms: C2_2  and  C13_20
REMARK       I    between atoms: N1_3  and  C3_5
REMARK    2  A    between atoms: C3_5  and  C4_7
REMARK    3  A    between atoms: N2_11  and  C8_12
ROOT
HETATM    1  C4  UNL     1      22.876  16.570  31.518  1.00  0.00     0.322 C
HETATM    2  C5  UNL     1      22.225  16.583  32.909  1.00  0.00     0.053 C
HETATM    3  C6  UNL     1      20.950  17.362  32.959  1.00  0.00     0.014 C
HETATM    4  C7  UNL     1      23.441  17.431  33.246  1.00  0.00     0.283 C
HETATM    5  N2  UNL     1      23.811  17.549  31.874  1.00  0.00     0.134 N
ENDROOT
BRANCH   1   6
HETATM    6  C3  UNL     1      23.259  15.212  31.173  1.00  0.00     0.256 C
HETATM    7  N1  UNL     1      23.144  14.169  32.131  1.00  0.00    -0.323 N
HETATM    8  C2  UNL     1      24.071  13.405  32.533  1.00  0.00     0.085 C
ATOM      9  H1  UNL     1      22.220  14.021  32.536  1.00  0.00     0.169 HD
HETATM   10  C1  UNL     1      25.470  13.490  32.045  1.00  0.00     0.076 C
HETATM   11  O1  UNL     1      23.699  14.897  30.045  1.00  0.00    -0.271 OA
BRANCH   8  12
HETATM   12  C13 UNL     1      23.727  12.388  33.536  1.00  0.00     0.222 C
HETATM   13  O2  UNL     1      24.586  11.721  34.142  1.00  0.00    -0.643 OA
HETATM   14  O3  UNL     1      22.392  12.137  33.843  1.00  0.00    -0.643 OA
ENDBRANCH   8  12
ENDBRANCH   1   6
BRANCH   5  15
HETATM   15  C8  UNL     1      25.169  17.503  31.499  1.00  0.00     0.421 C
HETATM   16  C9  UNL     1      25.305  18.056  30.095  1.00  0.00     0.067 C
HETATM   17  C10 UNL     1      25.711  19.500  30.215  1.00  0.00     0.036 C
HETATM   18  C11 UNL     1      25.569  19.759  31.710  1.00  0.00     0.184 C
HETATM   19  C12 UNL     1      26.466  20.859  32.169  1.00  0.00     0.040 C
HETATM   20  N3  UNL     1      25.948  18.469  32.264  1.00  0.00    -0.040 N
ATOM     21  H32 UNL     1      25.826  18.397  33.274  1.00  0.00     0.280 HD
ATOM     22  H31 UNL     1      26.953  18.292  32.259  1.00  0.00     0.280 HD
ENDBRANCH   5  15
TORSDOF 3
ENDMDL