MODEL 3
REMARK VINA RESULT: -6.704781437      2.207      3.639
REMARK  3 active torsions:
REMARK  status: ('A' for Active; 'I' for Inactive)
REMARK    1  A    between atoms: C7_7  and  C8_8
REMARK    2  A    between atoms: C8_8  and  C9_9
REMARK    3  A    between atoms: C10_12  and  O3_13
ROOT
HETATM    1  C1  UNL     1      25.648  13.930  32.376  1.00  0.00     0.011 C
HETATM    2  C2  UNL     1      24.282  14.461  32.158  1.00  0.00    -0.006 C
HETATM    3  C3  UNL     1      23.271  14.105  33.206  1.00  0.00     0.014 C
HETATM    4  C4  UNL     1      22.593  15.432  33.453  1.00  0.00     0.044 C
HETATM    5  C5  UNL     1      21.920  15.835  32.175  1.00  0.00     0.092 C
HETATM    6  C6  UNL     1      23.029  16.330  31.248  1.00  0.00     0.039 C
HETATM    7  C7  UNL     1      24.250  16.008  32.015  1.00  0.00     0.006 C
HETATM    8  C10 UNL     1      23.833  16.330  33.423  1.00  0.00     0.072 C
HETATM    9  C11 UNL     1      23.508  17.732  33.744  1.00  0.00     0.039 C
HETATM   10  C12 UNL     1      22.711  17.789  35.043  1.00  0.00     0.012 C
HETATM   11  C13 UNL     1      21.255  18.037  34.853  1.00  0.00     0.103 C
HETATM   12  C14 UNL     1      20.722  17.739  33.516  1.00  0.00     0.217 C
HETATM   13  O4  UNL     1      19.798  18.550  33.202  1.00  0.00    -0.274 OA
HETATM   14  N1  UNL     1      20.919  16.816  32.454  1.00  0.00    -0.356 N
ATOM     15  H1  UNL     1      20.193  16.864  31.740  1.00  0.00     0.162 HD
ENDROOT
BRANCH   7  16
HETATM   16  C8  UNL     1      25.548  16.484  31.548  1.00  0.00     0.126 C
BRANCH  16  17
HETATM   17  C9  UNL     1      25.686  17.700  30.776  1.00  0.00     0.173 C
HETATM   18  O1  UNL     1      25.770  17.746  29.543  1.00  0.00    -0.648 OA
HETATM   19  O2  UNL     1      25.737  18.975  31.408  1.00  0.00    -0.648 OA
ENDBRANCH  16  17
ENDBRANCH   7  16
BRANCH   8  20
HETATM   20  O3  UNL     1      24.712  15.854  34.392  1.00  0.00    -0.389 OA
ATOM     21  H3  UNL     1      25.566  16.227  34.206  1.00  0.00     0.210 HD
ENDBRANCH   8  20
TORSDOF 3
ENDMDL