MODEL 1
REMARK VINA RESULT: -6.384157214      0.000      0.000
REMARK  5 active torsions:
REMARK  status: ('A' for Active; 'I' for Inactive)
REMARK    1  A    between atoms: C3_3  and  N1_4
REMARK    2  A    between atoms: N1_4  and  C4_6
REMARK    3  A    between atoms: C4_6  and  N2_8
REMARK    4  A    between atoms: N2_8  and  C5_10
REMARK    5  A    between atoms: C5_10  and  C6_11
ROOT
HETATM    1  C1  UNL     1      24.287  17.849  33.599  1.00  0.00     0.015 C
HETATM    2  C2  UNL     1      24.341  17.703  32.403  1.00  0.00    -0.086 C
HETATM    3  C3  UNL     1      24.390  17.505  30.944  1.00  0.00     0.095 C
HETATM    4  C10 UNL     1      24.210  18.801  30.241  1.00  0.00     0.044 C
HETATM    5  C11 UNL     1      25.534  19.503  30.419  1.00  0.00     0.004 C
HETATM    6  C12 UNL     1      26.517  18.481  30.896  1.00  0.00     0.004 C
HETATM    7  C13 UNL     1      25.841  17.153  30.634  1.00  0.00     0.044 C
ENDROOT
BRANCH   3   8
HETATM    8  N1  UNL     1      23.494  16.461  30.532  1.00  0.00    -0.347 N
ATOM      9  H1  UNL     1      23.158  16.479  29.569  1.00  0.00     0.163 HD
BRANCH   8  10
HETATM   10  C4  UNL     1      23.047  15.416  31.359  1.00  0.00     0.169 C
HETATM   11  S1  UNL     1      24.122  14.307  31.854  1.00  0.00    -0.041 SA
BRANCH  10  12
HETATM   12  N2  UNL     1      21.703  15.316  31.773  1.00  0.00    -0.364 N
ATOM     13  H2  UNL     1      21.080  14.783  31.165  1.00  0.00     0.162 HD
BRANCH  12  14
HETATM   14  C5  UNL     1      21.116  15.877  32.945  1.00  0.00     0.159 C
BRANCH  14  15
HETATM   15  C6  UNL     1      20.191  17.032  32.637  1.00  0.00     0.177 C
HETATM   16  C7  UNL     1      18.904  16.804  33.350  1.00  0.00     0.089 C
HETATM   17  N3  UNL     1      18.357  17.878  34.078  1.00  0.00    -0.398 N
HETATM   18  C8  UNL     1      19.192  18.962  34.429  1.00  0.00     0.145 C
ATOM     19  H3  UNL     1      17.373  17.874  34.347  1.00  0.00     0.158 HD
HETATM   20  C9  UNL     1      20.635  18.545  34.329  1.00  0.00     0.188 C
HETATM   21  O1  UNL     1      20.861  18.181  33.019  1.00  0.00    -0.377 OA
ENDBRANCH  14  15
ENDBRANCH  12  14
ENDBRANCH  10  12
ENDBRANCH   8  10
ENDBRANCH   3   8
TORSDOF 5
ENDMDL