MODEL 1
REMARK VINA RESULT: -6.461771518      0.000      0.000
REMARK  5 active torsions:
REMARK  status: ('A' for Active; 'I' for Inactive)
REMARK    1  A    between atoms: N1_1  and  C1_5
REMARK    2  A    between atoms: C1_5  and  C2_6
REMARK    3  A    between atoms: C1_5  and  C4_10
REMARK    4  A    between atoms: C2_6  and  C3_7
REMARK    5  A    between atoms: C3_7  and  O1_8
ROOT
HETATM    1  C4  UNL     1      21.715  16.992  33.340  1.00  0.00    -0.004 A
HETATM    2  C5  UNL     1      21.107  16.372  32.152  1.00  0.00     0.018 A
HETATM    3  C6  UNL     1      21.541  15.538  33.311  1.00  0.00    -0.003 A
HETATM    4  C7  UNL     1      22.750  14.684  33.271  1.00  0.00     0.010 C
HETATM    5  C8  UNL     1      23.996  15.256  33.838  1.00  0.00    -0.013 C
HETATM    6  C9  UNL     1      25.098  15.450  32.791  1.00  0.00     0.010 C
HETATM    7  C10 UNL     1      24.585  16.330  31.675  1.00  0.00    -0.007 C
HETATM    8  C11 UNL     1      25.754  16.607  30.758  1.00  0.00     0.032 C
HETATM    9  C12 UNL     1      25.633  18.004  30.146  1.00  0.00     0.232 C
HETATM   10  N2  UNL     1      25.828  18.882  31.283  1.00  0.00    -0.075 N
ATOM     11  H21 UNL     1      25.986  19.845  30.988  1.00  0.00     0.277 HD
ATOM     12  H22 UNL     1      26.723  18.708  31.739  1.00  0.00     0.277 HD
HETATM   13  C13 UNL     1      24.763  18.790  32.191  1.00  0.00     0.237 C
HETATM   14  C14 UNL     1      23.879  17.566  32.129  1.00  0.00     0.020 C
HETATM   15  C15 UNL     1      23.126  17.469  33.393  1.00  0.00     0.003 C
HETATM   16  C16 UNL     1      23.825  16.621  34.465  1.00  0.00     0.010 C
ENDROOT
BRANCH   1  17
HETATM   17  C1  UNL     1      20.697  17.717  34.240  1.00  0.00     0.194 C
BRANCH  17  18
HETATM   18  N1  UNL     1      20.918  19.119  34.291  1.00  0.00    -0.074 N
ATOM     19  H13 UNL     1      21.864  19.374  34.006  1.00  0.00     0.274 HD
ATOM     20  H12 UNL     1      20.410  19.618  33.562  1.00  0.00     0.274 HD
ATOM     21  H11 UNL     1      20.689  19.457  35.225  1.00  0.00     0.274 HD
ENDBRANCH  17  18
BRANCH  17  22
HETATM   22  C2  UNL     1      19.286  17.456  33.739  1.00  0.00     0.059 C
BRANCH  22  23
HETATM   23  C3  UNL     1      18.686  18.787  33.335  1.00  0.00     0.166 C
BRANCH  23  24
HETATM   24  O1  UNL     1      17.672  19.086  34.240  1.00  0.00    -0.401 OA
ATOM     25  H1  UNL     1      17.756  20.002  34.475  1.00  0.00     0.209 HD
ENDBRANCH  23  24
ENDBRANCH  22  23
ENDBRANCH  17  22
ENDBRANCH   1  17
TORSDOF 5
ENDMDL