MODEL 5
REMARK VINA RESULT: -6.033617853      1.919      3.406
REMARK  3 active torsions:
REMARK  status: ('A' for Active; 'I' for Inactive)
REMARK       I    between atoms: N1_2  and  C2_4
REMARK       I    between atoms: C2_4  and  N2_6
REMARK    1  A    between atoms: N2_6  and  C3_8
REMARK    2  A    between atoms: C3_8  and  C4_9
REMARK       I    between atoms: C4_9  and  N3_11
REMARK    3  A    between atoms: N3_11  and  C5_13
ROOT
HETATM    1  C3  UNL     1      22.116  16.727  32.981  1.00  0.00     0.115 C
HETATM    2  C11 UNL     1      21.000  16.178  32.118  1.00  0.00     0.041 C
HETATM    3  C12 UNL     1      20.053  17.078  32.882  1.00  0.00     0.006 C
HETATM    4  C13 UNL     1      21.062  17.074  34.013  1.00  0.00     0.041 C
ENDROOT
BRANCH   1   5
HETATM    5  N2  UNL     1      22.803  17.866  32.423  1.00  0.00    -0.325 N
HETATM    6  C2  UNL     1      23.755  17.812  31.401  1.00  0.00     0.316 C
HETATM    7  N1  UNL     1      24.362  18.992  30.925  1.00  0.00    -0.347 N
HETATM    8  O1  UNL     1      24.082  16.720  30.896  1.00  0.00    -0.247 OA
HETATM    9  C1  UNL     1      25.355  18.984  29.866  1.00  0.00     0.151 C
ATOM     10  H1  UNL     1      24.093  19.884  31.339  1.00  0.00     0.163 HD
ATOM     11  H2  UNL     1      22.576  18.784  32.805  1.00  0.00     0.165 HD
ENDBRANCH   1   5
BRANCH   1  12
HETATM   12  C4  UNL     1      23.039  15.708  33.487  1.00  0.00     0.246 C
HETATM   13  O2  UNL     1      23.871  15.965  34.385  1.00  0.00    -0.271 OA
HETATM   14  N3  UNL     1      23.000  14.402  32.957  1.00  0.00    -0.354 N
ATOM     15  H3  UNL     1      22.321  14.194  32.225  1.00  0.00     0.162 HD
BRANCH  14  16
HETATM   16  C5  UNL     1      23.884  13.335  33.408  1.00  0.00     0.084 C
HETATM   17  C6  UNL     1      22.994  12.110  33.659  1.00  0.00     0.025 C
HETATM   18  C7  UNL     1      23.828  10.859  33.783  1.00  0.00     0.002 C
HETATM   19  C8  UNL     1      25.295  11.158  33.919  1.00  0.00     0.000 C
HETATM   20  C9  UNL     1      25.849  12.000  32.820  1.00  0.00     0.002 C
HETATM   21  C10 UNL     1      24.814  12.928  32.270  1.00  0.00     0.025 C
ENDBRANCH  14  16
ENDBRANCH   1  12
TORSDOF 3
ENDMDL