MODEL 2
REMARK VINA RESULT: -6.451790074      2.678      3.654
REMARK  4 active torsions:
REMARK  status: ('A' for Active; 'I' for Inactive)
REMARK    1  A    between atoms: C2_2  and  C3_3
REMARK       I    between atoms: C3_3  and  N1_5
REMARK       I    between atoms: C4_7  and  N2_8
REMARK       I    between atoms: C4_7  and  N4_13
REMARK    2  A    between atoms: N2_8  and  C5_10
REMARK    3  A    between atoms: N4_13  and  C7_15
REMARK    4  A    between atoms: C11_19  and  O2_21
ROOT
HETATM    1  C5  UNL     1      23.554  13.313  33.343  1.00  0.00     0.262 C
HETATM    2  C6  UNL     1      23.349  11.942  32.901  1.00  0.00     0.079 C
HETATM    3  N3  UNL     1      23.178  10.855  32.568  1.00  0.00    -0.196 NA
ENDROOT
BRANCH   1   4
HETATM    4  N2  UNL     1      23.292  14.253  32.275  1.00  0.00    -0.214 N
HETATM    5  C4  UNL     1      22.456  15.379  32.402  1.00  0.00     0.677 C
HETATM    6  N1  UNL     1      21.521  15.368  33.272  1.00  0.00    -0.160 N
HETATM    7  N4  UNL     1      22.652  16.494  31.581  1.00  0.00    -0.222 N
HETATM    8  C3  UNL     1      20.603  16.389  33.534  1.00  0.00     0.235 C
ATOM      9  H1  UNL     1      21.434  14.523  33.836  1.00  0.00     0.187 HD
HETATM   10  O1  UNL     1      20.847  17.294  34.382  1.00  0.00    -0.273 OA
ATOM     11  H4  UNL     1      22.128  16.537  30.707  1.00  0.00     0.178 HD
ATOM     12  H2  UNL     1      23.741  14.090  31.373  1.00  0.00     0.178 HD
BRANCH   8  13
HETATM   13  C2  UNL     1      19.285  16.453  32.815  1.00  0.00     0.099 C
HETATM   14  C1  UNL     1      18.623  17.787  33.013  1.00  0.00     0.014 C
ENDBRANCH   8  13
BRANCH   7  15
HETATM   15  C7  UNL     1      23.552  17.597  31.887  1.00  0.00     0.102 C
HETATM   16  C8  UNL     1      24.535  17.246  32.977  1.00  0.00     0.026 C
HETATM   17  C9  UNL     1      25.548  18.387  33.019  1.00  0.00     0.005 C
HETATM   18  C10 UNL     1      26.432  18.221  31.812  1.00  0.00     0.037 C
HETATM   19  C11 UNL     1      25.675  17.906  30.562  1.00  0.00     0.056 C
HETATM   20  C12 UNL     1      26.216  18.832  29.470  1.00  0.00     0.045 C
HETATM   21  C13 UNL     1      24.199  18.141  30.652  1.00  0.00     0.063 C
BRANCH  19  22
HETATM   22  O2  UNL     1      25.960  16.603  30.130  1.00  0.00    -0.390 OA
ATOM     23  H2  UNL     1      26.325  16.616  29.253  1.00  0.00     0.210 HD
ENDBRANCH  19  22
ENDBRANCH   7  15
ENDBRANCH   1   4
TORSDOF 4
ENDMDL