MODEL 2
REMARK VINA RESULT: -5.962809169      3.013      3.818
REMARK  4 active torsions:
REMARK  status: ('A' for Active; 'I' for Inactive)
REMARK    1  A    between atoms: N1_2  and  C2_4
REMARK    2  A    between atoms: C2_4  and  C5_7
REMARK    3  A    between atoms: N2_10  and  C8_11
REMARK    4  A    between atoms: C8_11  and  C9_12
ROOT
HETATM    1  C5  UNL     1      26.467  17.979  30.581  1.00  0.00     0.214 C
HETATM    2  C6  UNL     1      25.950  16.784  31.203  1.00  0.00     0.051 C
HETATM    3  C7  UNL     1      25.088  16.828  32.447  1.00  0.00     0.106 C
HETATM    4  N2  UNL     1      23.894  17.692  32.298  1.00  0.00    -0.252 NA
HETATM    5  C14 UNL     1      24.041  18.487  31.206  1.00  0.00    -0.070 C
HETATM    6  C15 UNL     1      24.409  19.204  30.060  1.00  0.00     0.330 C
HETATM    7  N4  UNL     1      25.720  18.696  29.564  1.00  0.00    -0.058 N
ATOM      8  H41 UNL     1      25.598  18.123  28.729  1.00  0.00     0.278 HD
ATOM      9  H42 UNL     1      26.278  19.452  29.167  1.00  0.00     0.278 HD
ENDROOT
BRANCH   4  10
HETATM   10  C8  UNL     1      22.660  17.025  32.361  1.00  0.00     0.110 C
BRANCH  10  11
HETATM   11  C9  UNL     1      22.103  16.658  33.665  1.00  0.00     0.025 C
HETATM   12  C10 UNL     1      20.615  16.401  33.504  1.00  0.00     0.009 C
HETATM   13  C11 UNL     1      19.818  17.626  33.228  1.00  0.00     0.028 C
HETATM   14  C12 UNL     1      20.027  18.584  34.408  1.00  0.00     0.232 C
HETATM   15  N3  UNL     1      21.438  18.906  34.405  1.00  0.00    -0.075 N
HETATM   16  C13 UNL     1      22.263  17.766  34.678  1.00  0.00     0.238 C
ATOM     17  H32 UNL     1      21.710  19.355  33.530  1.00  0.00     0.277 HD
ATOM     18  H31 UNL     1      21.642  19.669  35.051  1.00  0.00     0.277 HD
ENDBRANCH  10  11
ENDBRANCH   4  10
BRANCH   1  19
HETATM   19  C2  UNL     1      27.759  17.610  29.818  1.00  0.00     0.046 C
HETATM   20  C3  UNL     1      27.819  16.076  29.761  1.00  0.00     0.039 C
HETATM   21  C4  UNL     1      28.989  18.053  30.567  1.00  0.00     0.039 C
BRANCH  19  22
HETATM   22  N1  UNL     1      27.820  18.091  28.500  1.00  0.00    -0.415 N
HETATM   23  C1  UNL     1      28.558  17.339  27.544  1.00  0.00     0.140 C
ATOM     24  H1  UNL     1      27.349  18.956  28.236  1.00  0.00     0.153 HD
ENDBRANCH  19  22
ENDBRANCH   1  19
TORSDOF 4
ENDMDL