MODEL 2
REMARK VINA RESULT: -5.867138929      0.050      1.003
REMARK  5 active torsions:
REMARK  status: ('A' for Active; 'I' for Inactive)
REMARK    1  A    between atoms: C5_7  and  C6_8
REMARK    2  A    between atoms: C6_8  and  N2_10
REMARK    3  A    between atoms: N2_10  and  C7_12
REMARK    4  A    between atoms: C7_12  and  C8_13
REMARK       I    between atoms: C8_13  and  N3_15
REMARK    5  A    between atoms: N3_15  and  C9_17
ROOT
HETATM    1  N2  UNL     1      22.340  15.670  31.159  1.00  0.00    -0.374 N
ATOM      2  H2  UNL     1      21.506  15.657  30.572  1.00  0.00     0.160 HD
ENDROOT
BRANCH   1   3
HETATM    3  C6  UNL     1      22.239  15.471  32.545  1.00  0.00     0.096 C
HETATM    4  S1  UNL     1      23.272  14.412  33.221  1.00  0.00    -0.063 SA
BRANCH   3   5
HETATM    5  C5  UNL     1      21.248  16.185  33.356  1.00  0.00     0.138 C
HETATM    6  N1  UNL     1      21.727  17.434  33.817  1.00  0.00    -0.411 N
HETATM    7  C4  UNL     1      20.795  18.505  33.889  1.00  0.00     0.115 C
ATOM      8  H1  UNL     1      22.702  17.562  34.087  1.00  0.00     0.154 HD
HETATM    9  C3  UNL     1      19.516  17.977  34.486  1.00  0.00     0.023 C
HETATM   10  C2  UNL     1      18.893  17.067  33.451  1.00  0.00    -0.015 C
HETATM   11  C1  UNL     1      18.070  17.916  32.476  1.00  0.00     0.010 C
HETATM   12  C13 UNL     1      19.879  16.216  32.737  1.00  0.00     0.036 C
ENDBRANCH   3   5
ENDBRANCH   1   3
BRANCH   1  13
HETATM   13  C7  UNL     1      23.649  15.893  30.577  1.00  0.00     0.223 C
BRANCH  13  14
HETATM   14  C8  UNL     1      24.124  17.288  30.867  1.00  0.00     0.235 C
HETATM   15  O1  UNL     1      23.262  18.137  31.175  1.00  0.00    -0.272 OA
HETATM   16  N3  UNL     1      25.501  17.596  30.785  1.00  0.00    -0.352 N
ATOM     17  H3  UNL     1      26.175  16.875  30.531  1.00  0.00     0.163 HD
BRANCH  16  18
HETATM   18  C9  UNL     1      25.941  18.937  31.065  1.00  0.00     0.022 C
HETATM   19  C10 UNL     1      25.737  19.311  32.520  1.00  0.00     0.037 C
HETATM   20  C11 UNL     1      25.161  19.950  30.239  1.00  0.00     0.037 C
HETATM   21  C12 UNL     1      27.390  19.059  30.650  1.00  0.00     0.037 C
ENDBRANCH  16  18
ENDBRANCH  13  14
ENDBRANCH   1  13
TORSDOF 5
ENDMDL