MODEL 2
REMARK VINA RESULT: -6.449552539      2.873      8.505
REMARK  3 active torsions:
REMARK  status: ('A' for Active; 'I' for Inactive)
REMARK       I    between atoms: C3_3  and  N1_5
REMARK    1  A    between atoms: N1_5  and  C4_7
REMARK    2  A    between atoms: C4_7  and  C5_8
REMARK       I    between atoms: C5_8  and  N2_10
REMARK       I    between atoms: N2_10  and  C6_12
REMARK       I    between atoms: C6_12  and  N3_14
REMARK    3  A    between atoms: N3_14  and  C7_16
ROOT
HETATM    1  C1  UNL     1      27.824  10.989  29.207  1.00  0.00     0.022 C
HETATM    2  C2  UNL     1      27.144  10.832  30.198  1.00  0.00    -0.017 C
HETATM    3  C3  UNL     1      26.311  10.645  31.369  1.00  0.00     0.296 C
HETATM    4  O1  UNL     1      26.338   9.533  31.915  1.00  0.00    -0.258 OA
HETATM    5  N1  UNL     1      25.512  11.721  31.837  1.00  0.00    -0.342 N
ATOM      6  H1  UNL     1      25.547  12.609  31.337  1.00  0.00     0.163 HD
ENDROOT
BRANCH   5   7
HETATM    7  C4  UNL     1      24.657  11.610  32.986  1.00  0.00     0.226 C
BRANCH   7   8
HETATM    8  C5  UNL     1      23.673  12.740  33.051  1.00  0.00     0.243 C
HETATM    9  O2  UNL     1      22.645  12.584  33.732  1.00  0.00    -0.271 OA
HETATM   10  N2  UNL     1      23.932  13.928  32.351  1.00  0.00    -0.278 N
HETATM   11  C6  UNL     1      23.121  15.053  32.315  1.00  0.00     0.323 C
ATOM     12  H2  UNL     1      24.801  13.969  31.818  1.00  0.00     0.173 HD
HETATM   13  O3  UNL     1      23.572  16.035  31.596  1.00  0.00    -0.247 OA
HETATM   14  N3  UNL     1      21.895  15.205  32.972  1.00  0.00    -0.338 N
ATOM     15  H3  UNL     1      21.525  14.443  33.542  1.00  0.00     0.164 HD
BRANCH  14  16
HETATM   16  C7  UNL     1      21.135  16.460  32.846  1.00  0.00     0.086 C
HETATM   17  C8  UNL     1      19.763  16.095  32.395  1.00  0.00     0.025 C
HETATM   18  C9  UNL     1      18.791  17.245  32.434  1.00  0.00     0.002 C
HETATM   19  C10 UNL     1      18.503  17.726  33.822  1.00  0.00     0.000 C
HETATM   20  C11 UNL     1      19.393  18.879  34.232  1.00  0.00     0.000 C
HETATM   21  C12 UNL     1      20.851  18.584  34.025  1.00  0.00     0.002 C
HETATM   22  C13 UNL     1      21.190  17.131  34.180  1.00  0.00     0.025 C
ENDBRANCH  14  16
ENDBRANCH   7   8
ENDBRANCH   5   7
TORSDOF 3
ENDMDL