MODEL 1
REMARK VINA RESULT: -7.038633085      0.000      0.000
REMARK  6 active torsions:
REMARK  status: ('A' for Active; 'I' for Inactive)
REMARK    1  A    between atoms: C3_3  and  N1_4
REMARK    2  A    between atoms: N2_7  and  C6_8
REMARK    3  A    between atoms: C6_8  and  C7_9
REMARK    4  A    between atoms: C7_9  and  C8_10
REMARK       I    between atoms: C8_10  and  N3_12
REMARK    5  A    between atoms: C11_15  and  C12_16
REMARK    6  A    between atoms: C17_25  and  O2_26
ROOT
HETATM    1  C1  UNL     1      27.669  11.610  27.932  1.00  0.00     0.013 C
HETATM    2  C2  UNL     1      27.828  12.260  28.934  1.00  0.00    -0.089 C
HETATM    3  C3  UNL     1      28.038  13.062  30.137  1.00  0.00     0.330 C
ENDROOT
BRANCH   3   4
HETATM    4  N1  UNL     1      26.802  13.529  30.706  1.00  0.00    -0.050 N
HETATM    5  C4  UNL     1      26.030  12.415  31.245  1.00  0.00     0.266 C
HETATM    6  C5  UNL     1      24.895  12.995  32.025  1.00  0.00     0.268 C
HETATM    7  N2  UNL     1      24.752  14.430  31.803  1.00  0.00    -0.036 N
HETATM    8  C15 UNL     1      24.677  14.603  30.358  1.00  0.00     0.268 C
HETATM    9  C17 UNL     1      25.910  15.157  32.255  1.00  0.00     0.349 C
HETATM   10  C16 UNL     1      25.978  14.201  29.748  1.00  0.00     0.266 C
HETATM   11  C18 UNL     1      27.135  14.376  31.835  1.00  0.00     0.300 C
BRANCH   7  12
HETATM   12  C6  UNL     1      23.557  14.864  32.460  1.00  0.00     0.250 C
BRANCH  12  13
HETATM   13  C7  UNL     1      22.612  15.612  31.564  1.00  0.00     0.131 C
BRANCH  13  14
HETATM   14  C8  UNL     1      22.477  16.994  32.071  1.00  0.00     0.221 C
HETATM   15  O1  UNL     1      23.200  17.933  31.679  1.00  0.00    -0.273 OA
HETATM   16  N3  UNL     1      21.488  17.259  33.042  1.00  0.00    -0.352 N
HETATM   17  C9  UNL     1      20.605  16.199  33.547  1.00  0.00     0.126 C
HETATM   18  C14 UNL     1      21.269  18.572  33.607  1.00  0.00     0.126 C
HETATM   19  C10 UNL     1      19.209  16.693  33.157  1.00  0.00     0.032 C
HETATM   20  C11 UNL     1      18.892  17.849  34.064  1.00  0.00     0.053 C
HETATM   21  C13 UNL     1      20.049  18.709  34.414  1.00  0.00     0.032 C
BRANCH  20  22
HETATM   22  C12 UNL     1      17.857  18.672  33.385  1.00  0.00     0.091 C
HETATM   23  N4  UNL     1      17.378  19.717  33.944  1.00  0.00    -0.391 N
ATOM     24  H42 UNL     1      17.726  19.972  34.869  1.00  0.00     0.157 HD
ATOM     25  H41 UNL     1      16.669  20.282  33.478  1.00  0.00     0.157 HD
HETATM   26  N5  UNL     1      17.368  18.314  32.083  1.00  0.00    -0.088 NA
ENDBRANCH  20  22
ENDBRANCH  13  14
ENDBRANCH  12  13
ENDBRANCH   7  12
BRANCH   9  27
HETATM   27  O2  UNL     1      25.941  16.373  31.557  1.00  0.00    -0.368 OA
ATOM     28  H2  UNL     1      25.452  17.007  32.067  1.00  0.00     0.212 HD
ENDBRANCH   9  27
ENDBRANCH   3   4
TORSDOF 6
ENDMDL