MODEL 4
REMARK VINA RESULT: -6.590526050      2.358      6.063
REMARK  4 active torsions:
REMARK  status: ('A' for Active; 'I' for Inactive)
REMARK    1  A    between atoms: C3_4  and  C4_5
REMARK    2  A    between atoms: N3_13  and  C7_14
REMARK    3  A    between atoms: C7_14  and  C8_15
REMARK    4  A    between atoms: C8_15  and  C9_17
REMARK       I    between atoms: C9_17  and  N4_19
ROOT
HETATM    1  C1  UNL     1      26.177  20.565  33.009  1.00  0.00     0.115 C
HETATM    2  N1  UNL     1      26.291  19.346  33.355  1.00  0.00    -0.389 N
HETATM    3  C2  UNL     1      26.817  18.680  34.497  1.00  0.00     0.166 C
HETATM    4  C3  UNL     1      26.215  17.338  34.053  1.00  0.00     0.158 C
HETATM    5  N2  UNL     1      25.111  17.021  34.879  1.00  0.00    -0.334 N
ATOM      6  H2  UNL     1      25.375  17.038  35.864  1.00  0.00     0.164 HD
HETATM    7  C5  UNL     1      23.753  16.689  34.730  1.00  0.00     0.266 C
HETATM    8  O3  UNL     1      23.065  17.246  35.666  1.00  0.00    -0.267 OA
HETATM    9  C6  UNL     1      22.894  15.931  33.871  1.00  0.00     0.282 C
HETATM   10  N3  UNL     1      23.031  15.954  32.462  1.00  0.00    -0.013 N
HETATM   11  C11 UNL     1      23.398  14.532  32.018  1.00  0.00     0.249 C
HETATM   12  C12 UNL     1      23.794  14.798  30.588  1.00  0.00     0.031 C
HETATM   13  C13 UNL     1      24.378  16.186  30.574  1.00  0.00     0.036 C
HETATM   14  C14 UNL     1      24.251  16.539  32.057  1.00  0.00     0.203 C
HETATM   15  C15 UNL     1      24.524  17.960  32.308  1.00  0.00     0.062 C
HETATM   16  C16 UNL     1      25.962  18.074  32.802  1.00  0.00     0.125 C
ENDROOT
BRANCH  10  17
HETATM   17  C7  UNL     1      21.888  16.224  31.691  1.00  0.00     0.269 C
BRANCH  17  18
HETATM   18  C8  UNL     1      20.572  16.319  32.304  1.00  0.00     0.262 C
HETATM   19  O4  UNL     1      19.815  15.347  32.494  1.00  0.00    -0.281 OA
BRANCH  18  20
HETATM   20  C9  UNL     1      20.016  17.613  32.765  1.00  0.00     0.292 C
HETATM   21  O5  UNL     1      20.850  18.466  33.161  1.00  0.00    -0.264 OA
HETATM   22  N4  UNL     1      18.642  17.890  32.767  1.00  0.00    -0.359 N
HETATM   23  C10 UNL     1      18.110  19.139  33.212  1.00  0.00     0.149 C
ATOM     24  H4  UNL     1      17.996  17.171  32.439  1.00  0.00     0.162 HD
ENDBRANCH  18  20
ENDBRANCH  17  18
ENDBRANCH  10  17
BRANCH   4  25
HETATM   25  C4  UNL     1      27.249  16.283  33.935  1.00  0.00     0.206 C
HETATM   26  O1  UNL     1      28.019  16.177  32.958  1.00  0.00    -0.646 OA
HETATM   27  O2  UNL     1      27.365  15.369  34.962  1.00  0.00    -0.646 OA
ENDBRANCH   4  25
TORSDOF 4
ENDMDL