MODEL 1
REMARK VINA RESULT: -7.800661490      0.000      0.000
REMARK  7 active torsions:
REMARK  status: ('A' for Active; 'I' for Inactive)
REMARK    1  A    between atoms: N1_5  and  C5_6
REMARK    2  A    between atoms: C5_6  and  C6_7
REMARK       I    between atoms: C6_7  and  N2_9
REMARK    3  A    between atoms: N2_9  and  C7_11
REMARK    4  A    between atoms: N3_14  and  C10_15
REMARK    5  A    between atoms: C10_15  and  C11_16
REMARK    6  A    between atoms: C11_16  and  O2_17
REMARK    7  A    between atoms: C16_26  and  O4_27
ROOT
HETATM    1  C6  UNL     1      23.746  15.206  32.744  1.00  0.00     0.265 C
HETATM    2  O1  UNL     1      23.063  14.160  32.599  1.00  0.00    -0.267 OA
HETATM    3  N2  UNL     1      23.185  16.317  33.396  1.00  0.00    -0.351 N
ATOM      4  H2  UNL     1      23.753  17.157  33.505  1.00  0.00     0.163 HD
ENDROOT
BRANCH   3   5
HETATM    5  C7  UNL     1      21.816  16.322  33.928  1.00  0.00     0.101 C
HETATM    6  C8  UNL     1      21.562  17.683  34.474  1.00  0.00     0.056 C
HETATM    7  C9  UNL     1      20.186  18.214  34.276  1.00  0.00     0.267 C
HETATM    8  N3  UNL     1      19.445  17.611  33.218  1.00  0.00     0.018 N
HETATM    9  C12 UNL     1      20.342  17.162  32.181  1.00  0.00     0.281 C
HETATM   10  N4  UNL     1      18.853  16.442  33.737  1.00  0.00    -0.184 N
HETATM   11  C13 UNL     1      20.912  15.898  32.828  1.00  0.00     0.130 C
HETATM   12  C14 UNL     1      19.669  15.312  33.414  1.00  0.00     0.249 C
HETATM   13  O3  UNL     1      19.350  14.127  33.606  1.00  0.00    -0.271 OA
ATOM     14  H4  UNL     1      17.979  16.408  34.262  1.00  0.00     0.197 HD
BRANCH   8  15
HETATM   15  C10 UNL     1      18.400  18.459  32.743  1.00  0.00     0.291 C
BRANCH  15  16
HETATM   16  C11 UNL     1      18.221  19.729  33.512  1.00  0.00     0.194 C
BRANCH  16  17
HETATM   17  O2  UNL     1      17.026  19.737  34.218  1.00  0.00    -0.399 OA
ATOM     18  H2  UNL     1      17.153  20.005  35.120  1.00  0.00     0.209 HD
ENDBRANCH  16  17
ENDBRANCH  15  16
ENDBRANCH   8  15
ENDBRANCH   3   5
BRANCH   1  19
HETATM   19  C5  UNL     1      25.117  15.281  32.242  1.00  0.00     0.276 C
BRANCH  19  20
HETATM   20  N1  UNL     1      25.345  16.230  31.227  1.00  0.00    -0.039 N
HETATM   21  C4  UNL     1      26.426  15.932  30.323  1.00  0.00     0.244 C
HETATM   22  C3  UNL     1      26.940  17.285  29.810  1.00  0.00     0.041 C
HETATM   23  C2  UNL     1      26.039  18.233  30.554  1.00  0.00     0.010 C
HETATM   24  C1  UNL     1      26.533  19.596  30.727  1.00  0.00     0.020 C
HETATM   25  C16 UNL     1      24.641  18.102  29.997  1.00  0.00     0.154 C
HETATM   26  C17 UNL     1      25.870  17.452  31.870  1.00  0.00     0.255 C
HETATM   27  C15 UNL     1      24.185  16.751  30.573  1.00  0.00     0.275 C
BRANCH  25  28
HETATM   28  O4  UNL     1      23.839  19.134  30.415  1.00  0.00    -0.393 OA
ATOM     29  H4  UNL     1      23.645  19.730  29.701  1.00  0.00     0.210 HD
ENDBRANCH  25  28
ENDBRANCH  19  20
ENDBRANCH   1  19
TORSDOF 7
ENDMDL