MODEL 3
REMARK VINA RESULT: -6.571824837      2.594      4.362
REMARK  5 active torsions:
REMARK  status: ('A' for Active; 'I' for Inactive)
REMARK    1  A    between atoms: N2_5  and  C4_6
REMARK    2  A    between atoms: C4_6  and  C5_7
REMARK    3  A    between atoms: C8_12  and  C9_13
REMARK       I    between atoms: C9_13  and  N3_15
REMARK    4  A    between atoms: C12_18  and  C13_19
REMARK    5  A    between atoms: C15_23  and  O6_24
ROOT
HETATM    1  C1  UNL     1      25.358  11.232  33.567  1.00  0.00     0.272 C
HETATM    2  N1  UNL     1      25.573  12.546  33.071  1.00  0.00    -0.065 N
HETATM    3  C2  UNL     1      26.940  13.001  33.267  1.00  0.00     0.265 C
HETATM    4  C3  UNL     1      26.866  14.515  33.182  1.00  0.00     0.267 C
HETATM    5  N2  UNL     1      25.798  14.907  32.241  1.00  0.00    -0.040 N
HETATM    6  C6  UNL     1      25.816  13.932  31.155  1.00  0.00     0.267 C
HETATM    7  C7  UNL     1      25.333  12.574  31.647  1.00  0.00     0.265 C
HETATM    8  C8  UNL     1      24.550  14.781  32.897  1.00  0.00     0.308 C
HETATM    9  C16 UNL     1      24.631  13.461  33.699  1.00  0.00     0.280 C
ENDROOT
BRANCH   8  10
HETATM   10  C9  UNL     1      24.201  15.870  33.843  1.00  0.00     0.255 C
HETATM   11  O3  UNL     1      24.704  15.898  35.003  1.00  0.00    -0.271 OA
HETATM   12  N3  UNL     1      23.310  16.915  33.507  1.00  0.00    -0.324 N
HETATM   13  C10 UNL     1      23.011  17.929  34.520  1.00  0.00     0.129 C
HETATM   14  C15 UNL     1      22.659  17.095  32.232  1.00  0.00     0.223 C
HETATM   15  C11 UNL     1      21.497  17.896  34.691  1.00  0.00     0.035 C
HETATM   16  C12 UNL     1      20.777  18.092  33.376  1.00  0.00     0.092 C
HETATM   17  C14 UNL     1      21.170  16.933  32.448  1.00  0.00     0.069 C
BRANCH  16  18
HETATM   18  C13 UNL     1      19.329  18.084  33.642  1.00  0.00     0.177 C
HETATM   19  O4  UNL     1      18.783  17.017  34.004  1.00  0.00    -0.648 OA
HETATM   20  O5  UNL     1      18.621  19.249  33.485  1.00  0.00    -0.648 OA
ENDBRANCH  16  18
BRANCH  14  21
HETATM   21  O6  UNL     1      22.838  18.408  31.761  1.00  0.00    -0.377 OA
ATOM     22  H6  UNL     1      23.089  18.406  30.844  1.00  0.00     0.212 HD
ENDBRANCH  14  21
ENDBRANCH   8  10
BRANCH   5  23
HETATM   23  C4  UNL     1      26.183  16.168  31.728  1.00  0.00     0.351 C
BRANCH  23  24
HETATM   24  C5  UNL     1      25.923  16.462  30.329  1.00  0.00     0.199 C
HETATM   25  O1  UNL     1      26.904  16.537  29.544  1.00  0.00    -0.647 OA
HETATM   26  O2  UNL     1      24.678  16.669  29.778  1.00  0.00    -0.647 OA
ENDBRANCH  23  24
ENDBRANCH   5  23
TORSDOF 5
ENDMDL