MODEL 1
REMARK VINA RESULT: -6.495674231      0.000      0.000
REMARK  6 active torsions:
REMARK  status: ('A' for Active; 'I' for Inactive)
REMARK       I    between atoms: C2_2  and  N1_4
REMARK    1  A    between atoms: N1_4  and  C3_6
REMARK    2  A    between atoms: C3_6  and  C4_7
REMARK    3  A    between atoms: C4_7  and  C5_8
REMARK    4  A    between atoms: C5_8  and  C6_9
REMARK       I    between atoms: C6_9  and  N2_11
REMARK    5  A    between atoms: N3_14  and  C9_15
REMARK    6  A    between atoms: C9_15  and  N4_17
ROOT
HETATM    1  C6  UNL     1      21.972  17.043  32.500  1.00  0.00     0.235 C
HETATM    2  O2  UNL     1      21.682  18.245  32.752  1.00  0.00    -0.272 OA
HETATM    3  N2  UNL     1      23.070  16.697  31.693  1.00  0.00    -0.262 N
HETATM    4  C7  UNL     1      23.370  15.306  31.428  1.00  0.00     0.168 C
HETATM    5  C8  UNL     1      24.178  15.300  30.122  1.00  0.00     0.148 C
HETATM    6  N3  UNL     1      25.429  16.004  30.463  1.00  0.00    -0.341 N
HETATM    7  C15 UNL     1      25.282  17.219  31.195  1.00  0.00     0.261 C
HETATM    8  N6  UNL     1      23.892  17.674  31.132  1.00  0.00    -0.117 NA
ENDROOT
BRANCH   1   9
HETATM    9  C5  UNL     1      21.131  15.968  33.069  1.00  0.00     0.106 C
BRANCH   9  10
HETATM   10  C4  UNL     1      19.758  16.035  32.429  1.00  0.00     0.029 C
BRANCH  10  11
HETATM   11  C3  UNL     1      18.781  16.410  33.500  1.00  0.00     0.123 C
BRANCH  11  12
HETATM   12  N1  UNL     1      18.906  17.782  33.931  1.00  0.00    -0.361 N
HETATM   13  C2  UNL     1      18.184  18.843  33.334  1.00  0.00     0.213 C
HETATM   14  C1  UNL     1      18.354  20.236  33.818  1.00  0.00     0.117 C
HETATM   15  O1  UNL     1      17.389  18.653  32.392  1.00  0.00    -0.274 OA
ATOM     16  H1  UNL     1      19.542  17.995  34.699  1.00  0.00     0.162 HD
ENDBRANCH  11  12
ENDBRANCH  10  11
ENDBRANCH   9  10
ENDBRANCH   1   9
BRANCH   6  17
HETATM   17  C9  UNL     1      26.645  15.422  30.042  1.00  0.00     0.174 C
HETATM   18  S1  UNL     1      27.836  16.429  29.490  1.00  0.00    -0.041 SA
BRANCH  17  19
HETATM   19  N4  UNL     1      26.943  14.038  30.048  1.00  0.00    -0.333 N
HETATM   20  C10 UNL     1      26.902  13.071  31.128  1.00  0.00     0.155 C
HETATM   21  C11 UNL     1      27.028  11.734  30.446  1.00  0.00     0.258 C
HETATM   22  N5  UNL     1      27.937  12.047  29.363  1.00  0.00    -0.057 N
HETATM   23  C12 UNL     1      27.952  11.064  28.322  1.00  0.00     0.274 C
HETATM   24  C13 UNL     1      29.268  12.332  29.870  1.00  0.00     0.274 C
HETATM   25  C14 UNL     1      27.387  13.272  28.871  1.00  0.00     0.363 C
ENDBRANCH  17  19
ENDBRANCH   6  17
TORSDOF 6
ENDMDL