MODEL 1
REMARK VINA RESULT: -7.510686232      0.000      0.000
REMARK  5 active torsions:
REMARK  status: ('A' for Active; 'I' for Inactive)
REMARK    1  A    between atoms: C3_3  and  N1_4
REMARK       I    between atoms: N1_4  and  C4_6
REMARK       I    between atoms: C4_6  and  N2_8
REMARK    2  A    between atoms: N2_8  and  C5_10
REMARK    3  A    between atoms: C6_11  and  O2_12
REMARK    4  A    between atoms: C6_11  and  N3_14
REMARK    5  A    between atoms: C10_18  and  C11_19
REMARK       I    between atoms: C11_19  and  N4_21
REMARK       I    between atoms: N5_24  and  C14_25
ROOT
HETATM    1  C1  UNL     1      18.131  17.612  32.063  1.00  0.00     0.014 C
HETATM    2  C2  UNL     1      18.711  17.999  33.051  1.00  0.00    -0.098 C
HETATM    3  C3  UNL     1      19.392  18.465  34.259  1.00  0.00     0.217 C
ENDROOT
BRANCH   3   4
HETATM    4  N1  UNL     1      20.633  19.118  33.933  1.00  0.00    -0.333 N
HETATM    5  C4  UNL     1      21.871  18.576  34.333  1.00  0.00     0.320 C
HETATM    6  O1  UNL     1      21.892  17.508  34.983  1.00  0.00    -0.247 OA
HETATM    7  N2  UNL     1      23.119  19.201  34.024  1.00  0.00    -0.315 N
ATOM      8  H2  UNL     1      23.086  20.075  33.498  1.00  0.00     0.170 HD
ATOM      9  H1  UNL     1      20.616  19.990  33.403  1.00  0.00     0.165 HD
BRANCH   7  10
HETATM   10  C5  UNL     1      24.382  18.713  34.383  1.00  0.00     0.148 C
HETATM   11  C6  UNL     1      25.401  18.348  33.431  1.00  0.00     0.154 C
BRANCH  11  12
HETATM   12  O2  UNL     1      26.463  17.765  34.004  1.00  0.00    -0.345 OA
ATOM     13  H2  UNL     1      26.223  17.078  34.615  1.00  0.00     0.219 HD
ENDBRANCH  11  12
BRANCH  11  14
HETATM   14  N3  UNL     1      25.550  18.461  32.058  1.00  0.00    -0.347 N
HETATM   15  C7  UNL     1      26.453  19.249  31.274  1.00  0.00     0.126 C
HETATM   16  C8  UNL     1      25.551  19.878  30.204  1.00  0.00     0.022 C
HETATM   17  C9  UNL     1      24.483  18.866  30.026  1.00  0.00     0.037 C
HETATM   18  C10 UNL     1      24.738  17.786  31.022  1.00  0.00     0.178 C
BRANCH  18  19
HETATM   19  C11 UNL     1      25.350  16.614  30.444  1.00  0.00     0.242 C
HETATM   20  O3  UNL     1      26.252  16.711  29.582  1.00  0.00    -0.271 OA
HETATM   21  N4  UNL     1      24.956  15.312  30.827  1.00  0.00    -0.347 N
HETATM   22  C12 UNL     1      23.955  15.098  31.844  1.00  0.00     0.145 C
HETATM   23  C17 UNL     1      25.523  14.123  30.210  1.00  0.00     0.145 C
HETATM   24  C13 UNL     1      24.603  14.205  32.918  1.00  0.00     0.145 C
HETATM   25  N5  UNL     1      24.910  12.949  32.272  1.00  0.00    -0.349 N
HETATM   26  C14 UNL     1      24.369  11.707  32.705  1.00  0.00     0.215 C
HETATM   27  C16 UNL     1      25.805  13.005  31.146  1.00  0.00     0.145 C
HETATM   28  C15 UNL     1      23.449  11.615  33.857  1.00  0.00     0.117 C
HETATM   29  O4  UNL     1      24.664  10.638  32.113  1.00  0.00    -0.274 OA
ENDBRANCH  18  19
ENDBRANCH  11  14
ENDBRANCH   7  10
ENDBRANCH   3   4
TORSDOF 5
ENDMDL