MODEL 2
REMARK VINA RESULT: -6.833509438      3.443      4.511
REMARK  6 active torsions:
REMARK  status: ('A' for Active; 'I' for Inactive)
REMARK    1  A    between atoms: N1_2  and  C4_5
REMARK    2  A    between atoms: C4_5  and  C5_6
REMARK    3  A    between atoms: C9_11  and  C10_12
REMARK    4  A    between atoms: C10_12  and  C11_13
REMARK    5  A    between atoms: C12_14  and  C13_15
REMARK    6  A    between atoms: C13_15  and  N3_16
ROOT
HETATM    1  C5  UNL     1      24.375  18.321  36.067  1.00  0.00     0.158 C
HETATM    2  C6  UNL     1      24.575  18.641  34.611  1.00  0.00     0.264 C
HETATM    3  N2  UNL     1      24.857  17.352  33.952  1.00  0.00    -0.044 N
HETATM    4  C7  UNL     1      26.221  17.006  34.228  1.00  0.00     0.275 C
HETATM    5  C8  UNL     1      24.713  17.550  32.523  1.00  0.00     0.275 C
HETATM    6  C9  UNL     1      23.934  16.412  34.505  1.00  0.00     0.360 C
HETATM    7  O2  UNL     1      22.806  17.000  35.075  1.00  0.00    -0.251 OA
HETATM    8  N6  UNL     1      23.109  17.673  36.216  1.00  0.00    -0.090 NA
ENDROOT
BRANCH   6   9
HETATM    9  C10 UNL     1      23.531  15.308  33.557  1.00  0.00     0.158 C
BRANCH   9  10
HETATM   10  C11 UNL     1      22.179  15.514  33.036  1.00  0.00    -0.100 C
HETATM   11  C12 UNL     1      21.069  15.667  32.593  1.00  0.00    -0.076 C
BRANCH  11  12
HETATM   12  C13 UNL     1      19.727  15.870  32.042  1.00  0.00     0.366 C
BRANCH  12  13
HETATM   13  N3  UNL     1      19.132  17.013  32.656  1.00  0.00     0.106 N
HETATM   14  C14 UNL     1      20.170  18.003  32.975  1.00  0.00     0.298 C
HETATM   15  C15 UNL     1      19.274  18.310  34.147  1.00  0.00     0.154 C
HETATM   16  C16 UNL     1      18.240  19.325  33.745  1.00  0.00     0.149 C
HETATM   17  N5  UNL     1      18.840  16.951  33.998  1.00  0.00    -0.027 NA
HETATM   18  N4  UNL     1      17.646  18.919  32.485  1.00  0.00    -0.334 N
HETATM   19  C17 UNL     1      18.134  17.681  31.936  1.00  0.00     0.435 C
ATOM     20  H4  UNL     1      16.929  19.474  32.019  1.00  0.00     0.164 HD
HETATM   21  O1  UNL     1      17.644  17.277  30.859  1.00  0.00    -0.237 OA
ENDBRANCH  12  13
ENDBRANCH  11  12
ENDBRANCH   9  10
ENDBRANCH   6   9
BRANCH   1  22
HETATM   22  C4  UNL     1      24.608  19.464  36.987  1.00  0.00     0.261 C
BRANCH  22  23
HETATM   23  N1  UNL     1      25.332  19.199  38.178  1.00  0.00    -0.077 N
HETATM   24  C1  UNL     1      26.142  20.293  38.659  1.00  0.00     0.271 C
HETATM   25  C2  UNL     1      24.529  18.692  39.270  1.00  0.00     0.271 C
HETATM   26  C3  UNL     1      26.281  18.114  37.859  1.00  0.00     0.271 C
ENDBRANCH  22  23
ENDBRANCH   1  22
TORSDOF 6
ENDMDL