MODEL 3
REMARK VINA RESULT: -6.159052290      3.310      5.925
REMARK  7 active torsions:
REMARK  status: ('A' for Active; 'I' for Inactive)
REMARK    1  A    between atoms: C2_2  and  N1_3
REMARK    2  A    between atoms: N1_3  and  C19_26
REMARK    3  A    between atoms: N2_6  and  C5_7
REMARK    4  A    between atoms: N2_6  and  C17_24
REMARK    5  A    between atoms: C5_7  and  C6_8
REMARK    6  A    between atoms: C7_9  and  O1_10
REMARK    7  A    between atoms: C7_9  and  C8_12
ROOT
HETATM    1  C6  UNL     1      24.008  15.281  32.096  1.00  0.00     0.259 C
HETATM    2  C7  UNL     1      24.624  15.670  30.715  1.00  0.00     0.167 C
HETATM    3  C9  UNL     1      23.748  16.734  30.180  1.00  0.00     0.078 C
HETATM    4  C10 UNL     1      23.350  17.427  31.433  1.00  0.00     0.241 C
HETATM    5  N4  UNL     1      23.051  16.253  32.342  1.00  0.00    -0.058 N
HETATM    6  C11 UNL     1      23.272  16.884  33.660  1.00  0.00     0.238 C
HETATM    7  C12 UNL     1      21.916  17.303  34.155  1.00  0.00     0.029 C
HETATM    8  C13 UNL     1      21.025  16.230  33.576  1.00  0.00     0.029 C
HETATM    9  C14 UNL     1      21.679  16.068  32.223  1.00  0.00     0.238 C
ENDROOT
BRANCH   1  10
HETATM   10  C5  UNL     1      23.783  13.839  31.973  1.00  0.00     0.275 C
BRANCH  10  11
HETATM   11  N2  UNL     1      24.309  12.782  32.714  1.00  0.00    -0.055 N
HETATM   12  C4  UNL     1      25.653  12.832  33.185  1.00  0.00     0.266 C
HETATM   13  C3  UNL     1      26.048  11.500  33.794  1.00  0.00     0.266 C
HETATM   14  N1  UNL     1      25.062  10.471  33.632  1.00  0.00    -0.058 N
HETATM   15  C16 UNL     1      23.864  10.920  34.293  1.00  0.00     0.266 C
HETATM   16  C15 UNL     1      23.468  12.239  33.763  1.00  0.00     0.266 C
BRANCH  14  17
HETATM   17  C2  UNL     1      25.593   9.248  34.159  1.00  0.00     0.233 C
HETATM   18  C1  UNL     1      25.773   9.274  35.654  1.00  0.00     0.035 C
ENDBRANCH  14  17
BRANCH  14  19
HETATM   19  C19 UNL     1      24.733  10.360  32.236  1.00  0.00     0.223 A
HETATM   20  C17 UNL     1      24.420   8.987  31.911  1.00  0.00     0.223 A
HETATM   21  C18 UNL     1      25.583   9.595  31.285  1.00  0.00     0.071 A
ENDBRANCH  14  19
ENDBRANCH  10  11
ENDBRANCH   1  10
BRANCH   2  22
HETATM   22  O1  UNL     1      24.523  14.594  29.820  1.00  0.00    -0.378 OA
ATOM     23  H1  UNL     1      23.752  14.692  29.274  1.00  0.00     0.211 HD
ENDBRANCH   2  22
BRANCH   2  24
HETATM   24  C8  UNL     1      26.026  16.034  30.794  1.00  0.00     0.268 C
HETATM   25  N3  UNL     1      26.706  16.483  29.643  1.00  0.00    -0.059 NA
HETATM   26  O2  UNL     1      26.658  15.960  31.870  1.00  0.00    -0.273 OA
ENDBRANCH   2  24
TORSDOF 7
ENDMDL