MODEL 1
REMARK VINA RESULT: -7.087799351      0.000      0.000
REMARK  6 active torsions:
REMARK  status: ('A' for Active; 'I' for Inactive)
REMARK    1  A    between atoms: C3_5  and  C4_6
REMARK    2  A    between atoms: C3_5  and  N5_25
REMARK    3  A    between atoms: C4_6  and  C5_7
REMARK       I    between atoms: N2_11  and  C9_12
REMARK    4  A    between atoms: C9_12  and  C10_14
REMARK    5  A    between atoms: C10_14  and  N3_15
REMARK    6  A    between atoms: N5_25  and  N6_27
ROOT
HETATM    1  C1  UNL     1      16.340  17.914  30.978  1.00  0.00     0.037 C
HETATM    2  C2  UNL     1      17.410  17.745  31.537  1.00  0.00     0.000 C
HETATM    3  N1  UNL     1      18.633  17.527  32.167  1.00  0.00    -0.304 N
ATOM      4  H1  UNL     1      19.359  16.979  31.706  1.00  0.00     0.177 HD
HETATM    5  C3  UNL     1      18.836  18.020  33.323  1.00  0.00     0.104 C
ENDROOT
BRANCH   5   6
HETATM    6  C4  UNL     1      20.125  17.831  34.068  1.00  0.00     0.103 C
BRANCH   6   7
HETATM    7  C5  UNL     1      21.086  17.156  33.156  1.00  0.00     0.094 C
HETATM    8  C6  UNL     1      21.113  15.655  33.404  1.00  0.00     0.027 C
HETATM    9  C7  UNL     1      22.351  15.255  32.611  1.00  0.00     0.022 C
HETATM   10  C8  UNL     1      23.233  16.480  32.660  1.00  0.00     0.127 C
HETATM   11  N2  UNL     1      22.460  17.493  33.353  1.00  0.00    -0.342 N
HETATM   12  C9  UNL     1      23.074  18.567  34.062  1.00  0.00     0.267 C
HETATM   13  O1  UNL     1      22.280  19.363  34.615  1.00  0.00    -0.267 OA
BRANCH  12  14
HETATM   14  C10 UNL     1      24.505  18.761  34.158  1.00  0.00     0.276 C
BRANCH  14  15
HETATM   15  N3  UNL     1      25.110  18.694  35.453  1.00  0.00    -0.039 N
HETATM   16  C11 UNL     1      26.565  18.749  35.386  1.00  0.00     0.245 C
HETATM   17  C12 UNL     1      27.186  18.993  36.745  1.00  0.00     0.056 C
HETATM   18  C13 UNL     1      26.560  18.228  37.860  1.00  0.00     0.238 C
HETATM   19  N4  UNL     1      25.235  18.670  38.165  1.00  0.00    -0.068 N
HETATM   20  C14 UNL     1      24.957  18.750  39.583  1.00  0.00     0.272 C
HETATM   21  C15 UNL     1      24.914  19.956  37.585  1.00  0.00     0.265 C
HETATM   22  C17 UNL     1      24.308  17.725  37.567  1.00  0.00     0.265 C
HETATM   23  C16 UNL     1      24.726  19.930  36.122  1.00  0.00     0.271 C
HETATM   24  C18 UNL     1      24.640  17.509  36.107  1.00  0.00     0.271 C
ENDBRANCH  14  15
ENDBRANCH  12  14
ENDBRANCH   6   7
ENDBRANCH   5   6
BRANCH   5  25
HETATM   25  N5  UNL     1      17.819  18.778  33.946  1.00  0.00    -0.295 N
ATOM     26  H5  UNL     1      16.953  18.296  34.188  1.00  0.00     0.187 HD
BRANCH  25  27
HETATM   27  N6  UNL     1      17.910  20.134  34.255  1.00  0.00    -0.344 N
ATOM     28  H62 UNL     1      18.835  20.482  34.507  1.00  0.00     0.176 HD
ATOM     29  H61 UNL     1      17.128  20.788  34.246  1.00  0.00     0.176 HD
ENDBRANCH  25  27
ENDBRANCH   5  25
TORSDOF 6
ENDMDL