MODEL 2
REMARK VINA RESULT: -3.742478658      2.046      2.583
REMARK  5 active torsions:
REMARK  status: ('A' for Active; 'I' for Inactive)
REMARK    1  A    between atoms: C4_7  and  C5_8
REMARK    2  A    between atoms: C9_12  and  C10_13
REMARK    3  A    between atoms: C15_20  and  S1_21
REMARK    4  A    between atoms: S1_21  and  N4_24
REMARK    5  A    between atoms: N4_24  and  C16_26
ROOT
HETATM    1  C10 UNL     1      -3.540  -6.278  24.187  1.00  0.00     0.057 A
HETATM    2  N3  UNL     1      -4.414  -5.374  24.666  1.00  0.00    -0.364 N
ATOM      3  H3  UNL     1      -4.937  -4.774  24.029  1.00  0.00     0.165 HD
HETATM    4  C11 UNL     1      -4.591  -5.271  26.013  1.00  0.00     0.089 A
HETATM    5  C12 UNL     1      -3.892  -6.073  26.891  1.00  0.00     0.029 A
HETATM    6  C13 UNL     1      -2.986  -7.012  26.426  1.00  0.00    -0.021 A
HETATM    7  C14 UNL     1      -2.268  -7.834  27.284  1.00  0.00     0.037 A
HETATM    8  C15 UNL     1      -1.370  -8.762  26.795  1.00  0.00     0.080 A
HETATM    9  C19 UNL     1      -1.222  -8.833  25.426  1.00  0.00     0.026 A
HETATM   10  C20 UNL     1      -1.939  -8.013  24.566  1.00  0.00     0.016 A
HETATM   11  C21 UNL     1      -2.835  -7.086  25.054  1.00  0.00     0.002 A
ENDROOT
BRANCH   1  12
HETATM   12  C9  UNL     1      -3.382  -6.354  22.739  1.00  0.00     0.044 A
HETATM   13  C8  UNL     1      -3.528  -7.562  22.107  1.00  0.00    -0.010 A
HETATM   14  C7  UNL     1      -3.817  -8.705  22.796  1.00  0.00     0.014 A
HETATM   15  C25 UNL     1      -3.382  -7.644  20.753  1.00  0.00    -0.021 A
HETATM   16  C6  UNL     1      -3.972  -9.962  22.179  1.00  0.00     0.014 A
HETATM   17  C5  UNL     1      -3.822 -10.023  20.824  1.00  0.00    -0.007 A
HETATM   18  C26 UNL     1      -3.525  -8.842  20.121  1.00  0.00     0.026 A
HETATM   19  C24 UNL     1      -3.086  -6.472  20.049  1.00  0.00     0.058 A
HETATM   20  C23 UNL     1      -2.940  -5.257  20.690  1.00  0.00     0.156 A
HETATM   21  C22 UNL     1      -3.089  -5.184  22.068  1.00  0.00     0.168 A
HETATM   22  F2  UNL     1      -2.650  -4.135  19.972  1.00  0.00    -0.203 F
HETATM   23  F1  UNL     1      -2.956  -4.018  22.737  1.00  0.00    -0.202 F
BRANCH  17  24
HETATM   24  C4  UNL     1      -3.918 -11.270  20.091  1.00  0.00     0.061 A
HETATM   25  N1  UNL     1      -4.095 -11.567  18.817  1.00  0.00    -0.296 N
HETATM   26  C1  UNL     1      -4.244 -10.647  17.714  1.00  0.00     0.178 C
HETATM   27  N2  UNL     1      -4.152 -12.913  18.636  1.00  0.00    -0.310 N
HETATM   28  C2  UNL     1      -4.012 -13.524  19.806  1.00  0.00     0.109 A
ATOM     29  H2  UNL     1      -4.281 -13.382  17.738  1.00  0.00     0.186 HD
HETATM   30  C3  UNL     1      -3.865 -12.518  20.733  1.00  0.00     0.050 A
ENDBRANCH  17  24
ENDBRANCH   1  12
BRANCH   8  31
HETATM   31  S1  UNL     1      -0.454  -9.810  27.874  1.00  0.00     0.264 S
HETATM   32  O1  UNL     1      -0.052  -8.992  29.053  1.00  0.00    -0.200 OA
HETATM   33  O2  UNL     1       0.792 -10.207  27.100  1.00  0.00    -0.200 OA
BRANCH  31  34
HETATM   34  N4  UNL     1      -1.390 -11.174  28.264  1.00  0.00    -0.260 N
ATOM     35  H4  UNL     1      -1.021 -12.115  28.127  1.00  0.00     0.181 HD
BRANCH  34  36
HETATM   36  C16 UNL     1      -2.602 -10.993  28.746  1.00  0.00     0.158 A
HETATM   37  N5  UNL     1      -3.053 -11.287  29.965  1.00  0.00    -0.345 N
HETATM   38  C17 UNL     1      -4.296 -11.029  30.251  1.00  0.00     0.097 A
ATOM     39  H5  UNL     1      -2.435 -11.705  30.660  1.00  0.00     0.167 HD
HETATM   40  C18 UNL     1      -5.078 -10.469  29.280  1.00  0.00     0.070 A
HETATM   41  S2  UNL     1      -3.980 -10.333  27.979  1.00  0.00    -0.064 SA
ENDBRANCH  34  36
ENDBRANCH  31  34
ENDBRANCH   8  31
TORSDOF 5
ENDMDL