MODEL 5
REMARK VINA RESULT: 1.039158393      1.567      1.901
REMARK  6 active torsions:
REMARK  status: ('A' for Active; 'I' for Inactive)
REMARK    1  A    between atoms: O1_2  and  C2_3
REMARK    2  A    between atoms: C5_6  and  C6_7
REMARK    3  A    between atoms: C8_11  and  C9_12
REMARK    4  A    between atoms: N3_22  and  O2_23
REMARK    5  A    between atoms: C17_25  and  C18_26
REMARK    6  A    between atoms: N4_33  and  O3_34
ROOT
HETATM    1  C6  UNL     1      -3.639  -9.109  27.058  1.00  0.00     0.143 A
HETATM    2  N1  UNL     1      -4.447  -8.028  26.838  1.00  0.00    -0.349 N
ATOM      3  H1  UNL     1      -4.971  -7.644  27.624  1.00  0.00     0.167 HD
HETATM    4  C7  UNL     1      -4.582  -7.458  25.652  1.00  0.00     0.107 A
HETATM    5  C8  UNL     1      -3.874  -7.967  24.557  1.00  0.00     0.056 A
HETATM    6  C17 UNL     1      -3.059  -9.047  24.754  1.00  0.00     0.090 A
HETATM    7  N4  UNL     1      -2.984  -9.573  26.024  1.00  0.00    -0.206 N
ENDROOT
BRANCH   5   8
HETATM    8  C9  UNL     1      -4.017  -7.335  23.253  1.00  0.00     0.148 A
HETATM    9  N2  UNL     1      -3.009  -6.644  22.645  1.00  0.00    -0.338 N
HETATM   10  C10 UNL     1      -3.460  -6.179  21.474  1.00  0.00     0.063 A
ATOM     11  H2  UNL     1      -2.070  -6.504  23.021  1.00  0.00     0.167 HD
HETATM   12  C11 UNL     1      -2.908  -5.430  20.451  1.00  0.00     0.032 A
HETATM   13  C16 UNL     1      -4.775  -6.564  21.304  1.00  0.00     0.091 A
HETATM   14  C12 UNL     1      -3.592  -5.068  19.315  1.00  0.00     0.009 A
HETATM   15  C13 UNL     1      -4.903  -5.474  19.185  1.00  0.00    -0.060 A
HETATM   16  C14 UNL     1      -5.638  -5.083  17.962  1.00  0.00     0.048 C
HETATM   17  C15 UNL     1      -5.481  -6.218  20.184  1.00  0.00     0.041 A
HETATM   18  N3  UNL     1      -5.065  -7.279  22.441  1.00  0.00    -0.205 N
BRANCH  18  19
HETATM   19  O2  UNL     1      -6.302  -7.809  22.611  1.00  0.00    -0.281 OA
ATOM     20  H2  UNL     1      -6.813  -7.884  23.408  1.00  0.00     0.245 HD
ENDBRANCH  18  19
ENDBRANCH   5   8
BRANCH   6  21
HETATM   21  C18 UNL     1      -2.265  -9.650  23.702  1.00  0.00    -0.006 A
HETATM   22  C19 UNL     1      -0.904  -9.457  23.565  1.00  0.00     0.017 A
HETATM   23  C20 UNL     1      -0.170 -10.073  22.573  1.00  0.00     0.043 A
HETATM   24  C21 UNL     1      -0.808 -10.909  21.684  1.00  0.00     0.116 A
HETATM   25  F1  UNL     1      -0.143 -11.546  20.684  1.00  0.00    -0.206 F
HETATM   26  C22 UNL     1      -2.165 -11.118  21.799  1.00  0.00     0.043 A
HETATM   27  C23 UNL     1      -2.885 -10.497  22.793  1.00  0.00     0.017 A
ENDBRANCH   6  21
BRANCH   7  28
HETATM   28  O3  UNL     1      -2.163 -10.640  26.156  1.00  0.00    -0.281 OA
ATOM     29  H3  UNL     1      -1.851 -11.103  25.388  1.00  0.00     0.245 HD
ENDBRANCH   7  28
BRANCH   1  30
HETATM   30  C5  UNL     1      -3.616  -9.604  28.430  1.00  0.00     0.012 A
HETATM   31  C4  UNL     1      -3.050  -8.956  29.488  1.00  0.00     0.018 A
HETATM   32  C3  UNL     1      -3.057  -9.479  30.804  1.00  0.00     0.039 A
HETATM   33  C2  UNL     1      -3.657 -10.693  31.042  1.00  0.00     0.085 A
HETATM   34  C25 UNL     1      -4.240 -11.375  29.997  1.00  0.00     0.045 A
HETATM   35  C24 UNL     1      -4.212 -10.835  28.738  1.00  0.00     0.037 A
HETATM   36 BR1  UNL     1      -5.065 -13.052  30.356  1.00  0.00    -0.048 Br
BRANCH  33  37
HETATM   37  O1  UNL     1      -3.661 -11.201  32.332  1.00  0.00    -0.355 OA
HETATM   38  C1  UNL     1      -2.897 -10.617  33.346  1.00  0.00     0.210 C
ENDBRANCH  33  37
ENDBRANCH   1  30
TORSDOF 6
ENDMDL