MODEL 3
REMARK VINA RESULT: -6.245866853      0.994      2.011
REMARK  5 active torsions:
REMARK  status: ('A' for Active; 'I' for Inactive)
REMARK    1  A    between atoms: S1_2  and  N1_4
REMARK    2  A    between atoms: S1_2  and  C6_14
REMARK    3  A    between atoms: N1_4  and  C1_6
REMARK    4  A    between atoms: C11_21  and  C12_22
REMARK    5  A    between atoms: C18_29  and  N4_30
ROOT
HETATM    1  C6  UNL     1      -1.946  -7.968  27.555  1.00  0.00     0.108 A
HETATM    2  C7  UNL     1      -2.242  -7.156  28.619  1.00  0.00     0.028 A
HETATM    3  C8  UNL     1      -3.053  -6.044  28.472  1.00  0.00     0.004 A
HETATM    4  C9  UNL     1      -3.579  -5.730  27.256  1.00  0.00     0.032 A
HETATM    5  C10 UNL     1      -3.307  -6.516  26.164  1.00  0.00     0.061 A
HETATM    6  N3  UNL     1      -3.798  -6.254  24.946  1.00  0.00    -0.351 N
ATOM      7  H3  UNL     1      -4.396  -5.435  24.841  1.00  0.00     0.166 HD
HETATM    8  C11 UNL     1      -3.551  -7.011  23.834  1.00  0.00     0.088 A
HETATM    9  C18 UNL     1      -2.749  -8.101  24.008  1.00  0.00     0.142 A
HETATM   10  N6  UNL     1      -2.230  -8.401  25.239  1.00  0.00    -0.337 N
ATOM     11  H6  UNL     1      -1.633  -9.222  25.341  1.00  0.00     0.167 HD
HETATM   12  C26 UNL     1      -2.487  -7.641  26.314  1.00  0.00     0.084 A
ENDROOT
BRANCH   1  13
HETATM   13  S1  UNL     1      -0.944  -9.366  27.669  1.00  0.00     0.266 S
HETATM   14  O1  UNL     1      -0.180  -9.642  26.385  1.00  0.00    -0.200 OA
HETATM   15  O2  UNL     1       0.138  -9.097  28.708  1.00  0.00    -0.200 OA
BRANCH  13  16
HETATM   16  N1  UNL     1      -1.772 -10.772  28.145  1.00  0.00    -0.266 N
ATOM     17  H1  UNL     1      -1.289 -11.660  28.010  1.00  0.00     0.180 HD
BRANCH  16  18
HETATM   18  C1  UNL     1      -2.951 -10.822  28.662  1.00  0.00     0.114 A
HETATM   19  C2  UNL     1      -4.062 -10.219  28.112  1.00  0.00     0.052 A
HETATM   20  C3  UNL     1      -5.307 -10.298  28.697  1.00  0.00     0.047 A
HETATM   21  C4  UNL     1      -5.447 -11.001  29.866  1.00  0.00     0.131 A
HETATM   22  F1  UNL     1      -6.640 -11.121  30.496  1.00  0.00    -0.205 F
HETATM   23  C5  UNL     1      -4.329 -11.595  30.398  1.00  0.00     0.132 A
HETATM   24  N2  UNL     1      -3.122 -11.506  29.811  1.00  0.00    -0.349 N
ATOM     25  H2  UNL     1      -2.320 -11.963  30.245  1.00  0.00     0.167 HD
ENDBRANCH  16  18
ENDBRANCH  13  16
ENDBRANCH   1  13
BRANCH   9  26
HETATM   26  N4  UNL     1      -2.393  -9.018  22.969  1.00  0.00    -0.290 N
HETATM   27  C19 UNL     1      -3.021 -10.173  22.701  1.00  0.00     0.191 A
HETATM   28  N5  UNL     1      -2.424 -10.743  21.656  1.00  0.00    -0.350 N
HETATM   29  C20 UNL     1      -1.407  -9.952  21.249  1.00  0.00     0.060 A
ATOM     30  H5  UNL     1      -2.691 -11.632  21.232  1.00  0.00     0.166 HD
HETATM   31  C21 UNL     1      -0.527 -10.123  20.222  1.00  0.00     0.032 A
HETATM   32  C25 UNL     1      -1.390  -8.844  22.093  1.00  0.00     0.068 A
HETATM   33  C22 UNL     1       0.436  -9.149  20.001  1.00  0.00     0.002 A
HETATM   34  C23 UNL     1       0.476  -8.027  20.833  1.00  0.00     0.002 A
HETATM   35  C24 UNL     1      -0.424  -7.879  21.861  1.00  0.00     0.032 A
ENDBRANCH   9  26
BRANCH   8  36
HETATM   36  C12 UNL     1      -4.151  -6.642  22.563  1.00  0.00    -0.005 A
HETATM   37  C13 UNL     1      -5.381  -7.034  22.116  1.00  0.00     0.015 A
HETATM   38  C14 UNL     1      -5.909  -6.645  20.890  1.00  0.00     0.024 A
HETATM   39  C15 UNL     1      -5.183  -5.824  20.055  1.00  0.00     0.034 A
HETATM   40 CL1  UNL     1      -5.832  -5.315  18.493  1.00  0.00    -0.084 Cl
HETATM   41  C16 UNL     1      -3.940  -5.413  20.477  1.00  0.00     0.024 A
HETATM   42  C17 UNL     1      -3.429  -5.806  21.696  1.00  0.00     0.015 A
ENDBRANCH   8  36
TORSDOF 5
ENDMDL