MODEL 1
REMARK VINA RESULT: -2.346944330      0.000      0.000
REMARK  5 active torsions:
REMARK  status: ('A' for Active; 'I' for Inactive)
REMARK    1  A    between atoms: N2_5  and  C3_6
REMARK    2  A    between atoms: C11_15  and  C12_16
REMARK    3  A    between atoms: N3_17  and  N4_19
REMARK    4  A    between atoms: N4_19  and  C13_21
REMARK    5  A    between atoms: C14_24  and  C15_25
ROOT
HETATM    1  C12 UNL     1      -2.892  -6.443  23.732  1.00  0.00     0.122 C
HETATM    2  N3  UNL     1      -2.995  -5.206  23.417  1.00  0.00    -0.309 N
ATOM      3  H3  UNL     1      -2.987  -4.518  24.169  1.00  0.00     0.186 HD
ENDROOT
BRANCH   2   4
HETATM    4  N4  UNL     1      -3.117  -4.745  22.112  1.00  0.00    -0.279 N
ATOM      5  H4  UNL     1      -2.987  -3.754  21.908  1.00  0.00     0.189 HD
BRANCH   4   6
HETATM    6  C13 UNL     1      -3.401  -5.589  21.136  1.00  0.00     0.181 A
HETATM    7  N5  UNL     1      -3.444  -6.914  21.209  1.00  0.00    -0.319 N
HETATM    8  C14 UNL     1      -3.749  -7.573  20.112  1.00  0.00     0.123 A
ATOM      9  H5  UNL     1      -3.249  -7.402  22.084  1.00  0.00     0.169 HD
HETATM   10  N6  UNL     1      -3.991  -6.863  19.009  1.00  0.00    -0.309 N
HETATM   11  S1  UNL     1      -3.791  -5.277  19.511  1.00  0.00     0.025 SA
ATOM     12  H6  UNL     1      -4.240  -7.205  18.081  1.00  0.00     0.176 HD
BRANCH   8  13
HETATM   13  C15 UNL     1      -3.836  -9.061  20.048  1.00  0.00     0.009 A
HETATM   14  C16 UNL     1      -3.900  -9.734  18.855  1.00  0.00     0.016 A
HETATM   15  C17 UNL     1      -3.980 -11.106  18.796  1.00  0.00     0.020 A
HETATM   16  C18 UNL     1      -4.000 -11.852  19.949  1.00  0.00     0.011 A
HETATM   17 BR2  UNL     1      -4.112 -13.767  19.873  1.00  0.00    -0.051 Br
HETATM   18  C19 UNL     1      -3.937 -11.196  21.150  1.00  0.00     0.020 A
HETATM   19  C20 UNL     1      -3.856  -9.812  21.200  1.00  0.00     0.016 A
ENDBRANCH   8  13
ENDBRANCH   4   6
ENDBRANCH   2   4
BRANCH   1  20
HETATM   20  C11 UNL     1      -2.766  -6.903  25.107  1.00  0.00     0.029 A
HETATM   21  C2  UNL     1      -1.986  -6.366  26.108  1.00  0.00     0.036 A
HETATM   22  C1  UNL     1      -1.098  -5.172  25.957  1.00  0.00     0.070 C
HETATM   23  N1  UNL     1      -2.170  -7.104  27.226  1.00  0.00    -0.297 N
HETATM   24  N2  UNL     1      -3.029  -8.088  26.994  1.00  0.00    -0.260 N
ATOM     25  H1  UNL     1      -1.714  -6.929  28.121  1.00  0.00     0.187 HD
HETATM   26  C9  UNL     1      -3.402  -7.981  25.707  1.00  0.00     0.044 A
HETATM   27  C10 UNL     1      -4.366  -8.888  25.010  1.00  0.00     0.071 C
BRANCH  24  28
HETATM   28  C3  UNL     1      -3.485  -9.082  27.917  1.00  0.00     0.056 A
HETATM   29  C4  UNL     1      -2.687 -10.160  28.240  1.00  0.00     0.033 A
HETATM   30  C5  UNL     1      -3.115 -11.126  29.130  1.00  0.00     0.021 A
HETATM   31  C6  UNL     1      -4.353 -11.055  29.733  1.00  0.00     0.011 A
HETATM   32 BR1  UNL     1      -4.922 -12.408  30.963  1.00  0.00    -0.051 Br
HETATM   33  C7  UNL     1      -5.154  -9.979  29.414  1.00  0.00     0.021 A
HETATM   34  C8  UNL     1      -4.724  -9.014  28.523  1.00  0.00     0.033 A
ENDBRANCH  24  28
ENDBRANCH   1  20
TORSDOF 5
ENDMDL