MODEL 1
REMARK VINA RESULT: 1.565049924      0.000      0.000
REMARK  7 active torsions:
REMARK  status: ('A' for Active; 'I' for Inactive)
REMARK    1  A    between atoms: N1_2  and  C2_4
REMARK    2  A    between atoms: C5_7  and  C6_8
REMARK    3  A    between atoms: C7_9  and  C8_10
REMARK    4  A    between atoms: C14_18  and  O1_19
REMARK    5  A    between atoms: C17_24  and  C18_25
REMARK    6  A    between atoms: C21_29  and  C22_30
REMARK    7  A    between atoms: C26_36  and  O2_37
ROOT
HETATM    1  C8  UNL     1      -3.861  -9.239  26.787  1.00  0.00     0.053 A
HETATM    2  C9  UNL     1      -3.914  -9.765  28.049  1.00  0.00     0.025 A
HETATM    3  C10 UNL     1      -4.038 -11.236  28.225  1.00  0.00     0.070 C
HETATM    4  N2  UNL     1      -3.859  -9.014  29.167  1.00  0.00    -0.357 N
ATOM      5  H2  UNL     1      -3.901  -9.445  30.091  1.00  0.00     0.166 HD
HETATM    6  C11 UNL     1      -3.749  -7.694  29.031  1.00  0.00     0.060 A
HETATM    7  C12 UNL     1      -3.688  -6.879  30.135  1.00  0.00     0.036 A
HETATM    8  C13 UNL     1      -3.571  -5.520  29.928  1.00  0.00     0.058 A
HETATM    9  C14 UNL     1      -3.517  -4.988  28.655  1.00  0.00     0.142 A
HETATM   10  N3  UNL     1      -3.577  -5.792  27.579  1.00  0.00    -0.334 N
ATOM     11  H3  UNL     1      -3.538  -5.406  26.635  1.00  0.00     0.168 HD
HETATM   12  C16 UNL     1      -3.690  -7.106  27.777  1.00  0.00     0.073 A
HETATM   13  C17 UNL     1      -3.748  -7.894  26.621  1.00  0.00     0.024 A
ENDROOT
BRANCH  13  14
HETATM   14  C18 UNL     1      -3.692  -7.331  25.296  1.00  0.00    -0.016 A
HETATM   15  C19 UNL     1      -4.539  -7.848  24.321  1.00  0.00     0.055 A
HETATM   16  C20 UNL     1      -4.527  -7.346  23.039  1.00  0.00     0.131 A
HETATM   17  F1  UNL     1      -5.389  -7.912  22.152  1.00  0.00    -0.205 F
HETATM   18  C21 UNL     1      -3.677  -6.329  22.711  1.00  0.00     0.054 A
HETATM   19  C28 UNL     1      -2.825  -5.806  23.683  1.00  0.00     0.131 A
HETATM   20  F2  UNL     1      -1.992  -4.796  23.324  1.00  0.00    -0.205 F
HETATM   21  C29 UNL     1      -2.845  -6.310  24.951  1.00  0.00     0.055 A
BRANCH  18  22
HETATM   22  C22 UNL     1      -3.682  -5.820  21.353  1.00  0.00     0.016 A
HETATM   23  C23 UNL     1      -4.756  -5.167  20.798  1.00  0.00     0.032 A
HETATM   24  C24 UNL     1      -4.717  -4.692  19.484  1.00  0.00     0.088 A
HETATM   25  N4  UNL     1      -3.598  -4.891  18.768  1.00  0.00    -0.373 N
HETATM   26  C25 UNL     1      -2.516  -5.524  19.259  1.00  0.00     0.125 A
ATOM     27  H4  UNL     1      -3.567  -4.547  17.809  1.00  0.00     0.164 HD
HETATM   28  C26 UNL     1      -2.553  -5.998  20.572  1.00  0.00     0.094 A
BRANCH  28  29
HETATM   29  O2  UNL     1      -1.458  -6.652  21.105  1.00  0.00    -0.354 OA
HETATM   30  C27 UNL     1      -1.235  -7.995  20.760  1.00  0.00     0.210 C
ENDBRANCH  28  29
ENDBRANCH  18  22
ENDBRANCH  13  14
BRANCH   1  31
HETATM   31  C7  UNL     1      -3.920 -10.069  25.592  1.00  0.00    -0.058 C
HETATM   32  C6  UNL     1      -3.966 -10.740  24.589  1.00  0.00    -0.060 C
BRANCH  32  33
HETATM   33  C5  UNL     1      -4.025 -11.517  23.380  1.00  0.00     0.033 A
HETATM   34  C4  UNL     1      -4.974 -12.496  23.152  1.00  0.00     0.026 A
HETATM   35  C3  UNL     1      -5.017 -13.231  21.991  1.00  0.00     0.050 A
HETATM   36  C2  UNL     1      -4.091 -13.008  20.999  1.00  0.00     0.100 A
HETATM   37  N5  UNL     1      -3.166 -12.061  21.213  1.00  0.00    -0.351 N
HETATM   38  C30 UNL     1      -3.117 -11.340  22.339  1.00  0.00     0.110 A
ATOM     39  H5  UNL     1      -2.471 -11.883  20.488  1.00  0.00     0.166 HD
BRANCH  36  40
HETATM   40  N1  UNL     1      -4.105 -13.692  19.883  1.00  0.00    -0.381 N
HETATM   41  C1  UNL     1      -3.819 -13.001  18.635  1.00  0.00     0.147 C
ATOM     42  H1  UNL     1      -4.313 -14.690  19.887  1.00  0.00     0.160 HD
ENDBRANCH  36  40
ENDBRANCH  32  33
ENDBRANCH   1  31
BRANCH   9  43
HETATM   43  O1  UNL     1      -3.398  -3.598  28.529  1.00  0.00    -0.341 OA
HETATM   44  C15 UNL     1      -3.231  -2.845  29.709  1.00  0.00     0.211 C
ENDBRANCH   9  43
TORSDOF 7
ENDMDL