MODEL 3
REMARK VINA RESULT: -1.921415546      1.102      1.288
REMARK  3 active torsions:
REMARK  status: ('A' for Active; 'I' for Inactive)
REMARK    1  A    between atoms: C2_5  and  C3_6
REMARK    2  A    between atoms: N5_26  and  S1_27
REMARK    3  A    between atoms: S1_27  and  C18_30
ROOT
HETATM    1  N1  UNL     1      -4.155 -11.947  24.842  1.00  0.00    -0.082 NA
HETATM    2  C1  UNL     1      -3.883 -10.968  23.862  1.00  0.00     0.131 A
HETATM    3  N2  UNL     1      -3.987 -11.225  22.546  1.00  0.00    -0.343 N
ATOM      4  H2  UNL     1      -4.298 -12.156  22.268  1.00  0.00     0.167 HD
HETATM    5  C2  UNL     1      -3.710 -10.337  21.566  1.00  0.00     0.047 A
HETATM    6  C8  UNL     1      -3.293  -9.096  21.978  1.00  0.00     0.064 A
HETATM    7  C9  UNL     1      -3.163  -8.764  23.309  1.00  0.00     0.086 A
HETATM    8  C10 UNL     1      -3.468  -9.726  24.269  1.00  0.00     0.064 A
HETATM    9  C11 UNL     1      -3.248  -9.105  25.474  1.00  0.00     0.075 A
HETATM   10  C12 UNL     1      -3.370  -9.605  26.808  1.00  0.00    -0.007 A
HETATM   11  C13 UNL     1      -2.248  -9.547  27.632  1.00  0.00     0.015 A
HETATM   12  C14 UNL     1      -2.307  -9.962  28.941  1.00  0.00     0.020 A
HETATM   13  C15 UNL     1      -3.494 -10.441  29.446  1.00  0.00     0.011 A
HETATM   14 BR1  UNL     1      -3.595 -11.024  31.276  1.00  0.00    -0.051 Br
HETATM   15  C16 UNL     1      -4.611 -10.502  28.642  1.00  0.00     0.020 A
HETATM   16  C17 UNL     1      -4.541 -10.083  27.325  1.00  0.00     0.015 A
HETATM   17  N4  UNL     1      -2.835  -7.854  25.189  1.00  0.00    -0.282 N
ATOM     18  H4  UNL     1      -2.596  -7.163  25.900  1.00  0.00     0.188 HD
HETATM   19  N5  UNL     1      -2.775  -7.621  23.912  1.00  0.00    -0.175 N
ENDROOT
BRANCH  19  20
HETATM   20  S1  UNL     1      -2.269  -6.157  23.219  1.00  0.00     0.284 S
HETATM   21  O1  UNL     1      -0.790  -6.180  22.916  1.00  0.00    -0.198 OA
HETATM   22  O2  UNL     1      -2.552  -4.964  24.077  1.00  0.00    -0.198 OA
BRANCH  20  23
HETATM   23  C18 UNL     1      -3.087  -5.919  21.684  1.00  0.00     0.103 A
HETATM   24  C19 UNL     1      -2.392  -5.468  20.587  1.00  0.00     0.027 A
HETATM   25  C20 UNL     1      -3.101  -5.269  19.407  1.00  0.00     0.002 A
HETATM   26  C21 UNL     1      -4.442  -5.504  19.308  1.00  0.00     0.002 A
HETATM   27  C22 UNL     1      -5.102  -5.948  20.413  1.00  0.00     0.025 A
HETATM   28  C23 UNL     1      -4.454  -6.157  21.578  1.00  0.00     0.057 A
HETATM   29 CL1  UNL     1      -5.279  -6.732  23.024  1.00  0.00    -0.083 Cl
ENDBRANCH  20  23
ENDBRANCH  19  20
BRANCH   5  30
HETATM   30  C3  UNL     1      -3.858 -10.722  20.154  1.00  0.00     0.006 A
HETATM   31  C4  UNL     1      -3.950  -9.794  19.150  1.00  0.00     0.016 A
HETATM   32  C5  UNL     1      -4.092 -10.232  17.819  1.00  0.00     0.018 A
HETATM   33  C6  UNL     1      -4.138 -11.575  17.516  1.00  0.00     0.087 A
HETATM   34  N3  UNL     1      -4.045 -12.465  18.525  1.00  0.00    -0.374 N
HETATM   35  C7  UNL     1      -3.910 -12.054  19.804  1.00  0.00     0.101 A
ATOM     36  H3  UNL     1      -4.078 -13.463  18.319  1.00  0.00     0.164 HD
ENDBRANCH   5  30
TORSDOF 3
ENDMDL