MODEL 5
REMARK VINA RESULT: 0.143417853      2.309      4.300
REMARK  7 active torsions:
REMARK  status: ('A' for Active; 'I' for Inactive)
REMARK    1  A    between atoms: O1_2  and  C2_3
REMARK    2  A    between atoms: N1_9  and  C8_10
REMARK    3  A    between atoms: C10_12  and  O2_13
REMARK    4  A    between atoms: O2_13  and  C11_14
REMARK    5  A    between atoms: C21_29  and  C22_30
REMARK    6  A    between atoms: C23_31  and  C24_32
REMARK    7  A    between atoms: N5_41  and  O3_42
ROOT
HETATM    1  C11 UNL     1      -3.626 -10.378  25.599  1.00  0.00     0.090 A
HETATM    2  C12 UNL     1      -4.858  -9.885  25.926  1.00  0.00     0.040 A
HETATM    3  C13 UNL     1      -4.982  -9.102  27.063  1.00  0.00     0.028 A
HETATM    4  C14 UNL     1      -3.909  -8.805  27.869  1.00  0.00     0.072 A
HETATM    5  C15 UNL     1      -4.055  -7.990  29.047  1.00  0.00     0.102 C
HETATM    6  N2  UNL     1      -4.173  -7.324  29.985  1.00  0.00    -0.191 NA
HETATM    7  C16 UNL     1      -2.656  -9.290  27.560  1.00  0.00     0.066 A
HETATM    8  N3  UNL     1      -1.458  -9.156  28.164  1.00  0.00    -0.364 N
ATOM      9  H3  UNL     1      -1.272  -8.630  29.017  1.00  0.00     0.165 HD
HETATM   10  C17 UNL     1      -0.549  -9.840  27.442  1.00  0.00     0.089 A
HETATM   11  C18 UNL     1      -1.202 -10.414  26.360  1.00  0.00     0.033 A
HETATM   12  C19 UNL     1      -2.535 -10.065  26.436  1.00  0.00     0.027 A
ENDROOT
BRANCH   1  13
HETATM   13  O2  UNL     1      -3.388 -11.143  24.528  1.00  0.00    -0.293 OA
BRANCH  13  14
HETATM   14  C10 UNL     1      -3.695 -11.111  23.222  1.00  0.00     0.150 A
HETATM   15  C9  UNL     1      -3.670  -9.861  22.590  1.00  0.00     0.088 A
HETATM   16  C8  UNL     1      -3.970  -9.749  21.265  1.00  0.00     0.065 A
HETATM   17  C21 UNL     1      -4.313 -10.862  20.487  1.00  0.00     0.060 A
HETATM   18  C20 UNL     1      -4.322 -12.066  21.158  1.00  0.00     0.113 A
HETATM   19  N4  UNL     1      -4.024 -12.175  22.472  1.00  0.00    -0.345 N
ATOM     20  H4  UNL     1      -4.050 -13.096  22.910  1.00  0.00     0.167 HD
BRANCH  16  21
HETATM   21  N1  UNL     1      -3.951  -8.490  20.604  1.00  0.00    -0.302 N
HETATM   22  C6  UNL     1      -3.475  -7.343  21.166  1.00  0.00     0.072 A
HETATM   23  C5  UNL     1      -3.597  -6.301  20.267  1.00  0.00     0.091 A
HETATM   24  C7  UNL     1      -2.929  -7.081  22.401  1.00  0.00     0.069 A
HETATM   25  C4  UNL     1      -3.186  -5.028  20.591  1.00  0.00     0.037 A
HETATM   26  N5  UNL     1      -4.154  -6.838  19.160  1.00  0.00    -0.218 N
HETATM   27  C3  UNL     1      -2.647  -4.795  21.829  1.00  0.00     0.039 A
HETATM   28  C2  UNL     1      -2.512  -5.808  22.741  1.00  0.00     0.070 A
HETATM   29  C30 UNL     1      -4.357  -8.146  19.380  1.00  0.00     0.222 A
BRANCH  28  30
HETATM   30  O1  UNL     1      -1.967  -5.601  24.006  1.00  0.00    -0.356 OA
HETATM   31  C1  UNL     1      -1.798  -6.677  24.908  1.00  0.00     0.210 C
ENDBRANCH  28  30
BRANCH  26  32
HETATM   32  O3  UNL     1      -4.451  -6.142  18.013  1.00  0.00    -0.282 OA
ATOM     33  H3  UNL     1      -4.935  -6.492  17.275  1.00  0.00     0.245 HD
ENDBRANCH  26  32
ENDBRANCH  16  21
BRANCH  17  34
HETATM   34  C22 UNL     1      -4.628 -10.738  19.090  1.00  0.00    -0.058 C
HETATM   35  C23 UNL     1      -4.896 -10.614  17.920  1.00  0.00    -0.058 C
BRANCH  35  36
HETATM   36  C24 UNL     1      -5.230 -10.487  16.532  1.00  0.00     0.059 A
HETATM   37  C25 UNL     1      -6.524 -10.179  16.194  1.00  0.00     0.066 A
HETATM   38  C26 UNL     1      -6.858 -10.055  14.865  1.00  0.00     0.117 A
HETATM   39  F1  UNL     1      -8.150  -9.747  14.526  1.00  0.00    -0.206 F
HETATM   40  C27 UNL     1      -5.936 -10.228  13.858  1.00  0.00     0.045 A
HETATM   41  C28 UNL     1      -4.636 -10.537  14.180  1.00  0.00     0.047 A
HETATM   42  C29 UNL     1      -4.315 -10.659  15.515  1.00  0.00     0.135 A
HETATM   43  F2  UNL     1      -3.008 -10.968  15.814  1.00  0.00    -0.205 F
ENDBRANCH  35  36
ENDBRANCH  17  34
ENDBRANCH  13  14
ENDBRANCH   1  13
TORSDOF 7
ENDMDL