MODEL 2
REMARK VINA RESULT: 3.728576015      0.810      1.163
REMARK  4 active torsions:
REMARK  status: ('A' for Active; 'I' for Inactive)
REMARK    1  A    between atoms: C7_8  and  C8_9
REMARK    2  A    between atoms: C9_10  and  S1_11
REMARK    3  A    between atoms: C13_17  and  C14_18
REMARK    4  A    between atoms: C17_25  and  C18_26
ROOT
HETATM    1  C1  UNL     1      -8.002 -10.635  27.541  1.00  0.00     0.018 C
HETATM    2  C2  UNL     1      -6.975 -10.001  27.694  1.00  0.00    -0.078 C
HETATM    3  C3  UNL     1      -5.768  -9.238  27.855  1.00  0.00     0.020 A
HETATM    4  C4  UNL     1      -5.445  -8.624  29.046  1.00  0.00     0.062 A
HETATM    5  C5  UNL     1      -4.288  -7.890  29.198  1.00  0.00     0.118 A
HETATM    6  F1  UNL     1      -3.988  -7.293  30.378  1.00  0.00    -0.206 F
HETATM    7  C6  UNL     1      -3.390  -7.735  28.155  1.00  0.00     0.054 A
HETATM    8  C7  UNL     1      -3.706  -8.345  26.966  1.00  0.00    -0.017 A
HETATM    9  C28 UNL     1      -4.864  -9.078  26.819  1.00  0.00     0.033 A
ENDROOT
BRANCH   8  10
HETATM   10  C8  UNL     1      -2.796  -8.204  25.843  1.00  0.00     0.035 A
HETATM   11  C9  UNL     1      -1.661  -8.973  25.759  1.00  0.00     0.073 A
HETATM   12  C11 UNL     1      -0.844  -8.795  24.667  1.00  0.00     0.025 A
HETATM   13  C12 UNL     1      -1.185  -7.858  23.697  1.00  0.00     0.018 A
HETATM   14  C13 UNL     1      -2.312  -7.071  23.745  1.00  0.00     0.033 A
HETATM   15  C27 UNL     1      -3.127  -7.270  24.863  1.00  0.00     0.141 A
HETATM   16  F2  UNL     1      -4.275  -6.570  25.018  1.00  0.00    -0.204 F
BRANCH  11  17
HETATM   17  S1  UNL     1      -1.223 -10.146  26.959  1.00  0.00     0.172 S
HETATM   18  C10 UNL     1       0.147 -11.139  26.358  1.00  0.00     0.167 C
HETATM   19  O1  UNL     1      -0.689  -9.487  28.223  1.00  0.00    -0.223 OA
HETATM   20  O2  UNL     1      -2.376 -11.022  27.268  1.00  0.00    -0.223 OA
ENDBRANCH  11  17
BRANCH  14  21
HETATM   21  C14 UNL     1      -2.738  -6.152  22.708  1.00  0.00     0.073 A
HETATM   22  N1  UNL     1      -2.820  -4.812  22.764  1.00  0.00    -0.299 N
HETATM   23  N2  UNL     1      -3.315  -4.311  21.647  1.00  0.00    -0.299 N
ATOM     24  H1  UNL     1      -2.535  -4.252  23.568  1.00  0.00     0.187 HD
HETATM   25  C15 UNL     1      -3.576  -5.321  20.814  1.00  0.00     0.061 A
ATOM     26  H2  UNL     1      -3.471  -3.321  21.454  1.00  0.00     0.187 HD
HETATM   27  C16 UNL     1      -4.113  -5.376  19.526  1.00  0.00     0.045 A
HETATM   28  C26 UNL     1      -3.225  -6.512  21.450  1.00  0.00     0.021 A
HETATM   29  C17 UNL     1      -4.323  -6.536  18.836  1.00  0.00    -0.005 A
HETATM   30  C24 UNL     1      -3.976  -7.698  19.476  1.00  0.00     0.015 A
HETATM   31  C25 UNL     1      -3.435  -7.687  20.767  1.00  0.00     0.017 A
BRANCH  29  32
HETATM   32  C18 UNL     1      -4.876  -6.599  17.486  1.00  0.00     0.076 A
HETATM   33  C19 UNL     1      -5.054  -7.718  16.701  1.00  0.00     0.145 A
HETATM   34  N3  UNL     1      -5.596  -7.368  15.493  1.00  0.00    -0.166 N
HETATM   35  C20 UNL     1      -5.944  -8.090  14.417  1.00  0.00     0.116 A
HETATM   36  C23 UNL     1      -5.750  -6.032  15.538  1.00  0.00     0.688 A
HETATM   37  C21 UNL     1      -6.473  -7.473  13.319  1.00  0.00     0.036 A
HETATM   38  C22 UNL     1      -6.637  -6.103  13.349  1.00  0.00     0.107 A
HETATM   39  N4  UNL     1      -6.272  -5.431  14.454  1.00  0.00    -0.201 N
ATOM     40  H4  UNL     1      -6.395  -4.420  14.471  1.00  0.00     0.183 HD
HETATM   41  N5  UNL     1      -5.318  -5.578  16.730  1.00  0.00    -0.189 N
ATOM     42  H5  UNL     1      -5.324  -4.600  17.018  1.00  0.00     0.184 HD
ENDBRANCH  29  32
ENDBRANCH  14  21
ENDBRANCH   8  10
TORSDOF 4
ENDMDL