MODEL 2
REMARK VINA RESULT: 3.975909390      0.948      1.263
REMARK  7 active torsions:
REMARK  status: ('A' for Active; 'I' for Inactive)
REMARK    1  A    between atoms: N1_1  and  S1_4
REMARK    2  A    between atoms: S1_4  and  C1_7
REMARK    3  A    between atoms: C4_10  and  N2_11
REMARK    4  A    between atoms: C5_14  and  C6_15
REMARK    5  A    between atoms: C13_23  and  C14_24
REMARK    6  A    between atoms: C18_29  and  C19_30
REMARK    7  A    between atoms: C20_31  and  C21_32
ROOT
HETATM    1  N2  UNL     1      -4.251  -9.110  23.455  1.00  0.00    -0.255 N
HETATM    2  N3  UNL     1      -4.205  -8.844  24.782  1.00  0.00    -0.292 N
ATOM      3  H3  UNL     1      -4.281  -7.911  25.188  1.00  0.00     0.187 HD
HETATM    4  C5  UNL     1      -4.047  -9.966  25.488  1.00  0.00     0.064 A
HETATM    5  C12 UNL     1      -3.993 -10.974  24.582  1.00  0.00     0.064 A
HETATM    6  C13 UNL     1      -4.124 -10.414  23.274  1.00  0.00     0.069 A
ENDROOT
BRANCH   6   7
HETATM    7  C14 UNL     1      -4.057 -11.211  22.064  1.00  0.00    -0.004 A
HETATM    8  C15 UNL     1      -3.688 -12.559  22.168  1.00  0.00     0.037 A
HETATM    9  C16 UNL     1      -3.632 -13.417  21.107  1.00  0.00     0.036 A
HETATM   10 CL1  UNL     1      -3.174 -15.084  21.230  1.00  0.00    -0.084 Cl
HETATM   11  C17 UNL     1      -3.961 -12.911  19.862  1.00  0.00     0.044 A
HETATM   12  C18 UNL     1      -4.331 -11.599  19.690  1.00  0.00     0.020 A
HETATM   13  C25 UNL     1      -4.369 -10.771  20.826  1.00  0.00     0.034 A
BRANCH  12  14
HETATM   14  C19 UNL     1      -4.678 -11.044  18.417  1.00  0.00    -0.059 C
HETATM   15  C20 UNL     1      -4.996 -10.575  17.330  1.00  0.00    -0.025 C
BRANCH  15  16
HETATM   16  C21 UNL     1      -5.391 -10.032  16.060  1.00  0.00     0.161 A
HETATM   17  N4  UNL     1      -5.717 -10.829  15.006  1.00  0.00    -0.345 N
HETATM   18  C22 UNL     1      -6.084 -10.334  13.825  1.00  0.00     0.091 A
ATOM     19  H4  UNL     1      -5.679 -11.841  15.125  1.00  0.00     0.167 HD
HETATM   20  C23 UNL     1      -6.145  -8.982  13.636  1.00  0.00     0.034 A
HETATM   21  C24 UNL     1      -5.815  -8.146  14.702  1.00  0.00     0.091 A
HETATM   22  N5  UNL     1      -5.454  -8.705  15.862  1.00  0.00    -0.345 N
ATOM     23  H5  UNL     1      -5.213  -8.089  16.639  1.00  0.00     0.167 HD
ENDBRANCH  15  16
ENDBRANCH  12  14
ENDBRANCH   6   7
BRANCH   1  24
HETATM   24  C4  UNL     1      -4.374  -8.060  22.491  1.00  0.00     0.057 A
HETATM   25  C3  UNL     1      -5.605  -7.491  22.158  1.00  0.00     0.033 A
HETATM   26  C2  UNL     1      -5.708  -6.518  21.192  1.00  0.00     0.027 A
HETATM   27  C1  UNL     1      -4.601  -6.064  20.509  1.00  0.00     0.079 A
HETATM   28  C27 UNL     1      -3.372  -6.604  20.812  1.00  0.00     0.027 A
HETATM   29  C26 UNL     1      -3.274  -7.576  21.778  1.00  0.00     0.033 A
BRANCH  27  30
HETATM   30  S1  UNL     1      -4.711  -4.824  19.274  1.00  0.00     0.256 S
HETATM   31  O1  UNL     1      -5.768  -3.821  19.576  1.00  0.00    -0.201 OA
HETATM   32  O2  UNL     1      -3.390  -4.116  19.157  1.00  0.00    -0.201 OA
BRANCH  30  33
HETATM   33  N1  UNL     1      -5.051  -5.528  17.736  1.00  0.00    -0.324 N
ATOM     34  H12 UNL     1      -5.221  -5.005  16.878  1.00  0.00     0.169 HD
ATOM     35  H11 UNL     1      -5.052  -6.542  17.840  1.00  0.00     0.169 HD
ENDBRANCH  30  33
ENDBRANCH  27  30
ENDBRANCH   1  24
BRANCH   4  36
HETATM   36  C6  UNL     1      -3.956 -10.069  26.940  1.00  0.00     0.031 A
HETATM   37  C7  UNL     1      -2.785 -10.618  27.481  1.00  0.00     0.017 A
HETATM   38  C8  UNL     1      -2.576 -10.769  28.831  1.00  0.00     0.001 A
HETATM   39  C9  UNL     1      -3.551 -10.370  29.715  1.00  0.00     0.003 A
HETATM   40  C10 UNL     1      -4.707  -9.831  29.218  1.00  0.00     0.043 A
HETATM   41  C11 UNL     1      -4.904  -9.683  27.834  1.00  0.00     0.129 A
HETATM   42  F1  UNL     1      -6.062  -9.145  27.386  1.00  0.00    -0.205 F
ENDBRANCH   4  36
TORSDOF 7
ENDMDL