MODEL 3
REMARK VINA RESULT: 2.292055969      5.683      9.793
REMARK  4 active torsions:
REMARK  status: ('A' for Active; 'I' for Inactive)
REMARK    1  A    between atoms: N3_8  and  S1_10
REMARK    2  A    between atoms: S1_10  and  C4_13
REMARK    3  A    between atoms: C9_18  and  C10_19
REMARK    4  A    between atoms: C15_26  and  C16_27
ROOT
HETATM    1  C4  UNL     1      -3.698  -9.763  19.044  1.00  0.00     0.080 A
HETATM    2  C5  UNL     1      -4.222  -8.488  19.074  1.00  0.00     0.026 A
HETATM    3  C6  UNL     1      -4.007  -7.650  20.171  1.00  0.00     0.014 A
HETATM    4  C7  UNL     1      -3.264  -8.090  21.247  1.00  0.00    -0.025 A
HETATM    5  C8  UNL     1      -3.056  -7.238  22.342  1.00  0.00     0.026 A
HETATM    6  C9  UNL     1      -2.328  -7.645  23.409  1.00  0.00    -0.007 A
HETATM    7  C23 UNL     1      -1.787  -8.943  23.395  1.00  0.00     0.014 A
HETATM    8  C24 UNL     1      -2.002  -9.757  22.319  1.00  0.00     0.013 A
HETATM    9  C25 UNL     1      -2.736  -9.362  21.227  1.00  0.00    -0.024 A
HETATM   10  C26 UNL     1      -2.958 -10.180  20.130  1.00  0.00     0.037 A
ENDROOT
BRANCH   6  11
HETATM   11  C10 UNL     1      -1.962  -6.842  24.577  1.00  0.00     0.066 A
HETATM   12  C11 UNL     1      -1.298  -5.613  24.520  1.00  0.00     0.120 A
HETATM   13  N4  UNL     1      -1.156  -5.115  25.740  1.00  0.00    -0.350 N
HETATM   14  C12 UNL     1      -1.710  -5.983  26.592  1.00  0.00     0.111 A
ATOM     15  H4  UNL     1      -0.706  -4.232  25.985  1.00  0.00     0.166 HD
HETATM   16  C13 UNL     1      -1.858  -5.962  27.964  1.00  0.00     0.050 A
HETATM   17  N5  UNL     1      -2.204  -7.038  25.880  1.00  0.00    -0.305 N
HETATM   18  C14 UNL     1      -2.503  -6.993  28.634  1.00  0.00     0.017 A
HETATM   19  C15 UNL     1      -3.009  -8.059  27.931  1.00  0.00    -0.007 A
HETATM   20  C22 UNL     1      -2.837  -8.043  26.548  1.00  0.00     0.111 A
BRANCH  19  21
HETATM   21  C16 UNL     1      -3.690  -9.147  28.610  1.00  0.00     0.014 A
HETATM   22  C17 UNL     1      -5.078  -9.085  28.781  1.00  0.00     0.018 A
HETATM   23  C18 UNL     1      -5.799 -10.073  29.409  1.00  0.00     0.043 A
HETATM   24  C19 UNL     1      -5.134 -11.181  29.898  1.00  0.00     0.119 A
HETATM   25  F1  UNL     1      -5.803 -12.181  30.526  1.00  0.00    -0.206 F
HETATM   26  C20 UNL     1      -3.768 -11.251  29.734  1.00  0.00     0.085 A
HETATM   27  C21 UNL     1      -3.048 -10.256  29.101  1.00  0.00     0.130 A
HETATM   28  F2  UNL     1      -1.701 -10.328  28.944  1.00  0.00    -0.205 F
ENDBRANCH  19  21
ENDBRANCH   6  11
BRANCH   1  29
HETATM   29  S1  UNL     1      -3.973 -10.804  17.664  1.00  0.00     0.265 S
HETATM   30  O1  UNL     1      -2.880 -10.599  16.640  1.00  0.00    -0.200 OA
HETATM   31  O2  UNL     1      -5.300 -10.509  17.024  1.00  0.00    -0.200 OA
BRANCH  29  32
HETATM   32  N3  UNL     1      -3.953 -12.466  18.117  1.00  0.00    -0.244 N
HETATM   33  C3  UNL     1      -4.186 -12.771  19.371  1.00  0.00     0.254 A
HETATM   34  N2  UNL     1      -4.211 -14.004  19.909  1.00  0.00    -0.262 N
HETATM   35  O3  UNL     1      -4.440 -11.940  20.350  1.00  0.00    -0.264 OA
HETATM   36  N1  UNL     1      -4.479 -13.886  21.191  1.00  0.00    -0.280 N
ATOM     37  H2  UNL     1      -4.051 -14.878  19.410  1.00  0.00     0.190 HD
HETATM   38  C2  UNL     1      -4.625 -12.583  21.476  1.00  0.00     0.138 A
ATOM     39  H1  UNL     1      -4.562 -14.654  21.857  1.00  0.00     0.189 HD
HETATM   40  C1  UNL     1      -4.931 -11.949  22.776  1.00  0.00     0.099 C
ATOM     41  H3  UNL     1      -3.764 -13.194  17.428  1.00  0.00     0.182 HD
ENDBRANCH  29  32
ENDBRANCH   1  29
TORSDOF 4
ENDMDL