MODEL 4
REMARK VINA RESULT: -8.019559037      2.046      6.709
REMARK  3 active torsions:
REMARK  status: ('A' for Active; 'I' for Inactive)
REMARK    1  A    between atoms: C3_4  and  C4_5
REMARK    2  A    between atoms: C5_8  and  N2_9
REMARK    3  A    between atoms: N2_9  and  C6_11
ROOT
HETATM    1  C4  UNL     1      32.502  12.897  -6.677  1.00  0.00     0.153 A
HETATM    2  N1  UNL     1      31.262  12.958  -7.188  1.00  0.00    -0.173 N
ATOM      3  H1  UNL     1      30.493  12.343  -6.921  1.00  0.00     0.186 HD
HETATM    4  C5  UNL     1      31.174  13.941  -8.101  1.00  0.00     0.694 A
HETATM    5  N3  UNL     1      32.394  14.503  -8.155  1.00  0.00    -0.131 N
ATOM      6  H3  UNL     1      32.663  15.284  -8.754  1.00  0.00     0.205 HD
HETATM    7  N4  UNL     1      33.198  13.865  -7.288  1.00  0.00    -0.270 N
ATOM      8  H4  UNL     1      34.181  14.083  -7.122  1.00  0.00     0.189 HD
ENDROOT
BRANCH   4   9
HETATM    9  N2  UNL     1      30.004  14.313  -8.865  1.00  0.00    -0.220 N
ATOM     10  H2  UNL     1      29.240  14.817  -8.414  1.00  0.00     0.178 HD
BRANCH   9  11
HETATM   11  C6  UNL     1      29.917  13.971 -10.267  1.00  0.00     0.099 C
HETATM   12  C7  UNL     1      30.169  12.490 -10.449  1.00  0.00     0.026 C
HETATM   13  C8  UNL     1      28.861  11.827 -10.836  1.00  0.00     0.002 C
HETATM   14  C9  UNL     1      28.462  12.329 -12.196  1.00  0.00     0.000 C
HETATM   15  C10 UNL     1      28.299  13.833 -12.172  1.00  0.00     0.002 C
HETATM   16  C11 UNL     1      28.583  14.397 -10.799  1.00  0.00     0.026 C
ENDBRANCH   9  11
ENDBRANCH   4   9
BRANCH   1  17
HETATM   17  C3  UNL     1      32.993  11.969  -5.665  1.00  0.00     0.050 A
HETATM   18  S1  UNL     1      34.599  11.626  -5.222  1.00  0.00    -0.098 SA
HETATM   19  C2  UNL     1      34.310  10.467  -4.002  1.00  0.00     0.050 A
HETATM   20  C1  UNL     1      32.941  10.384  -3.980  1.00  0.00     0.009 A
HETATM   21  C12 UNL     1      32.268  11.160  -4.840  1.00  0.00     0.023 A
ENDBRANCH   1  17
TORSDOF 3
ENDMDL