MODEL 4
REMARK VINA RESULT: -7.302773621      2.205      6.913
REMARK  3 active torsions:
REMARK  status: ('A' for Active; 'I' for Inactive)
REMARK    1  A    between atoms: C5_8  and  S2_9
REMARK    2  A    between atoms: S2_9  and  C6_10
REMARK    3  A    between atoms: C6_10  and  C7_11
ROOT
HETATM    1  S2  UNL     1      33.283  13.303  -7.141  1.00  0.00    -0.111 SA
ENDROOT
BRANCH   1   2
HETATM    2  C5  UNL     1      33.008  12.143  -5.838  1.00  0.00     0.087 A
HETATM    3  C1  UNL     1      34.020  11.910  -4.924  1.00  0.00     0.045 A
HETATM    4  S1  UNL     1      35.561  12.864  -4.931  1.00  0.00    -0.050 SA
HETATM    5  C2  UNL     1      33.807  10.956  -3.959  1.00  0.00     0.023 A
HETATM    6  C3  UNL     1      32.614  10.261  -3.911  1.00  0.00     0.018 A
HETATM    7  C4  UNL     1      31.628  10.528  -4.844  1.00  0.00     0.089 A
HETATM    8  N1  UNL     1      31.825  11.443  -5.778  1.00  0.00    -0.359 N
ATOM      9  H1  UNL     1      31.092  11.632  -6.462  1.00  0.00     0.166 HD
ENDBRANCH   1   2
BRANCH   1  10
HETATM   10  C6  UNL     1      32.025  13.417  -8.387  1.00  0.00     0.085 C
BRANCH  10  11
HETATM   11  C7  UNL     1      30.862  14.321  -8.174  1.00  0.00    -0.005 C
HETATM   12  C8  UNL     1      30.938  15.533  -9.005  1.00  0.00     0.005 C
HETATM   13  C9  UNL     1      29.653  15.832  -9.771  1.00  0.00     0.000 C
HETATM   14  C10 UNL     1      29.561  14.889 -10.948  1.00  0.00     0.000 C
HETATM   15  C11 UNL     1      28.560  13.817 -10.560  1.00  0.00     0.000 C
HETATM   16  C12 UNL     1      29.307  12.910  -9.571  1.00  0.00     0.000 C
HETATM   17  C13 UNL     1      29.541  13.580  -8.261  1.00  0.00     0.005 C
ENDBRANCH  10  11
ENDBRANCH   1  10
TORSDOF 3
ENDMDL