MODEL 2
REMARK VINA RESULT: -8.212637806      0.529      1.235
REMARK  5 active torsions:
REMARK  status: ('A' for Active; 'I' for Inactive)
REMARK    1  A    between atoms: O1_1  and  N1_3
REMARK    2  A    between atoms: C1_5  and  O2_6
REMARK    3  A    between atoms: C1_5  and  C2_8
REMARK    4  A    between atoms: C3_9  and  C4_10
REMARK    5  A    between atoms: C6_13  and  C7_14
ROOT
HETATM    1  C4  UNL     1      30.552  13.704  -8.181  1.00  0.00     0.039 A
HETATM    2  C5  UNL     1      31.515  14.571  -8.642  1.00  0.00     0.081 A
HETATM    3  S1  UNL     1      32.835  14.192  -7.619  1.00  0.00    -0.086 SA
HETATM    4  C6  UNL     1      32.091  12.976  -6.685  1.00  0.00     0.055 A
HETATM    5  N2  UNL     1      30.877  12.921  -7.202  1.00  0.00    -0.353 N
ATOM      6  H2  UNL     1      30.194  12.262  -6.829  1.00  0.00     0.166 HD
ENDROOT
BRANCH   1   7
HETATM    7  C3  UNL     1      29.198  13.681  -8.796  1.00  0.00     0.034 C
HETATM    8  C2  UNL     1      28.952  12.942  -9.859  1.00  0.00     0.060 C
BRANCH   8   9
HETATM    9  C1  UNL     1      27.617  12.948 -10.428  1.00  0.00     0.159 C
HETATM   10  N1  UNL     1      27.142  14.024 -10.952  1.00  0.00    -0.248 N
ATOM     11  H1  UNL     1      27.716  14.867 -10.961  1.00  0.00     0.196 HD
BRANCH  10  12
HETATM   12  O1  UNL     1      25.883  14.065 -11.498  1.00  0.00    -0.288 OA
ATOM     13  H1  UNL     1      25.415  14.884 -11.613  1.00  0.00     0.244 HD
ENDBRANCH  10  12
BRANCH   9  14
HETATM   14  O2  UNL     1      26.830  11.789 -10.416  1.00  0.00    -0.345 OA
ATOM     15  H2  UNL     1      27.254  10.942 -10.342  1.00  0.00     0.219 HD
ENDBRANCH   9  14
ENDBRANCH   8   9
ENDBRANCH   1   7
BRANCH   4  16
HETATM   16  C7  UNL     1      32.655  12.162  -5.560  1.00  0.00     0.043 C
HETATM   17  C8  UNL     1      31.833  10.896  -5.374  1.00  0.00     0.011 C
HETATM   18  C9  UNL     1      32.220  10.316  -4.031  1.00  0.00     0.001 C
HETATM   19  C10 UNL     1      33.719  10.378  -3.851  1.00  0.00     0.000 C
HETATM   20  C11 UNL     1      34.386  10.389  -5.224  1.00  0.00     0.001 C
HETATM   21  C12 UNL     1      34.070  11.722  -5.863  1.00  0.00     0.011 C
ENDBRANCH   4  16
TORSDOF 5
ENDMDL