MODEL 2
REMARK VINA RESULT: -6.362934407      3.670      6.824
REMARK  5 active torsions:
REMARK  status: ('A' for Active; 'I' for Inactive)
REMARK    1  A    between atoms: C4_4  and  S1_5
REMARK    2  A    between atoms: S1_5  and  S2_6
REMARK    3  A    between atoms: S2_6  and  C5_7
REMARK    4  A    between atoms: C5_7  and  N2_11
REMARK    5  A    between atoms: N2_11  and  C6_13
ROOT
HETATM    1  C5  UNL     1      30.198  15.734  -9.277  1.00  0.00     0.145 C
HETATM    2  N1  UNL     1      30.319  16.955  -9.679  1.00  0.00    -0.379 N
ATOM      3  H11 UNL     1      29.503  17.364 -10.135  1.00  0.00     0.158 HD
ATOM      4  H12 UNL     1      31.187  17.472  -9.544  1.00  0.00     0.158 HD
ENDROOT
BRANCH   1   5
HETATM    5  S2  UNL     1      31.631  15.014  -8.477  1.00  0.00    -0.017 SA
BRANCH   5   6
HETATM    6  S1  UNL     1      31.255  13.091  -7.740  1.00  0.00    -0.049 SA
BRANCH   6   7
HETATM    7  C4  UNL     1      32.452  12.635  -6.450  1.00  0.00     0.019 A
HETATM    8  C3  UNL     1      32.178  11.680  -5.536  1.00  0.00     0.034 A
HETATM    9  C2  UNL     1      33.156  11.418  -4.610  1.00  0.00    -0.020 A
HETATM   10  C1  UNL     1      33.122  10.419  -3.491  1.00  0.00     0.056 C
HETATM   11  S3  UNL     1      34.400  12.494  -5.038  1.00  0.00    -0.105 SA
HETATM   12  C9  UNL     1      33.664  13.250  -6.373  1.00  0.00     0.069 A
ENDBRANCH   6   7
ENDBRANCH   5   6
ENDBRANCH   1   5
BRANCH   1  13
HETATM   13  N2  UNL     1      29.007  15.024  -9.462  1.00  0.00    -0.366 N
ATOM     14  H2  UNL     1      28.214  15.175  -8.839  1.00  0.00     0.162 HD
BRANCH  13  15
HETATM   15  C6  UNL     1      28.912  14.073 -10.548  1.00  0.00     0.083 A
HETATM   16  C7  UNL     1      27.566  13.921 -11.148  1.00  0.00     0.027 A
HETATM   17  C8  UNL     1      28.150  12.811 -10.288  1.00  0.00     0.027 A
ENDBRANCH  13  15
ENDBRANCH   1  13
TORSDOF 5
ENDMDL