MODEL 4
REMARK VINA RESULT: -6.427346974      2.394      3.823
REMARK  5 active torsions:
REMARK  status: ('A' for Active; 'I' for Inactive)
REMARK    1  A    between atoms: C2_2  and  C3_3
REMARK    2  A    between atoms: C3_3  and  C4_4
REMARK    3  A    between atoms: C7_8  and  O2_9
REMARK    4  A    between atoms: N1_11  and  C8_12
REMARK    5  A    between atoms: C14_18  and  O3_19
ROOT
HETATM    1  C4  UNL     1      31.647  13.248  -7.332  1.00  0.00     0.169 A
HETATM    2  O1  UNL     1      31.642  14.639  -7.415  1.00  0.00    -0.336 OA
HETATM    3  C5  UNL     1      30.939  14.651  -8.603  1.00  0.00     0.133 A
HETATM    4  C6  UNL     1      30.905  13.280  -8.589  1.00  0.00     0.060 A
HETATM    5  C7  UNL     1      30.216  12.907  -9.731  1.00  0.00     0.156 A
HETATM    6  N1  UNL     1      29.840  13.986 -10.426  1.00  0.00    -0.301 N
HETATM    7  C14 UNL     1      30.279  15.070  -9.742  1.00  0.00     0.179 A
ENDROOT
BRANCH   6   8
HETATM    8  C8  UNL     1      29.116  14.063 -11.652  1.00  0.00     0.094 C
HETATM    9  C9  UNL     1      27.647  13.782 -11.456  1.00  0.00     0.026 C
HETATM   10  C10 UNL     1      26.858  13.955 -12.699  1.00  0.00     0.002 C
HETATM   11  C11 UNL     1      27.488  13.542 -13.962  1.00  0.00     0.000 C
HETATM   12  C12 UNL     1      28.977  13.444 -13.979  1.00  0.00     0.002 C
HETATM   13  C13 UNL     1      29.578  13.010 -12.665  1.00  0.00     0.026 C
ENDBRANCH   6   8
BRANCH   5  14
HETATM   14  O2  UNL     1      29.957  11.594 -10.099  1.00  0.00    -0.345 OA
ATOM     15  H2  UNL     1      29.150  11.130  -9.906  1.00  0.00     0.219 HD
ENDBRANCH   5  14
BRANCH   7  16
HETATM   16  O3  UNL     1      30.125  16.415 -10.073  1.00  0.00    -0.344 OA
ATOM     17  H3  UNL     1      29.793  16.701 -10.915  1.00  0.00     0.219 HD
ENDBRANCH   7  16
BRANCH   1  18
HETATM   18  C3  UNL     1      33.050  12.711  -7.492  1.00  0.00     0.037 C
BRANCH  18  19
HETATM   19  C2  UNL     1      33.417  12.003  -6.207  1.00  0.00    -0.002 C
HETATM   20  C1  UNL     1      32.197  11.454  -5.508  1.00  0.00     0.005 C
ENDBRANCH  18  19
ENDBRANCH   1  18
TORSDOF 5
ENDMDL