MODEL 3
REMARK VINA RESULT: -7.543830924      1.433      5.622
REMARK  3 active torsions:
REMARK  status: ('A' for Active; 'I' for Inactive)
REMARK    1  A    between atoms: C3_5  and  C4_6
REMARK    2  A    between atoms: C7_10  and  N2_11
REMARK    3  A    between atoms: N2_11  and  C8_13
ROOT
HETATM    1  C4  UNL     1      31.271  14.658  -8.230  1.00  0.00     0.076 A
HETATM    2  S1  UNL     1      32.092  16.147  -8.552  1.00  0.00    -0.096 SA
HETATM    3  C5  UNL     1      30.903  16.919  -9.479  1.00  0.00     0.053 A
HETATM    4  C6  UNL     1      29.890  16.001  -9.518  1.00  0.00     0.038 A
HETATM    5  C7  UNL     1      30.080  14.832  -8.873  1.00  0.00     0.050 A
ENDROOT
BRANCH   1   6
HETATM    6  C3  UNL     1      31.802  13.525  -7.438  1.00  0.00     0.141 A
HETATM    7  N1  UNL     1      31.190  12.682  -6.620  1.00  0.00    -0.329 N
HETATM    8  C2  UNL     1      32.082  11.815  -6.123  1.00  0.00     0.093 A
ATOM      9  H1  UNL     1      30.193  12.692  -6.403  1.00  0.00     0.168 HD
HETATM   10  C1  UNL     1      31.894  10.694  -5.177  1.00  0.00     0.090 C
HETATM   11  N4  UNL     1      33.262  12.146  -6.657  1.00  0.00    -0.288 N
HETATM   12  N3  UNL     1      33.096  13.174  -7.448  1.00  0.00    -0.283 N
ATOM     13  H4  UNL     1      34.148  11.674  -6.478  1.00  0.00     0.188 HD
ATOM     14  H3  UNL     1      33.830  13.635  -7.985  1.00  0.00     0.188 HD
ENDBRANCH   1   6
BRANCH   5  15
HETATM   15  N2  UNL     1      29.072  13.779  -8.864  1.00  0.00    -0.384 N
ATOM     16  H2  UNL     1      28.418  13.732  -8.083  1.00  0.00     0.160 HD
BRANCH  15  17
HETATM   17  C8  UNL     1      28.965  12.796  -9.926  1.00  0.00     0.081 C
HETATM   18  C9  UNL     1      29.779  13.247 -11.077  1.00  0.00     0.025 C
HETATM   19  C10 UNL     1      28.903  13.702 -12.229  1.00  0.00     0.002 C
HETATM   20  C11 UNL     1      28.150  12.463 -12.662  1.00  0.00     0.000 C
HETATM   21  C12 UNL     1      27.256  11.930 -11.579  1.00  0.00     0.002 C
HETATM   22  C13 UNL     1      27.546  12.449 -10.216  1.00  0.00     0.025 C
ENDBRANCH  15  17
ENDBRANCH   5  15
TORSDOF 3
ENDMDL