MODEL 2
REMARK VINA RESULT: -6.061900618      2.184      6.130
REMARK  5 active torsions:
REMARK  status: ('A' for Active; 'I' for Inactive)
REMARK    1  A    between atoms: C2_2  and  C3_3
REMARK    2  A    between atoms: C3_3  and  C4_4
REMARK    3  A    between atoms: C4_4  and  N1_5
REMARK    4  A    between atoms: C5_6  and  O1_7
REMARK    5  A    between atoms: C10_14  and  O2_15
ROOT
HETATM    1  N1  UNL     1      30.983  14.714  -8.364  1.00  0.00    -0.307 N
HETATM    2  C5  UNL     1      32.192  15.093  -8.008  1.00  0.00     0.162 A
HETATM    3  C6  UNL     1      32.678  14.055  -7.194  1.00  0.00     0.071 A
HETATM    4  S1  UNL     1      33.992  13.499  -6.259  1.00  0.00    -0.089 SA
HETATM    5  C7  UNL     1      33.351  12.016  -5.723  1.00  0.00    -0.009 A
HETATM    6  C8  UNL     1      32.113  11.990  -6.292  1.00  0.00    -0.029 A
HETATM    7  C9  UNL     1      31.756  13.056  -7.063  1.00  0.00     0.044 A
HETATM    8  C10 UNL     1      30.670  13.517  -7.835  1.00  0.00     0.156 A
HETATM    9  C11 UNL     1      31.494  10.668  -5.836  1.00  0.00     0.041 C
HETATM   10  C12 UNL     1      32.178  10.435  -4.513  1.00  0.00     0.010 C
HETATM   11  C13 UNL     1      33.612  10.774  -4.897  1.00  0.00     0.047 C
ENDROOT
BRANCH   1  12
HETATM   12  C4  UNL     1      30.100  15.466  -9.202  1.00  0.00     0.133 C
BRANCH  12  13
HETATM   13  C3  UNL     1      29.882  14.922 -10.563  1.00  0.00     0.020 C
BRANCH  13  14
HETATM   14  C2  UNL     1      28.476  14.424 -10.821  1.00  0.00    -0.003 C
HETATM   15  C1  UNL     1      28.525  12.996 -11.385  1.00  0.00     0.005 C
ENDBRANCH  13  14
ENDBRANCH  12  13
ENDBRANCH   1  12
BRANCH   2  16
HETATM   16  O1  UNL     1      32.937  16.215  -8.292  1.00  0.00    -0.345 OA
ATOM     17  H1  UNL     1      33.784  16.335  -8.705  1.00  0.00     0.219 HD
ENDBRANCH   2  16
BRANCH   8  18
HETATM   18  O2  UNL     1      29.454  12.848  -8.028  1.00  0.00    -0.345 OA
ATOM     19  H2  UNL     1      29.292  12.201  -8.704  1.00  0.00     0.219 HD
ENDBRANCH   8  18
TORSDOF 5
ENDMDL