MODEL 5
REMARK VINA RESULT: -4.916028440      3.546      5.220
REMARK  3 active torsions:
REMARK  status: ('A' for Active; 'I' for Inactive)
REMARK    1  A    between atoms: C2_2  and  C3_3
REMARK    2  A    between atoms: C3_3  and  N1_4
REMARK    3  A    between atoms: C4_5  and  O1_6
ROOT
HETATM    1  N1  UNL     1      29.557  13.853  -9.697  1.00  0.00    -0.304 N
HETATM    2  C4  UNL     1      28.684  13.673 -10.666  1.00  0.00     0.158 A
HETATM    3  C5  UNL     1      28.740  12.576 -11.553  1.00  0.00     0.055 A
HETATM    4  C6  UNL     1      27.643  12.250 -12.438  1.00  0.00    -0.062 C
HETATM    5  C7  UNL     1      27.748  12.426 -13.915  1.00  0.00     0.035 C
HETATM    6  C8  UNL     1      26.414  13.194 -13.800  1.00  0.00     0.009 C
HETATM    7  C9  UNL     1      26.247  12.665 -12.361  1.00  0.00     0.035 C
HETATM    8  C10 UNL     1      29.780  11.710 -11.325  1.00  0.00     0.117 A
HETATM    9  S1  UNL     1      30.010  10.365 -12.253  1.00  0.00    -0.059 SA
HETATM   10  N2  UNL     1      30.676  11.886 -10.327  1.00  0.00    -0.323 N
ATOM     11  H2  UNL     1      31.435  11.220 -10.185  1.00  0.00     0.169 HD
HETATM   12  C11 UNL     1      30.546  12.956  -9.528  1.00  0.00     0.181 A
HETATM   13  S2  UNL     1      31.640  13.124  -8.317  1.00  0.00    -0.040 SA
ENDROOT
BRANCH   2  14
HETATM   14  O1  UNL     1      27.671  14.579 -10.828  1.00  0.00    -0.345 OA
ATOM     15  H1  UNL     1      27.874  15.507 -10.814  1.00  0.00     0.219 HD
ENDBRANCH   2  14
BRANCH   1  16
HETATM   16  C3  UNL     1      29.590  15.097  -8.918  1.00  0.00     0.133 C
BRANCH  16  17
HETATM   17  C2  UNL     1      30.239  16.202  -9.650  1.00  0.00     0.016 C
HETATM   18  C1  UNL     1      31.488  16.776  -9.090  1.00  0.00     0.006 C
ENDBRANCH  16  17
ENDBRANCH   1  16
TORSDOF 3
ENDMDL