MODEL 5
REMARK VINA RESULT: -5.495432445      2.719      5.615
REMARK  4 active torsions:
REMARK  status: ('A' for Active; 'I' for Inactive)
REMARK    1  A    between atoms: C2_2  and  N1_3
REMARK    2  A    between atoms: C2_2  and  C3_6
REMARK    3  A    between atoms: C6_10  and  N2_11
REMARK    4  A    between atoms: N2_11  and  C7_13
ROOT
HETATM    1  N1  UNL     1      33.201  13.599  -6.990  1.00  0.00    -0.287 NA
HETATM    2  O1  UNL     1      34.303  13.738  -6.453  1.00  0.00    -0.218 OA
ATOM      3  H1  UNL     1      35.170  13.859  -6.086  1.00  0.00     0.261 HD
ENDROOT
BRANCH   1   4
HETATM    4  C2  UNL     1      32.087  13.443  -7.463  1.00  0.00     0.132 C
HETATM    5  C1  UNL     1      31.358  12.168  -7.258  1.00  0.00     0.089 C
BRANCH   4   6
HETATM    6  C3  UNL     1      31.494  14.537  -8.279  1.00  0.00     0.070 A
HETATM    7  S1  UNL     1      32.113  16.173  -8.261  1.00  0.00    -0.097 SA
HETATM    8  C4  UNL     1      31.089  16.869  -9.408  1.00  0.00     0.053 A
HETATM    9  C5  UNL     1      30.298  15.836  -9.777  1.00  0.00     0.038 A
HETATM   10  C6  UNL     1      30.503  14.613  -9.190  1.00  0.00     0.049 A
BRANCH  10  11
HETATM   11  N2  UNL     1      29.642  13.475  -9.488  1.00  0.00    -0.383 N
ATOM     12  H2  UNL     1      29.125  13.013  -8.740  1.00  0.00     0.160 HD
BRANCH  11  13
HETATM   13  C7  UNL     1      29.524  13.005 -10.854  1.00  0.00     0.089 C
HETATM   14  C8  UNL     1      30.565  11.961 -11.159  1.00  0.00     0.026 C
HETATM   15  C9  UNL     1      29.796  10.671 -10.940  1.00  0.00     0.003 C
HETATM   16  C10 UNL     1      28.457  10.974 -11.544  1.00  0.00     0.011 C
HETATM   17  C11 UNL     1      28.201  12.418 -11.177  1.00  0.00    -0.027 C
HETATM   18  C12 UNL     1      27.174  12.501 -10.087  1.00  0.00     0.017 C
HETATM   19  C13 UNL     1      27.633  13.169 -12.379  1.00  0.00     0.017 C
ENDBRANCH  11  13
ENDBRANCH  10  11
ENDBRANCH   4   6
ENDBRANCH   1   4
TORSDOF 4
ENDMDL