MODEL 2
REMARK VINA RESULT: -4.680310854      4.082      5.521
REMARK  4 active torsions:
REMARK  status: ('A' for Active; 'I' for Inactive)
REMARK    1  A    between atoms: C2_2  and  C3_3
REMARK    2  A    between atoms: C3_3  and  C4_4
REMARK    3  A    between atoms: N2_9  and  O1_11
REMARK    4  A    between atoms: C9_16  and  S2_17
ROOT
HETATM    1  C3  UNL     1      28.066  12.854 -11.335  1.00  0.00     0.061 A
HETATM    2  N1  UNL     1      26.778  13.095 -10.769  1.00  0.00    -0.361 N
ATOM      3  H1  UNL     1      26.529  12.958  -9.790  1.00  0.00     0.162 HD
HETATM    4  C6  UNL     1      25.898  13.556 -11.785  1.00  0.00     0.133 A
HETATM    5  N2  UNL     1      24.664  13.856 -11.579  1.00  0.00    -0.253 N
ATOM      6  H2  UNL     1      24.258  13.772 -10.647  1.00  0.00     0.196 HD
HETATM    7  C7  UNL     1      26.679  13.606 -13.050  1.00  0.00     0.026 A
HETATM    8  C8  UNL     1      26.371  13.967 -14.345  1.00  0.00     0.067 A
HETATM    9  S1  UNL     1      27.848  13.728 -15.165  1.00  0.00    -0.093 SA
HETATM   10  C9  UNL     1      28.801  13.187 -13.870  1.00  0.00     0.050 A
HETATM   11  C11 UNL     1      27.924  13.205 -12.801  1.00  0.00     0.008 A
ENDROOT
BRANCH   1  12
HETATM   12  C2  UNL     1      29.164  13.705 -10.738  1.00  0.00     0.032 C
HETATM   13  C1  UNL     1      29.188  13.668  -9.251  1.00  0.00     0.008 C
ENDBRANCH   1  12
BRANCH   1  14
HETATM   14  C4  UNL     1      28.424  11.410 -11.162  1.00  0.00     0.032 C
HETATM   15  C5  UNL     1      27.245  10.576 -10.726  1.00  0.00     0.008 C
ENDBRANCH   1  14
BRANCH  10  16
HETATM   16  S2  UNL     1      30.532  12.716 -13.929  1.00  0.00    -0.126 SA
HETATM   17  C10 UNL     1      31.314  13.474 -15.374  1.00  0.00     0.096 C
ENDBRANCH  10  16
BRANCH   5  18
HETATM   18  O1  UNL     1      23.908  14.291 -12.631  1.00  0.00    -0.288 OA
ATOM     19  H1  UNL     1      23.498  15.146 -12.576  1.00  0.00     0.244 HD
ENDBRANCH   5  18
TORSDOF 4
ENDMDL