MODEL 3
REMARK VINA RESULT: -5.220804738      2.457      3.911
REMARK  2 active torsions:
REMARK  status: ('A' for Active; 'I' for Inactive)
REMARK    1  A    between atoms: N1_1  and  C1_5
REMARK    2  A    between atoms: C1_5  and  C2_6
ROOT
HETATM    1  C2  UNL     1      48.808  32.023   3.424  1.00  0.00     0.016 C
HETATM    2  C3  UNL     1      47.565  31.171   3.557  1.00  0.00     0.038 C
HETATM    3  C4  UNL     1      47.588  30.126   4.650  1.00  0.00     0.122 C
HETATM    4  C5  UNL     1      46.614  30.324   5.789  1.00  0.00     0.032 C
HETATM    5  C6  UNL     1      47.269  30.531   7.165  1.00  0.00     0.005 C
HETATM    6  C7  UNL     1      48.464  31.525   7.097  1.00  0.00     0.032 C
HETATM    7  C8  UNL     1      48.589  31.728   5.701  1.00  0.00     0.122 C
HETATM    8  C9  UNL     1      49.451  32.404   4.783  1.00  0.00     0.038 C
HETATM    9  O1  UNL     1      48.786  30.384   5.263  1.00  0.00    -0.381 OA
ENDROOT
BRANCH   1  10
HETATM   10  C1  UNL     1      49.803  31.524   2.449  1.00  0.00     0.234 C
BRANCH  10  11
HETATM   11  N1  UNL     1      51.174  31.627   2.829  1.00  0.00    -0.079 N
ATOM     12  H13 UNL     1      51.563  30.694   2.968  1.00  0.00     0.274 HD
ATOM     13  H12 UNL     1      51.729  31.942   2.033  1.00  0.00     0.274 HD
ATOM     14  H11 UNL     1      51.379  32.209   3.642  1.00  0.00     0.274 HD
ENDBRANCH  10  11
ENDBRANCH   1  10
TORSDOF 2
ENDMDL