MODEL 1
REMARK VINA RESULT: -5.179911246      0.000      0.000
REMARK  3 active torsions:
REMARK  status: ('A' for Active; 'I' for Inactive)
REMARK    1  A    between atoms: C1_4  and  C2_5
REMARK    2  A    between atoms: C2_5  and  N2_6
REMARK    3  A    between atoms: C3_8  and  C4_9
ROOT
HETATM    1  N2  UNL     1      57.426  27.273   9.249  1.00  0.00    -0.397 N
ATOM      2  H2  UNL     1      57.981  26.723   8.594  1.00  0.00     0.159 HD
HETATM    3  C3  UNL     1      56.597  26.669  10.028  1.00  0.00     0.061 C
ENDROOT
BRANCH   1   4
HETATM    4  C2  UNL     1      57.588  28.681   9.278  1.00  0.00     0.162 C
BRANCH   4   5
HETATM    5  C1  UNL     1      56.984  29.316   8.080  1.00  0.00     0.072 C
HETATM    6  N1  UNL     1      56.704  28.590   7.078  1.00  0.00    -0.410 N
ATOM      7  H12 UNL     1      56.897  27.589   7.111  1.00  0.00     0.155 HD
ATOM      8  H11 UNL     1      56.289  29.027   6.254  1.00  0.00     0.155 HD
ENDBRANCH   4   5
ENDBRANCH   1   4
BRANCH   3   9
HETATM    9  C4  UNL     1      55.803  27.471  10.968  1.00  0.00     0.028 C
HETATM   10  C5  UNL     1      56.295  27.266  12.417  1.00  0.00     0.014 C
HETATM   11  C6  UNL     1      55.025  26.809  13.044  1.00  0.00    -0.013 C
HETATM   12  C7  UNL     1      53.968  27.718  12.404  1.00  0.00     0.010 C
HETATM   13  C9  UNL     1      54.535  25.768  12.029  1.00  0.00     0.010 C
HETATM   14  C8  UNL     1      54.392  26.999  11.130  1.00  0.00    -0.005 C
ENDBRANCH   3   9
TORSDOF 3
ENDMDL