MODEL 1
REMARK VINA RESULT: -4.335212104      0.000      0.000
REMARK  2 active torsions:
REMARK  status: ('A' for Active; 'I' for Inactive)
REMARK    1  A    between atoms: C2_2  and  C3_3
REMARK    2  A    between atoms: C3_3  and  C4_4
ROOT
HETATM    1  C4  UNL     1      50.377  32.603   3.887  1.00  0.00     0.198 C
HETATM    2  C5  UNL     1      49.419  33.454   4.700  1.00  0.00     0.107 C
HETATM    3  S1  UNL     1      50.312  35.028   5.011  1.00  0.00    -0.165 SA
HETATM    4  C6  UNL     1      52.063  34.540   5.057  1.00  0.00     0.101 C
HETATM    5  C7  UNL     1      52.381  33.930   3.716  1.00  0.00     0.243 C
HETATM    6  N1  UNL     1      51.238  33.403   3.049  1.00  0.00    -0.069 N
ATOM      7  H11 UNL     1      50.707  34.152   2.605  1.00  0.00     0.277 HD
ATOM      8  H12 UNL     1      51.519  32.877   2.222  1.00  0.00     0.277 HD
ENDROOT
BRANCH   1   9
HETATM    9  C3  UNL     1      49.545  31.711   3.007  1.00  0.00     0.060 C
BRANCH   9  10
HETATM   10  C2  UNL     1      48.246  31.346   3.633  1.00  0.00    -0.035 C
HETATM   11  C1  UNL     1      48.066  30.115   4.048  1.00  0.00     0.007 C
ENDBRANCH   9  10
ENDBRANCH   1   9
TORSDOF 2
ENDMDL