MODEL 4
REMARK VINA RESULT: -4.955918438      2.109      4.383
REMARK  3 active torsions:
REMARK  status: ('A' for Active; 'I' for Inactive)
REMARK    1  A    between atoms: C2_2  and  C3_3
REMARK    2  A    between atoms: C9_9  and  C10_10
REMARK    3  A    between atoms: C10_10  and  N1_11
ROOT
HETATM    1  C3  UNL     1      49.312  36.245   6.414  1.00  0.00     0.014 C
HETATM    2  C4  UNL     1      49.058  35.692   5.004  1.00  0.00     0.019 C
HETATM    3  C5  UNL     1      49.848  34.498   5.416  1.00  0.00    -0.034 C
HETATM    4  C6  UNL     1      49.499  33.185   4.825  1.00  0.00     0.010 C
HETATM    5  C7  UNL     1      50.702  33.365   3.885  1.00  0.00     0.002 C
HETATM    6  C8  UNL     1      51.234  34.352   4.938  1.00  0.00     0.010 C
HETATM    7  C9  UNL     1      49.535  34.782   6.821  1.00  0.00     0.027 C
ENDROOT
BRANCH   7   8
HETATM    8  C10 UNL     1      50.689  34.567   7.743  1.00  0.00     0.235 C
BRANCH   8   9
HETATM    9  N1  UNL     1      50.324  33.875   8.961  1.00  0.00    -0.079 N
ATOM     10  H13 UNL     1      50.849  34.238   9.756  1.00  0.00     0.274 HD
ATOM     11  H12 UNL     1      49.380  34.128   9.253  1.00  0.00     0.274 HD
ATOM     12  H11 UNL     1      50.423  32.862   8.892  1.00  0.00     0.274 HD
ENDBRANCH   8   9
ENDBRANCH   7   8
BRANCH   1  13
HETATM   13  C2  UNL     1      48.110  36.872   6.970  1.00  0.00    -0.032 C
HETATM   14  C1  UNL     1      47.086  37.292   6.236  1.00  0.00     0.007 C
ENDBRANCH   1  13
TORSDOF 3
ENDMDL