MODEL 3
REMARK VINA RESULT: -4.083622690      1.450      2.420
REMARK  2 active torsions:
REMARK  status: ('A' for Active; 'I' for Inactive)
REMARK    1  A    between atoms: C1_2  and  C2_3
REMARK    2  A    between atoms: C2_3  and  N1_4
ROOT
HETATM    1  N1  UNL     1      51.559  34.040   4.993  1.00  0.00     0.089 N
HETATM    2  C3  UNL     1      52.417  34.135   3.818  1.00  0.00     0.272 C
HETATM    3  C4  UNL     1      51.757  33.645   2.558  1.00  0.00     0.030 C
HETATM    4  C5  UNL     1      51.176  32.274   2.849  1.00  0.00     0.003 C
HETATM    5  C6  UNL     1      50.078  32.486   3.863  1.00  0.00     0.030 C
HETATM    6  C7  UNL     1      50.164  33.817   4.535  1.00  0.00     0.272 C
ENDROOT
BRANCH   1   7
HETATM    7  C2  UNL     1      51.628  35.345   5.617  1.00  0.00     0.283 C
BRANCH   7   8
HETATM    8  C1  UNL     1      50.348  36.129   5.586  1.00  0.00     0.116 C
HETATM    9  S1  UNL     1      50.147  36.847   7.270  1.00  0.00    -0.096 SA
ENDBRANCH   7   8
ENDBRANCH   1   7
TORSDOF 2
ENDMDL