MODEL 4
REMARK VINA RESULT: -5.272241110      1.203      2.288
REMARK  2 active torsions:
REMARK  status: ('A' for Active; 'I' for Inactive)
REMARK    1  A    between atoms: C2_3  and  N2_4
REMARK    2  A    between atoms: N2_4  and  C3_6
ROOT
HETATM    1  N1  UNL     1      52.996  34.311   6.161  1.00  0.00    -0.191 NA
HETATM    2  C1  UNL     1      52.154  34.347   5.340  1.00  0.00     0.104 C
HETATM    3  C2  UNL     1      51.122  34.450   4.332  1.00  0.00     0.178 C
ENDROOT
BRANCH   3   4
HETATM    4  N2  UNL     1      50.948  33.289   3.573  1.00  0.00    -0.386 N
ATOM      5  H2  UNL     1      51.471  33.170   2.706  1.00  0.00     0.159 HD
BRANCH   4   6
HETATM    6  C3  UNL     1      50.051  32.276   3.996  1.00  0.00     0.081 C
HETATM    7  C4  UNL     1      49.412  31.586   2.846  1.00  0.00     0.025 C
HETATM    8  C5  UNL     1      48.009  31.072   3.160  1.00  0.00     0.002 C
HETATM    9  C6  UNL     1      48.141  30.055   4.261  1.00  0.00     0.000 C
HETATM   10  C7  UNL     1      47.724  30.740   5.548  1.00  0.00     0.000 C
HETATM   11  C8  UNL     1      48.716  31.746   6.040  1.00  0.00     0.002 C
HETATM   12  C9  UNL     1      49.067  32.808   5.026  1.00  0.00     0.025 C
ENDBRANCH   4   6
ENDBRANCH   3   4
TORSDOF 2
ENDMDL