MODEL 5
REMARK VINA RESULT: -4.993916063      1.570      2.281
REMARK  3 active torsions:
REMARK  status: ('A' for Active; 'I' for Inactive)
REMARK    1  A    between atoms: N1_1  and  C1_5
REMARK    2  A    between atoms: C1_5  and  C2_6
REMARK    3  A    between atoms: C2_6  and  C3_7
ROOT
HETATM    1  C3  UNL     1      51.279  34.260   4.957  1.00  0.00     0.122 C
HETATM    2  C4  UNL     1      50.025  33.528   4.729  1.00  0.00     0.032 C
HETATM    3  C5  UNL     1      49.992  32.446   3.749  1.00  0.00     0.002 C
HETATM    4  C6  UNL     1      51.183  32.247   2.881  1.00  0.00     0.002 C
HETATM    5  C7  UNL     1      51.746  33.479   2.258  1.00  0.00     0.026 C
HETATM    6  C8  UNL     1      52.662  34.224   3.205  1.00  0.00     0.168 C
HETATM    7  O1  UNL     1      52.425  33.700   4.476  1.00  0.00    -0.386 OA
ENDROOT
BRANCH   1   8
HETATM    8  C2  UNL     1      51.483  34.541   6.456  1.00  0.00     0.059 C
BRANCH   8   9
HETATM    9  C1  UNL     1      51.302  36.043   6.661  1.00  0.00     0.232 C
BRANCH   9  10
HETATM   10  N1  UNL     1      51.870  36.760   5.540  1.00  0.00    -0.079 N
ATOM     11  H13 UNL     1      51.160  37.262   5.007  1.00  0.00     0.274 HD
ATOM     12  H12 UNL     1      52.424  37.563   5.839  1.00  0.00     0.274 HD
ATOM     13  H11 UNL     1      52.406  36.119   4.956  1.00  0.00     0.274 HD
ENDBRANCH   9  10
ENDBRANCH   8   9
ENDBRANCH   1   8
TORSDOF 3
ENDMDL