MODEL 4
REMARK VINA RESULT: -4.864304758      1.539      2.602
REMARK  3 active torsions:
REMARK  status: ('A' for Active; 'I' for Inactive)
REMARK    1  A    between atoms: N1_1  and  C1_5
REMARK    2  A    between atoms: N2_10  and  C6_11
REMARK    3  A    between atoms: C6_11  and  C7_12
ROOT
HETATM    1  C1  UNL     1      49.666  32.123   4.283  1.00  0.00     0.417 C
HETATM    2  C2  UNL     1      49.674  31.606   2.875  1.00  0.00     0.065 C
HETATM    3  C3  UNL     1      50.885  31.970   2.086  1.00  0.00     0.005 C
HETATM    4  C4  UNL     1      51.503  33.280   2.441  1.00  0.00     0.030 C
HETATM    5  C5  UNL     1      51.359  33.625   3.908  1.00  0.00     0.275 C
HETATM    6  N2  UNL     1      49.961  33.540   4.230  1.00  0.00     0.119 N
ENDROOT
BRANCH   1   7
HETATM    7  N1  UNL     1      48.479  31.776   4.969  1.00  0.00    -0.048 N
ATOM      8  H13 UNL     1      48.206  30.812   4.774  1.00  0.00     0.276 HD
ATOM      9  H12 UNL     1      48.641  31.697   5.973  1.00  0.00     0.276 HD
ATOM     10  H11 UNL     1      47.716  32.423   4.767  1.00  0.00     0.276 HD
ENDBRANCH   1   7
BRANCH   6  11
HETATM   11  C6  UNL     1      49.611  34.140   5.485  1.00  0.00     0.279 C
BRANCH  11  12
HETATM   12  C7  UNL     1      49.368  35.604   5.432  1.00  0.00     0.014 A
HETATM   13  C8  UNL     1      50.389  36.412   6.239  1.00  0.00     0.007 A
HETATM   14  C9  UNL     1      48.945  36.345   6.708  1.00  0.00     0.007 A
ENDBRANCH  11  12
ENDBRANCH   6  11
TORSDOF 3
ENDMDL