MODEL 3
REMARK VINA RESULT: -4.226761842      3.446      4.991
REMARK  2 active torsions:
REMARK  status: ('A' for Active; 'I' for Inactive)
REMARK    1  A    between atoms: C1_2  and  C2_3
REMARK    2  A    between atoms: C2_3  and  C3_4
ROOT
HETATM    1  C3  UNL     1      49.547  33.774   4.617  1.00  0.00     0.048 C
HETATM    2  C4  UNL     1      50.958  34.152   4.365  1.00  0.00     0.279 C
HETATM    3  N1  UNL     1      51.140  34.152   5.834  1.00  0.00     0.093 N
HETATM    4  C5  UNL     1      51.867  35.307   6.312  1.00  0.00     0.273 C
HETATM    5  C6  UNL     1      51.225  36.538   5.754  1.00  0.00     0.032 C
HETATM    6  C7  UNL     1      49.787  36.089   5.515  1.00  0.00     0.038 C
HETATM    7  C8  UNL     1      49.755  34.647   5.860  1.00  0.00     0.228 C
ENDROOT
BRANCH   1   8
HETATM    8  C2  UNL     1      49.225  32.380   4.995  1.00  0.00     0.019 C
BRANCH   8   9
HETATM    9  C1  UNL     1      48.547  31.522   4.012  1.00  0.00     0.086 C
HETATM   10  S1  UNL     1      47.788  30.013   4.547  1.00  0.00    -0.098 SA
ENDBRANCH   8   9
ENDBRANCH   1   8
TORSDOF 2
ENDMDL