MODEL 5
REMARK VINA RESULT: -5.082295670      3.058      4.970
REMARK  3 active torsions:
REMARK  status: ('A' for Active; 'I' for Inactive)
REMARK    1  A    between atoms: N1_1  and  C1_5
REMARK    2  A    between atoms: C3_7  and  C4_8
REMARK    3  A    between atoms: C4_8  and  C5_9
ROOT
HETATM    1  C1  UNL     1      52.151  34.928   6.678  1.00  0.00     0.188 A
HETATM    2  C2  UNL     1      51.585  36.130   5.902  1.00  0.00     0.039 A
HETATM    3  C3  UNL     1      51.254  34.732   5.518  1.00  0.00     0.018 A
ENDROOT
BRANCH   3   4
HETATM    4  C4  UNL     1      51.806  34.267   4.186  1.00  0.00     0.011 C
BRANCH   4   5
HETATM    5  C5  UNL     1      50.707  33.496   3.498  1.00  0.00    -0.010 C
HETATM    6  C6  UNL     1      49.662  32.991   4.459  1.00  0.00     0.031 C
HETATM    7  C7  UNL     1      49.241  31.583   4.176  1.00  0.00     0.168 C
HETATM    8  O1  UNL     1      49.092  31.287   2.847  1.00  0.00    -0.391 OA
HETATM    9  C8  UNL     1      50.130  31.650   2.038  1.00  0.00     0.168 C
HETATM   10  C9  UNL     1      51.281  32.291   2.787  1.00  0.00     0.031 C
ENDBRANCH   4   5
ENDBRANCH   3   4
BRANCH   1  11
HETATM   11  N1  UNL     1      53.578  34.794   6.548  1.00  0.00    -0.075 N
ATOM     12  H13 UNL     1      54.028  35.709   6.510  1.00  0.00     0.274 HD
ATOM     13  H12 UNL     1      53.992  34.442   7.411  1.00  0.00     0.274 HD
ATOM     14  H11 UNL     1      53.854  34.220   5.751  1.00  0.00     0.274 HD
ENDBRANCH   1  11
TORSDOF 3
ENDMDL