MODEL 4
REMARK VINA RESULT: -5.927684125      1.094      1.094
REMARK  3 active torsions:
REMARK  status: ('A' for Active; 'I' for Inactive)
REMARK    1  A    between atoms: C2_2  and  N1_3
REMARK    2  A    between atoms: C2_2  and  C3_7
REMARK    3  A    between atoms: C3_7  and  N2_8
ROOT
HETATM    1  C3  UNL     1      13.878   5.170  15.965  1.00  0.00     0.160 C
ENDROOT
BRANCH   1   2
HETATM    2  C2  UNL     1      14.647   6.093  15.053  1.00  0.00     0.197 C
HETATM    3  C1  UNL     1      16.091   6.218  15.436  1.00  0.00     0.041 C
BRANCH   2   4
HETATM    4  N1  UNL     1      14.024   7.400  15.148  1.00  0.00    -0.074 N
ATOM      5  H13 UNL     1      13.035   7.379  14.900  1.00  0.00     0.274 HD
ATOM      6  H12 UNL     1      13.920   7.713  16.113  1.00  0.00     0.274 HD
ATOM      7  H11 UNL     1      14.556   8.059  14.579  1.00  0.00     0.274 HD
ENDBRANCH   2   4
ENDBRANCH   1   2
BRANCH   1   8
HETATM    8  N2  UNL     1      13.996   3.789  15.628  1.00  0.00    -0.364 N
HETATM    9  C4  UNL     1      14.013   3.429  14.334  1.00  0.00     0.090 A
HETATM   10  C5  UNL     1      14.127   2.097  14.020  1.00  0.00     0.017 A
HETATM   11  C6  UNL     1      14.222   1.153  15.016  1.00  0.00     0.003 A
HETATM   12  C7  UNL     1      14.201   1.550  16.319  1.00  0.00     0.017 A
HETATM   13  C8  UNL     1      14.087   2.890  16.623  1.00  0.00     0.090 A
ENDBRANCH   1   8
TORSDOF 3
ENDMDL