MODEL 3
REMARK VINA RESULT: -6.831199520      1.301      1.671
REMARK  4 active torsions:
REMARK  status: ('A' for Active; 'I' for Inactive)
REMARK    1  A    between atoms: O1_1  and  C1_3
REMARK    2  A    between atoms: C1_3  and  C2_4
REMARK    3  A    between atoms: C3_5  and  C4_6
REMARK    4  A    between atoms: C4_6  and  C5_7
ROOT
HETATM    1  C5  UNL     1      14.626   4.139  15.514  1.00  0.00    -0.047 A
HETATM    2  C6  UNL     1      13.284   4.338  15.786  1.00  0.00     0.008 A
HETATM    3  C7  UNL     1      12.512   3.385  16.393  1.00  0.00     0.001 A
HETATM    4  C8  UNL     1      13.067   2.171  16.758  1.00  0.00     0.000 A
HETATM    5  C9  UNL     1      14.392   1.954  16.499  1.00  0.00     0.001 A
HETATM    6  C10 UNL     1      15.154   2.921  15.888  1.00  0.00     0.008 A
ENDROOT
BRANCH   1   7
HETATM    7  C4  UNL     1      15.401   5.209  14.857  1.00  0.00     0.132 C
BRANCH   7   8
HETATM    8  C3  UNL     1      15.144   6.524  15.490  1.00  0.00    -0.100 C
HETATM    9  C2  UNL     1      14.950   7.603  15.995  1.00  0.00    -0.080 C
BRANCH   9  10
HETATM   10  C1  UNL     1      14.729   8.928  16.596  1.00  0.00     0.257 C
BRANCH  10  11
HETATM   11  O1  UNL     1      15.505   9.910  15.962  1.00  0.00    -0.389 OA
ATOM     12  H1  UNL     1      15.948  10.462  16.597  1.00  0.00     0.210 HD
ENDBRANCH  10  11
ENDBRANCH   9  10
ENDBRANCH   7   8
ENDBRANCH   1   7
TORSDOF 4
ENDMDL