MODEL 5
REMARK VINA RESULT: -5.308593766      0.906      2.109
REMARK  1 active torsions:
REMARK  status: ('A' for Active; 'I' for Inactive)
REMARK    1  A    between atoms: N3_6  and  C3_7
ROOT
HETATM    1  C1  UNL     1      13.781   6.856  14.880  1.00  0.00     0.181 C
HETATM    2  N1  UNL     1      14.856   5.959  15.235  1.00  0.00    -0.270 N
HETATM    3  C2  UNL     1      16.166   6.103  15.503  1.00  0.00     0.220 A
HETATM    4  N2  UNL     1      16.204   4.793  15.685  1.00  0.00    -0.273 N
ATOM      5  H2  UNL     1      16.950   4.144  15.934  1.00  0.00     0.190 HD
HETATM    6  N3  UNL     1      14.919   4.636  15.424  1.00  0.00    -0.193 N
ENDROOT
BRANCH   6   7
HETATM    7  C3  UNL     1      13.950   3.597  15.350  1.00  0.00     0.075 A
HETATM    8  C4  UNL     1      14.022   2.699  14.341  1.00  0.00     0.033 A
HETATM    9  C5  UNL     1      13.067   1.697  14.287  1.00  0.00     0.002 A
HETATM   10  C6  UNL     1      12.054   1.579  15.218  1.00  0.00     0.000 A
HETATM   11  C7  UNL     1      12.004   2.506  16.234  1.00  0.00     0.002 A
HETATM   12  C8  UNL     1      12.944   3.500  16.292  1.00  0.00     0.033 A
ENDBRANCH   6   7
TORSDOF 1
ENDMDL