MODEL 1
REMARK VINA RESULT: -7.236717652      0.000      0.000
REMARK  1 active torsions:
REMARK  status: ('A' for Active; 'I' for Inactive)
REMARK    1  A    between atoms: N1_3  and  C3_4
ROOT
HETATM    1  C1  UNL     1      15.482   6.075  14.806  1.00  0.00     0.100 A
HETATM    2  C2  UNL     1      15.588   4.839  15.246  1.00  0.00     0.089 A
HETATM    3  N1  UNL     1      14.466   4.560  16.045  1.00  0.00    -0.221 NA
HETATM    4  C9  UNL     1      13.695   5.729  16.039  1.00  0.00     0.160 A
HETATM    5  N2  UNL     1      14.279   6.612  15.321  1.00  0.00    -0.365 N
ATOM      6  H2  UNL     1      13.932   7.556  15.147  1.00  0.00     0.165 HD
ENDROOT
BRANCH   3   7
HETATM    7  C3  UNL     1      13.735   3.428  15.572  1.00  0.00     0.019 A
HETATM    8  C4  UNL     1      12.616   3.059  16.285  1.00  0.00     0.024 A
HETATM    9  C5  UNL     1      11.856   1.980  15.896  1.00  0.00     0.002 A
HETATM   10  C6  UNL     1      12.232   1.274  14.779  1.00  0.00     0.000 A
HETATM   11  C7  UNL     1      13.356   1.658  14.075  1.00  0.00     0.002 A
HETATM   12  C8  UNL     1      14.117   2.730  14.457  1.00  0.00     0.024 A
ENDBRANCH   3   7
TORSDOF 1
ENDMDL