MODEL 5
REMARK VINA RESULT: -5.801523653      1.269      1.269
REMARK  1 active torsions:
REMARK  status: ('A' for Active; 'I' for Inactive)
REMARK    1  A    between atoms: C3_3  and  N1_4
ROOT
HETATM    1  C1  UNL     1      14.167   1.456  16.620  1.00  0.00     0.090 A
HETATM    2  C2  UNL     1      14.386   2.792  16.587  1.00  0.00     0.047 A
HETATM    3  C3  UNL     1      14.550   3.476  15.376  1.00  0.00     0.042 A
HETATM    4  C7  UNL     1      14.477   2.727  14.223  1.00  0.00     0.047 A
HETATM    5  C8  UNL     1      14.253   1.371  14.266  1.00  0.00     0.090 A
HETATM    6  N3  UNL     1      14.105   0.780  15.468  1.00  0.00    -0.375 N
ATOM      7  H3  UNL     1      13.939  -0.226  15.500  1.00  0.00     0.164 HD
ENDROOT
BRANCH   3   8
HETATM    8  N1  UNL     1      14.779   4.874  15.355  1.00  0.00    -0.317 N
HETATM    9  C4  UNL     1      14.047   5.810  15.969  1.00  0.00     0.115 A
HETATM   10  C5  UNL     1      14.590   7.067  15.711  1.00  0.00     0.106 A
HETATM   11  N2  UNL     1      15.658   6.843  14.931  1.00  0.00    -0.360 N
HETATM   12  C6  UNL     1      15.770   5.510  14.717  1.00  0.00     0.188 A
ATOM     13  H2  UNL     1      16.284   7.558  14.561  1.00  0.00     0.166 HD
ENDBRANCH   3   8
TORSDOF 1
ENDMDL