MODEL 5
REMARK VINA RESULT: -6.210243718      1.183      2.273
REMARK  1 active torsions:
REMARK  status: ('A' for Active; 'I' for Inactive)
REMARK    1  A    between atoms: C1_4  and  C2_5
ROOT
HETATM    1  C2  UNL     1      14.569   5.155  15.316  1.00  0.00     0.143 A
HETATM    2  N2  UNL     1      13.463   5.537  15.989  1.00  0.00    -0.282 N
ATOM      3  H2  UNL     1      13.300   6.474  16.355  1.00  0.00     0.188 HD
HETATM    4  N3  UNL     1      12.625   4.529  16.106  1.00  0.00    -0.283 N
ATOM      5  H3  UNL     1      11.718   4.562  16.572  1.00  0.00     0.188 HD
HETATM    6  C3  UNL     1      13.167   3.435  15.503  1.00  0.00     0.127 A
HETATM    7  C4  UNL     1      12.701   2.145  15.348  1.00  0.00     0.050 A
HETATM    8  C5  UNL     1      13.475   1.228  14.681  1.00  0.00     0.005 A
HETATM    9  C6  UNL     1      14.696   1.653  14.195  1.00  0.00     0.018 A
HETATM   10  C7  UNL     1      15.124   2.946  14.369  1.00  0.00     0.100 A
HETATM   11  N4  UNL     1      14.350   3.847  15.031  1.00  0.00    -0.291 N
ENDROOT
BRANCH   1  12
HETATM   12  C1  UNL     1      15.737   5.932  14.962  1.00  0.00     0.131 C
HETATM   13  N1  UNL     1      15.942   7.050  15.540  1.00  0.00    -0.405 N
ATOM     14  H12 UNL     1      15.279   7.379  16.243  1.00  0.00     0.155 HD
ATOM     15  H11 UNL     1      16.765   7.598  15.292  1.00  0.00     0.155 HD
ENDBRANCH   1  12
TORSDOF 1
ENDMDL