MODEL 4
REMARK VINA RESULT: -6.404203865      2.164      3.678
REMARK  2 active torsions:
REMARK  status: ('A' for Active; 'I' for Inactive)
REMARK    1  A    between atoms: O1_1  and  C1_3
REMARK    2  A    between atoms: C1_3  and  N1_4
ROOT
HETATM    1  N1  UNL     1      13.440   2.497  15.020  1.00  0.00    -0.319 N
HETATM    2  C2  UNL     1      14.300   1.793  14.247  1.00  0.00     0.185 A
HETATM    3  N2  UNL     1      15.346   2.586  13.948  1.00  0.00    -0.350 N
ATOM      4  H2  UNL     1      16.152   2.326  13.379  1.00  0.00     0.166 HD
HETATM    5  C3  UNL     1      15.139   3.801  14.540  1.00  0.00     0.060 A
HETATM    6  C4  UNL     1      15.851   4.981  14.586  1.00  0.00     0.032 A
HETATM    7  C5  UNL     1      15.402   6.087  15.276  1.00  0.00     0.002 A
HETATM    8  C6  UNL     1      14.207   5.990  15.932  1.00  0.00     0.002 A
HETATM    9  C7  UNL     1      13.468   4.827  15.909  1.00  0.00     0.032 A
HETATM   10  C8  UNL     1      13.935   3.732  15.213  1.00  0.00     0.064 A
ENDROOT
BRANCH   1  11
HETATM   11  C1  UNL     1      12.182   1.991  15.554  1.00  0.00     0.296 C
BRANCH  11  12
HETATM   12  O1  UNL     1      11.834   0.872  14.771  1.00  0.00    -0.382 OA
ATOM     13  H1  UNL     1      11.029   1.095  14.320  1.00  0.00     0.211 HD
ENDBRANCH  11  12
ENDBRANCH   1  11
TORSDOF 2
ENDMDL