MODEL 3
REMARK VINA RESULT: -6.925127104      1.464      2.367
REMARK  1 active torsions:
REMARK  status: ('A' for Active; 'I' for Inactive)
REMARK    1  A    between atoms: O1_1  and  N1_3
ROOT
HETATM    1  N1  UNL     1      14.418   4.820  15.517  1.00  0.00    -0.218 N
HETATM    2  C1  UNL     1      15.412   4.678  14.625  1.00  0.00     0.214 A
HETATM    3  N2  UNL     1      15.242   3.486  14.034  1.00  0.00    -0.349 N
ATOM      4  H2  UNL     1      15.853   3.110  13.310  1.00  0.00     0.167 HD
HETATM    5  C2  UNL     1      14.162   2.850  14.520  1.00  0.00     0.062 A
HETATM    6  C3  UNL     1      13.568   1.620  14.247  1.00  0.00     0.032 A
HETATM    7  C4  UNL     1      12.420   1.232  14.938  1.00  0.00     0.002 A
HETATM    8  C5  UNL     1      11.908   2.086  15.876  1.00  0.00     0.002 A
HETATM    9  C6  UNL     1      12.496   3.300  16.141  1.00  0.00     0.034 A
HETATM   10  C7  UNL     1      13.646   3.720  15.468  1.00  0.00     0.090 A
ENDROOT
BRANCH   1  11
HETATM   11  O1  UNL     1      14.217   5.895  16.336  1.00  0.00    -0.282 OA
ATOM     12  H1  UNL     1      14.683   6.721  16.301  1.00  0.00     0.245 HD
ENDBRANCH   1  11
TORSDOF 1
ENDMDL