MODEL 5
REMARK VINA RESULT: -5.875091920      1.407      1.805
REMARK  1 active torsions:
REMARK  status: ('A' for Active; 'I' for Inactive)
REMARK    1  A    between atoms: N2_6  and  C4_7
ROOT
HETATM    1  C1  UNL     1      14.231   1.257  14.404  1.00  0.00     0.035 A
HETATM    2  C2  UNL     1      14.109   0.655  15.576  1.00  0.00     0.090 A
HETATM    3  N1  UNL     1      14.146   1.473  16.740  1.00  0.00    -0.362 N
ATOM      4  H1  UNL     1      14.054   1.037  17.657  1.00  0.00     0.166 HD
HETATM    5  C3  UNL     1      14.295   2.760  16.664  1.00  0.00     0.188 A
HETATM    6  N2  UNL     1      14.427   3.415  15.407  1.00  0.00    -0.316 N
HETATM    7  C7  UNL     1      14.400   2.722  14.317  1.00  0.00     0.099 A
ENDROOT
BRANCH   6   8
HETATM    8  C4  UNL     1      14.589   4.828  15.350  1.00  0.00     0.073 A
HETATM    9  C5  UNL     1      15.592   5.531  14.745  1.00  0.00     0.138 A
HETATM   10  N3  UNL     1      15.349   6.831  14.938  1.00  0.00    -0.310 N
HETATM   11  N4  UNL     1      14.231   7.004  15.642  1.00  0.00    -0.310 N
ATOM     12  H3  UNL     1      15.938   7.588  14.592  1.00  0.00     0.186 HD
HETATM   13  C6  UNL     1      13.745   5.763  15.908  1.00  0.00     0.138 A
ATOM     14  H4  UNL     1      13.820   7.893  15.927  1.00  0.00     0.186 HD
ENDBRANCH   6   8
TORSDOF 1
ENDMDL