MODEL 4
REMARK VINA RESULT: -5.578201782      1.304      1.636
REMARK  2 active torsions:
REMARK  status: ('A' for Active; 'I' for Inactive)
REMARK    1  A    between atoms: N1_1  and  N2_4
REMARK    2  A    between atoms: N2_4  and  N3_6
ROOT
HETATM    1  N3  UNL     1      17.608  17.308   9.702  1.00  0.00    -0.275 N
ATOM      2  H3  UNL     1      17.543  16.354   9.347  1.00  0.00     0.189 HD
HETATM    3  C1  UNL     1      16.625  17.788  10.386  1.00  0.00     0.093 C
HETATM    4  C2  UNL     1      15.386  17.031  10.693  1.00  0.00     0.079 C
HETATM    5  C3  UNL     1      14.705  17.793  11.799  1.00  0.00     0.027 C
HETATM    6  C4  UNL     1      15.549  19.009  12.085  1.00  0.00     0.121 C
HETATM    7  N4  UNL     1      16.471  19.072  10.982  1.00  0.00    -0.379 N
ATOM      8  H4  UNL     1      16.949  19.918  10.671  1.00  0.00     0.160 HD
ENDROOT
BRANCH   1   9
HETATM    9  N2  UNL     1      18.761  18.057   9.433  1.00  0.00    -0.248 N
ATOM     10  H2  UNL     1      19.580  17.987  10.036  1.00  0.00     0.207 HD
BRANCH   9  11
HETATM   11  N1  UNL     1      18.762  18.835   8.406  1.00  0.00    -0.331 N
ATOM     12  H12 UNL     1      19.494  18.744   7.701  1.00  0.00     0.178 HD
ATOM     13  H11 UNL     1      18.021  19.531   8.322  1.00  0.00     0.178 HD
ENDBRANCH   9  11
ENDBRANCH   1   9
TORSDOF 2
ENDMDL