MODEL 4
REMARK VINA RESULT: -5.489462577      1.269      1.795
REMARK  2 active torsions:
REMARK  status: ('A' for Active; 'I' for Inactive)
REMARK    1  A    between atoms: C3_3  and  C4_4
REMARK    2  A    between atoms: C4_4  and  N1_5
ROOT
HETATM    1  C1  UNL     1      19.772  18.176   9.342  1.00  0.00     0.096 C
HETATM    2  C2  UNL     1      18.650  17.872   9.724  1.00  0.00    -0.186 C
HETATM    3  C3  UNL     1      17.309  17.509  10.149  1.00  0.00     0.109 C
ENDROOT
BRANCH   3   4
HETATM    4  C4  UNL     1      16.590  18.715  10.732  1.00  0.00     0.285 C
BRANCH   4   5
HETATM    5  N1  UNL     1      15.759  18.370  11.831  1.00  0.00     0.116 N
HETATM    6  C5  UNL     1      14.933  19.489  12.206  1.00  0.00     0.302 C
HETATM    7  C6  UNL     1      13.522  18.953  12.302  1.00  0.00     0.264 C
HETATM    8  N2  UNL     1      13.646  17.514  12.183  1.00  0.00    -0.047 N
HETATM    9  C7  UNL     1      14.911  17.256  11.523  1.00  0.00     0.502 C
ATOM     10  H22 UNL     1      13.551  17.027  13.074  1.00  0.00     0.279 HD
ATOM     11  H21 UNL     1      12.852  17.080  11.713  1.00  0.00     0.279 HD
ENDBRANCH   4   5
ENDBRANCH   3   4
TORSDOF 2
ENDMDL