MODEL 1
REMARK VINA RESULT: -5.891576425      0.000      0.000
REMARK  1 active torsions:
REMARK  status: ('A' for Active; 'I' for Inactive)
REMARK    1  A    between atoms: C2_2  and  C3_3
ROOT
HETATM    1  C3  UNL     1      15.098  18.572  11.644  1.00  0.00     0.250 C
HETATM    2  C4  UNL     1      13.965  18.242  12.555  1.00  0.00     0.052 C
HETATM    3  C5  UNL     1      13.150  19.506  12.440  1.00  0.00     0.039 C
HETATM    4  C6  UNL     1      14.317  20.504  12.561  1.00  0.00     0.273 C
HETATM    5  N1  UNL     1      15.460  19.590  12.647  1.00  0.00     0.097 N
HETATM    6  C7  UNL     1      14.944  18.621  13.634  1.00  0.00     0.280 C
ENDROOT
BRANCH   1   7
HETATM    7  C2  UNL     1      16.119  17.541  11.428  1.00  0.00    -0.001 C
HETATM    8  C1  UNL     1      17.030  17.695  10.475  1.00  0.00     0.009 C
ENDBRANCH   1   7
TORSDOF 1
ENDMDL