MODEL 4
REMARK VINA RESULT: -6.470711325      1.176      1.249
REMARK  2 active torsions:
REMARK  status: ('A' for Active; 'I' for Inactive)
REMARK    1  A    between atoms: N2_4  and  N3_6
REMARK    2  A    between atoms: C1_8  and  C2_9
ROOT
HETATM    1  N3  UNL     1      17.124  18.918   9.996  1.00  0.00    -0.297 N
ATOM      2  H3  UNL     1      17.250  19.909  10.207  1.00  0.00     0.187 HD
HETATM    3  C1  UNL     1      16.396  18.180  10.764  1.00  0.00     0.121 C
ENDROOT
BRANCH   1   4
HETATM    4  N2  UNL     1      17.736  18.357   8.878  1.00  0.00    -0.250 N
HETATM    5  N1  UNL     1      18.860  18.779   8.466  1.00  0.00    -0.331 N
ATOM      6  H12 UNL     1      19.309  19.542   8.973  1.00  0.00     0.178 HD
ATOM      7  H11 UNL     1      19.309  18.367   7.647  1.00  0.00     0.178 HD
ATOM      8  H2  UNL     1      17.274  17.594   8.382  1.00  0.00     0.207 HD
ENDBRANCH   1   4
BRANCH   3   9
HETATM    9  C2  UNL     1      15.739  18.743  11.946  1.00  0.00     0.005 A
HETATM   10  C3  UNL     1      15.100  19.962  12.030  1.00  0.00     0.039 A
HETATM   11  C4  UNL     1      14.622  20.096  13.329  1.00  0.00     0.142 A
HETATM   12  O1  UNL     1      14.963  19.018  13.963  1.00  0.00    -0.334 OA
HETATM   13  C5  UNL     1      15.624  18.182  13.200  1.00  0.00     0.154 A
ENDBRANCH   3   9
TORSDOF 2
ENDMDL