MODEL 5
REMARK VINA RESULT: -5.677757193      1.458      3.160
REMARK  1 active torsions:
REMARK  status: ('A' for Active; 'I' for Inactive)
REMARK    1  A    between atoms: C2_2  and  C3_3
ROOT
HETATM    1  C3  UNL     1      14.877  19.156  11.695  1.00  0.00     0.212 C
HETATM    2  N1  UNL     1      16.178  19.201  10.995  1.00  0.00    -0.063 N
ATOM      3  H11 UNL     1      16.882  19.805  11.418  1.00  0.00     0.278 HD
ATOM      4  H12 UNL     1      16.175  19.683  10.096  1.00  0.00     0.278 HD
HETATM    5  C4  UNL     1      16.509  17.816  10.945  1.00  0.00     0.187 C
HETATM    6  C5  UNL     1      15.180  17.127  10.603  1.00  0.00     0.040 C
HETATM    7  C6  UNL     1      14.789  17.691  11.977  1.00  0.00     0.024 C
HETATM    8  C7  UNL     1      16.211  17.363  12.382  1.00  0.00     0.040 C
ENDROOT
BRANCH   1   9
HETATM    9  C2  UNL     1      14.899  19.999  12.916  1.00  0.00    -0.004 C
HETATM   10  C1  UNL     1      14.155  21.098  12.916  1.00  0.00     0.009 C
ENDBRANCH   1   9
TORSDOF 1
ENDMDL