MODEL 5
REMARK VINA RESULT: -6.397845609      1.407      1.652
REMARK  2 active torsions:
REMARK  status: ('A' for Active; 'I' for Inactive)
REMARK    1  A    between atoms: C4_4  and  C5_5
REMARK    2  A    between atoms: C5_5  and  N1_6
ROOT
HETATM    1  C1  UNL     1      14.949  18.979  14.148  1.00  0.00     0.017 C
HETATM    2  C2  UNL     1      15.263  18.359  13.161  1.00  0.00    -0.090 C
HETATM    3  C3  UNL     1      15.625  17.638  11.980  1.00  0.00     0.061 C
HETATM    4  C4  UNL     1      16.506  18.074  11.104  1.00  0.00     0.001 C
ENDROOT
BRANCH   4   5
HETATM    5  C5  UNL     1      16.868  17.322   9.894  1.00  0.00     0.148 C
BRANCH   5   6
HETATM    6  N1  UNL     1      17.511  18.215   8.963  1.00  0.00    -0.376 N
HETATM    7  C6  UNL     1      18.792  18.289   8.839  1.00  0.00     0.074 C
HETATM    8  C7  UNL     1      19.751  19.067   8.013  1.00  0.00     0.095 C
HETATM    9  N2  UNL     1      19.845  17.597   9.499  1.00  0.00    -0.380 N
HETATM   10  C8  UNL     1      20.758  18.626   9.042  1.00  0.00     0.128 C
ATOM     11  H2  UNL     1      19.924  16.745  10.054  1.00  0.00     0.160 HD
ATOM     12  H1  UNL     1      16.928  18.814   8.379  1.00  0.00     0.161 HD
ENDBRANCH   5   6
ENDBRANCH   4   5
TORSDOF 2
ENDMDL