MODEL 5
REMARK VINA RESULT: -5.748999999      1.317      1.342
REMARK  2 active torsions:
REMARK  status: ('A' for Active; 'I' for Inactive)
REMARK    1  A    between atoms: C1_2  and  N1_3
REMARK    2  A    between atoms: N1_3  and  C2_5
ROOT
HETATM    1  C2  UNL     1      15.409  18.746  11.686  1.00  0.00     0.036 A
HETATM    2  C3  UNL     1      14.882  20.019  11.726  1.00  0.00     0.046 A
HETATM    3  C4  UNL     1      14.541  20.637  12.912  1.00  0.00     0.090 A
HETATM    4  N2  UNL     1      14.736  19.965  14.061  1.00  0.00    -0.375 N
ATOM      5  H2  UNL     1      14.488  20.415  14.941  1.00  0.00     0.164 HD
HETATM    6  C5  UNL     1      15.246  18.725  14.089  1.00  0.00     0.090 A
HETATM    7  C6  UNL     1      15.585  18.110  12.899  1.00  0.00     0.046 A
ENDROOT
BRANCH   1   8
HETATM    8  N1  UNL     1      15.732  18.153  10.587  1.00  0.00    -0.334 N
ATOM      9  H1  UNL     1      15.006  17.880   9.924  1.00  0.00     0.168 HD
BRANCH   8  10
HETATM   10  C1  UNL     1      17.086  17.878  10.295  1.00  0.00     0.353 C
HETATM   11  O1  UNL     1      17.731  18.549   9.461  1.00  0.00    -0.283 OA
ENDBRANCH   8  10
ENDBRANCH   1   8
TORSDOF 2
ENDMDL