MODEL 5
REMARK VINA RESULT: -5.113878683      1.357      1.599
REMARK  2 active torsions:
REMARK  status: ('A' for Active; 'I' for Inactive)
REMARK    1  A    between atoms: C2_3  and  C3_4
REMARK    2  A    between atoms: C3_4  and  N2_5
ROOT
HETATM    1  N1  UNL     1      18.545  18.521   8.933  1.00  0.00    -0.197 NA
HETATM    2  C1  UNL     1      17.903  18.036   9.774  1.00  0.00     0.060 C
HETATM    3  C2  UNL     1      17.115  17.420  10.834  1.00  0.00     0.144 C
ENDROOT
BRANCH   3   4
HETATM    4  C3  UNL     1      15.624  17.683  10.589  1.00  0.00     0.143 C
BRANCH   4   5
HETATM    5  N2  UNL     1      15.043  18.045  11.871  1.00  0.00    -0.351 N
HETATM    6  C4  UNL     1      15.743  18.564  12.914  1.00  0.00     0.108 A
HETATM    7  C5  UNL     1      14.886  18.791  13.971  1.00  0.00     0.106 A
HETATM    8  N3  UNL     1      13.667  18.404  13.556  1.00  0.00    -0.361 N
HETATM    9  C6  UNL     1      13.780  17.956  12.287  1.00  0.00     0.182 A
ATOM     10  H3  UNL     1      12.808  18.441  14.105  1.00  0.00     0.166 HD
ENDBRANCH   4   5
ENDBRANCH   3   4
TORSDOF 2
ENDMDL