MODEL 4
REMARK VINA RESULT: -4.018713685      1.065      2.488
REMARK  1 active torsions:
REMARK  status: ('A' for Active; 'I' for Inactive)
REMARK    1  A    between atoms: C2_2  and  C3_3
ROOT
HETATM    1  C3  UNL     1      15.305  19.253  11.403  1.00  0.00     0.235 C
HETATM    2  C4  UNL     1      16.745  18.803  11.241  1.00  0.00     0.069 C
HETATM    3  C5  UNL     1      16.087  17.542  10.707  1.00  0.00     0.264 C
HETATM    4  N1  UNL     1      14.893  17.935  11.470  1.00  0.00     0.019 N
HETATM    5  C6  UNL     1      14.589  17.206  12.599  1.00  0.00     0.279 C
HETATM    6  C7  UNL     1      13.184  17.122  12.087  1.00  0.00     0.172 C
HETATM    7  N2  UNL     1      13.694  17.628  10.845  1.00  0.00    -0.044 NA
ENDROOT
BRANCH   1   8
HETATM    8  C2  UNL     1      15.177  20.188  12.516  1.00  0.00    -0.002 C
HETATM    9  C1  UNL     1      14.168  20.951  12.814  1.00  0.00     0.009 C
ENDBRANCH   1   8
TORSDOF 1
ENDMDL