MODEL 2
REMARK VINA RESULT: -6.550627342      1.465      1.772
REMARK  1 active torsions:
REMARK  status: ('A' for Active; 'I' for Inactive)
REMARK    1  A    between atoms: N2_4  and  N3_6
ROOT
HETATM    1  N3  UNL     1      16.559  19.293  10.644  1.00  0.00    -0.295 N
ATOM      2  H3  UNL     1      16.746  20.262  10.384  1.00  0.00     0.187 HD
HETATM    3  C1  UNL     1      15.734  19.099  11.579  1.00  0.00     0.010 C
HETATM    4  C2  UNL     1      15.006  20.116  12.339  1.00  0.00     0.060 C
HETATM    5  C3  UNL     1      13.601  19.494  12.381  1.00  0.00     0.058 C
HETATM    6  C4  UNL     1      13.883  18.035  12.408  1.00  0.00    -0.015 C
HETATM    7  N4  UNL     1      13.026  17.126  12.649  1.00  0.00    -0.405 N
ATOM      8  H41 UNL     1      13.219  16.124  12.667  1.00  0.00     0.155 HD
ATOM      9  H42 UNL     1      12.039  17.289  12.852  1.00  0.00     0.155 HD
HETATM   10  C5  UNL     1      15.321  17.798  12.111  1.00  0.00     0.106 C
ENDROOT
BRANCH   1  11
HETATM   11  N2  UNL     1      17.232  18.312   9.943  1.00  0.00    -0.249 N
HETATM   12  N1  UNL     1      17.878  18.646   8.896  1.00  0.00    -0.331 N
ATOM     13  H12 UNL     1      17.887  19.621   8.596  1.00  0.00     0.178 HD
ATOM     14  H11 UNL     1      18.374  17.921   8.378  1.00  0.00     0.178 HD
ATOM     15  H2  UNL     1      17.212  17.341  10.256  1.00  0.00     0.207 HD
ENDBRANCH   1  11
TORSDOF 1
ENDMDL