MODEL 5
REMARK VINA RESULT: -7.171122552      0.967      1.737
REMARK  5 active torsions:
REMARK  status: ('A' for Active; 'I' for Inactive)
REMARK    1  A    between atoms: N1_2  and  C2_5
REMARK    2  A    between atoms: C2_5  and  C4_7
REMARK    3  A    between atoms: C4_7  and  N3_11
REMARK       I    between atoms: N3_11  and  C5_13
REMARK    4  A    between atoms: C5_13  and  C6_15
REMARK    5  A    between atoms: C9_18  and  O2_19
ROOT
HETATM    1  N3  UNL     1      11.583  19.855  19.278  1.00  0.00    -0.311 N
ATOM      2  H3  UNL     1      12.067  19.248  19.938  1.00  0.00     0.170 HD
HETATM    3  C5  UNL     1      11.034  19.215  18.171  1.00  0.00     0.257 C
HETATM    4  O1  UNL     1      10.401  19.758  17.251  1.00  0.00    -0.267 OA
ENDROOT
BRANCH   1   5
HETATM    5  C4  UNL     1      11.564  21.204  19.613  1.00  0.00     0.108 C
HETATM    6  N2  UNL     1      12.239  21.547  20.719  1.00  0.00    -0.387 N
ATOM      7  H22 UNL     1      12.226  22.536  20.965  1.00  0.00     0.157 HD
ATOM      8  H21 UNL     1      12.717  20.809  21.236  1.00  0.00     0.157 HD
BRANCH   5   9
HETATM    9  C2  UNL     1      10.880  22.261  18.871  1.00  0.00     0.247 C
HETATM   10  C3  UNL     1      11.732  23.410  18.438  1.00  0.00     0.048 C
BRANCH   9  11
HETATM   11  N1  UNL     1       9.717  22.710  19.601  1.00  0.00    -0.068 N
HETATM   12  C1  UNL     1       8.510  22.347  18.890  1.00  0.00     0.267 C
ATOM     13  H12 UNL     1       9.754  23.710  19.801  1.00  0.00     0.277 HD
ATOM     14  H11 UNL     1       9.711  22.364  20.560  1.00  0.00     0.277 HD
ENDBRANCH   9  11
ENDBRANCH   5   9
ENDBRANCH   1   5
BRANCH   3  15
HETATM   15  C6  UNL     1      11.188  17.745  18.027  1.00  0.00     0.033 A
HETATM   16  C7  UNL     1      10.215  17.052  17.356  1.00  0.00     0.020 A
HETATM   17  C8  UNL     1      10.409  15.670  17.238  1.00  0.00     0.038 A
HETATM   18  C9  UNL     1      11.516  15.043  17.765  1.00  0.00     0.074 A
HETATM   19  C11 UNL     1      12.484  15.762  18.436  1.00  0.00    -0.028 A
HETATM   20  C12 UNL     1      13.691  15.164  19.031  1.00  0.00     0.051 C
HETATM   21  C13 UNL     1      12.311  17.122  18.563  1.00  0.00     0.026 A
BRANCH  18  22
HETATM   22  O2  UNL     1      11.710  13.686  17.649  1.00  0.00    -0.355 OA
HETATM   23  C10 UNL     1      10.712  12.757  17.293  1.00  0.00     0.210 C
ENDBRANCH  18  22
ENDBRANCH   3  15
TORSDOF 5
ENDMDL