MODEL 4
REMARK VINA RESULT: -6.792154588      2.893      7.190
REMARK  5 active torsions:
REMARK  status: ('A' for Active; 'I' for Inactive)
REMARK    1  A    between atoms: C5_5  and  C6_6
REMARK    2  A    between atoms: N1_7  and  N2_9
REMARK       I    between atoms: N2_9  and  C7_11
REMARK       I    between atoms: C7_11  and  N4_15
REMARK    3  A    between atoms: N4_15  and  C8_17
REMARK    4  A    between atoms: C8_17  and  C9_18
REMARK    5  A    between atoms: C9_18  and  N5_19
ROOT
HETATM    1  N2  UNL     1      10.834  16.485  17.599  1.00  0.00    -0.133 N
ATOM      2  H2  UNL     1       9.948  16.603  18.091  1.00  0.00     0.205 HD
HETATM    3  C7  UNL     1      11.646  15.365  17.962  1.00  0.00     0.686 C
HETATM    4  N3  UNL     1      12.678  15.531  18.680  1.00  0.00    -0.234 N
ATOM      5  H31 UNL     1      13.256  14.733  18.939  1.00  0.00     0.174 HD
ATOM      6  H32 UNL     1      12.945  16.460  19.007  1.00  0.00     0.174 HD
HETATM    7  N4  UNL     1      11.277  14.082  17.511  1.00  0.00    -0.224 N
ATOM      8  H4  UNL     1      10.532  13.568  17.981  1.00  0.00     0.177 HD
ENDROOT
BRANCH   1   9
HETATM    9  N1  UNL     1      11.145  17.395  16.661  1.00  0.00    -0.297 N
HETATM   10  C6  UNL     1      11.337  18.599  16.551  1.00  0.00     0.119 C
ATOM     11  H1  UNL     1      11.256  16.938  15.756  1.00  0.00     0.186 HD
BRANCH  10  12
HETATM   12  C5  UNL     1      11.270  19.579  17.616  1.00  0.00    -0.019 A
HETATM   13  C4  UNL     1      11.621  19.335  18.930  1.00  0.00     0.013 A
HETATM   14  C3  UNL     1      11.511  20.353  19.880  1.00  0.00     0.007 A
HETATM   15  C2  UNL     1      11.060  21.604  19.533  1.00  0.00    -0.062 A
HETATM   16  C1  UNL     1      10.937  22.698  20.523  1.00  0.00     0.048 C
HETATM   17  C13 UNL     1      10.715  21.822  18.208  1.00  0.00     0.007 A
HETATM   18  C12 UNL     1      10.807  20.855  17.254  1.00  0.00     0.013 A
ENDBRANCH  10  12
ENDBRANCH   1   9
BRANCH   7  19
HETATM   19  C8  UNL     1      11.955  13.500  16.384  1.00  0.00     0.168 C
BRANCH  19  20
HETATM   20  C9  UNL     1      10.971  13.163  15.285  1.00  0.00     0.291 C
BRANCH  20  21
HETATM   21  N5  UNL     1      11.154  14.137  14.237  1.00  0.00     0.081 N
HETATM   22  C10 UNL     1      12.448  14.769  14.279  1.00  0.00     0.309 C
HETATM   23  C11 UNL     1      10.071  15.091  14.171  1.00  0.00     0.309 C
ENDBRANCH  20  21
ENDBRANCH  19  20
ENDBRANCH   7  19
TORSDOF 5
ENDMDL