MODEL 3
REMARK VINA RESULT: -6.621411932      1.238      1.619
REMARK  5 active torsions:
REMARK  status: ('A' for Active; 'I' for Inactive)
REMARK       I    between atoms: N1_2  and  C2_4
REMARK       I    between atoms: C2_4  and  N3_8
REMARK    1  A    between atoms: N3_8  and  C3_10
REMARK    2  A    between atoms: C3_10  and  C4_11
REMARK    3  A    between atoms: C4_11  and  C5_12
REMARK    4  A    between atoms: C8_15  and  O1_16
REMARK    5  A    between atoms: N4_20  and  O2_22
ROOT
HETATM    1  C3  UNL     1      10.883  20.114  17.099  1.00  0.00     0.121 C
HETATM    2  N4  UNL     1       9.880  20.930  17.135  1.00  0.00    -0.254 N
ATOM      3  H4  UNL     1       9.568  21.381  16.275  1.00  0.00     0.195 HD
ENDROOT
BRANCH   1   4
HETATM    4  N3  UNL     1      11.488  19.904  15.844  1.00  0.00    -0.179 N
HETATM    5  C2  UNL     1      10.776  19.756  14.626  1.00  0.00     0.672 C
HETATM    6  N1  UNL     1      10.750  20.781  13.628  1.00  0.00    -0.231 N
HETATM    7  N2  UNL     1      10.120  18.674  14.374  1.00  0.00    -0.235 N
HETATM    8  C1  UNL     1      11.140  20.577  12.266  1.00  0.00     0.165 C
ATOM      9  H1  UNL     1      10.436  21.712  13.903  1.00  0.00     0.177 HD
ATOM     10  H22 UNL     1       9.608  18.568  13.498  1.00  0.00     0.174 HD
ATOM     11  H21 UNL     1      10.138  17.944  15.086  1.00  0.00     0.174 HD
ATOM     12  H3  UNL     1      12.506  19.855  15.809  1.00  0.00     0.185 HD
ENDBRANCH   1   4
BRANCH   1  13
HETATM   13  C4  UNL     1      11.333  19.459  18.348  1.00  0.00     0.117 C
BRANCH  13  14
HETATM   14  C5  UNL     1      11.422  17.986  18.226  1.00  0.00    -0.051 A
HETATM   15  C6  UNL     1      10.453  17.242  17.584  1.00  0.00     0.010 A
HETATM   16  C7  UNL     1      10.523  15.881  17.464  1.00  0.00     0.037 A
HETATM   17  C8  UNL     1      11.603  15.217  18.004  1.00  0.00     0.068 A
HETATM   18  C10 UNL     1      12.597  15.917  18.655  1.00  0.00     0.037 A
HETATM   19  C11 UNL     1      12.496  17.309  18.760  1.00  0.00     0.010 A
BRANCH  17  20
HETATM   20  O1  UNL     1      11.703  13.826  17.898  1.00  0.00    -0.356 OA
HETATM   21  C9  UNL     1      10.740  13.051  17.229  1.00  0.00     0.210 C
ENDBRANCH  17  20
ENDBRANCH  13  14
ENDBRANCH   1  13
BRANCH   2  22
HETATM   22  O2  UNL     1       9.236  21.192  18.303  1.00  0.00    -0.284 OA
HETATM   23  C12 UNL     1       8.774  22.450  18.708  1.00  0.00     0.237 C
ENDBRANCH   2  22
TORSDOF 5
ENDMDL