MODEL 3
REMARK VINA RESULT: -7.915878552      1.869      6.575
REMARK  5 active torsions:
REMARK  status: ('A' for Active; 'I' for Inactive)
REMARK    1  A    between atoms: C2_2  and  C3_3
REMARK    2  A    between atoms: C2_2  and  C8_10
REMARK    3  A    between atoms: N2_13  and  C11_14
REMARK    4  A    between atoms: C11_14  and  C12_15
REMARK    5  A    between atoms: C12_15  and  N3_16
ROOT
HETATM    1  C8  UNL     1      11.743  18.267  18.402  1.00  0.00    -0.021 A
HETATM    2  C9  UNL     1      11.781  19.032  19.561  1.00  0.00     0.029 A
HETATM    3  C10 UNL     1      11.441  20.371  19.554  1.00  0.00     0.093 A
HETATM    4  N2  UNL     1      11.057  20.995  18.416  1.00  0.00    -0.344 N
HETATM    5  C13 UNL     1      11.019  20.270  17.303  1.00  0.00     0.119 A
HETATM    6  N4  UNL     1      10.634  20.874  16.075  1.00  0.00    -0.083 NA
HETATM    7  C14 UNL     1      11.352  18.918  17.259  1.00  0.00     0.057 A
ENDROOT
BRANCH   1   8
HETATM    8  C2  UNL     1      12.133  16.855  18.384  1.00  0.00    -0.024 C
HETATM    9  C1  UNL     1      13.300  16.538  18.913  1.00  0.00     0.025 C
BRANCH   8  10
HETATM   10  C3  UNL     1      11.323  15.788  17.831  1.00  0.00    -0.011 A
HETATM   11  C4  UNL     1      11.699  14.470  17.981  1.00  0.00     0.015 A
HETATM   12  C5  UNL     1      10.916  13.420  17.483  1.00  0.00     0.018 A
HETATM   13  C6  UNL     1       9.744  13.702  16.829  1.00  0.00     0.087 A
HETATM   14  N1  UNL     1       9.399  14.987  16.695  1.00  0.00    -0.374 N
HETATM   15  C7  UNL     1      10.146  16.022  17.172  1.00  0.00     0.099 A
ATOM     16  H1  UNL     1       8.529  15.204  16.210  1.00  0.00     0.164 HD
ENDBRANCH   8  10
ENDBRANCH   1   8
BRANCH   4  17
HETATM   17  C11 UNL     1      10.697  22.378  18.409  1.00  0.00     0.156 C
BRANCH  17  18
HETATM   18  C12 UNL     1       9.374  22.701  19.029  1.00  0.00     0.249 C
BRANCH  18  19
HETATM   19  N3  UNL     1       8.240  22.143  18.337  1.00  0.00    -0.078 N
ATOM     20  H33 UNL     1       7.373  22.539  18.698  1.00  0.00     0.274 HD
ATOM     21  H32 UNL     1       8.203  22.487  17.378  1.00  0.00     0.274 HD
ATOM     22  H31 UNL     1       8.198  21.123  18.351  1.00  0.00     0.274 HD
ENDBRANCH  18  19
ENDBRANCH  17  18
ENDBRANCH   4  17
TORSDOF 5
ENDMDL