MODEL 4
REMARK VINA RESULT: -6.301093675      1.543      1.956
REMARK  6 active torsions:
REMARK  status: ('A' for Active; 'I' for Inactive)
REMARK    1  A    between atoms: C2_2  and  N1_3
REMARK    2  A    between atoms: C2_2  and  C3_7
REMARK       I    between atoms: C3_7  and  N2_9
REMARK    3  A    between atoms: N2_9  and  C4_11
REMARK    4  A    between atoms: C4_11  and  C5_12
REMARK    5  A    between atoms: C4_11  and  C10_20
REMARK       I    between atoms: C5_12  and  N3_14
REMARK    6  A    between atoms: N3_14  and  C6_16
ROOT
HETATM    1  C4  UNL     1      11.754  18.353  17.729  1.00  0.00     0.180 C
ENDROOT
BRANCH   1   2
HETATM    2  N2  UNL     1      11.290  18.728  16.417  1.00  0.00    -0.346 N
HETATM    3  C3  UNL     1      11.581  18.304  15.139  1.00  0.00     0.248 C
HETATM    4  O1  UNL     1      12.363  17.408  14.770  1.00  0.00    -0.271 OA
ATOM      5  H2  UNL     1      10.593  19.472  16.440  1.00  0.00     0.163 HD
BRANCH   3   6
HETATM    6  C2  UNL     1      10.868  18.998  13.977  1.00  0.00     0.270 C
HETATM    7  C1  UNL     1      10.752  20.478  14.279  1.00  0.00     0.050 C
BRANCH   6   8
HETATM    8  N1  UNL     1      11.608  18.837  12.763  1.00  0.00    -0.067 N
ATOM      9  H13 UNL     1      11.800  19.727  12.301  1.00  0.00     0.275 HD
ATOM     10  H12 UNL     1      12.574  18.554  12.928  1.00  0.00     0.275 HD
ATOM     11  H11 UNL     1      11.106  18.185  12.161  1.00  0.00     0.275 HD
ENDBRANCH   6   8
ENDBRANCH   3   6
ENDBRANCH   1   2
BRANCH   1  12
HETATM   12  C5  UNL     1      11.543  19.470  18.633  1.00  0.00     0.241 C
HETATM   13  O2  UNL     1      11.628  19.256  19.894  1.00  0.00    -0.271 OA
HETATM   14  N3  UNL     1      11.244  20.793  18.269  1.00  0.00    -0.351 N
ATOM     15  H3  UNL     1      11.154  21.012  17.276  1.00  0.00     0.163 HD
BRANCH  14  16
HETATM   16  C6  UNL     1      11.055  21.863  19.226  1.00  0.00     0.022 C
HETATM   17  C7  UNL     1       9.602  21.881  19.628  1.00  0.00     0.037 C
HETATM   18  C8  UNL     1      11.367  23.184  18.553  1.00  0.00     0.037 C
HETATM   19  C9  UNL     1      11.906  21.743  20.447  1.00  0.00     0.037 C
ENDBRANCH  14  16
ENDBRANCH   1  12
BRANCH   1  20
HETATM   20  C10 UNL     1      11.267  17.008  18.181  1.00  0.00     0.009 C
HETATM   21  C11 UNL     1      10.149  16.528  17.281  1.00  0.00     0.012 C
HETATM   22  C12 UNL     1      12.288  15.935  18.294  1.00  0.00     0.012 C
ENDBRANCH   1  20
TORSDOF 6
ENDMDL