MODEL 4
REMARK VINA RESULT: -6.969870672      0.983      1.162
REMARK  10 active torsions:
REMARK  status: ('A' for Active; 'I' for Inactive)
REMARK    1  A    between atoms: N1_1  and  O1_4
REMARK    2  A    between atoms: O1_4  and  C1_5
REMARK    3  A    between atoms: C1_5  and  C2_6
REMARK    4  A    between atoms: C2_6  and  C3_7
REMARK    5  A    between atoms: C3_7  and  O2_8
REMARK    6  A    between atoms: C3_7  and  C4_10
REMARK    7  A    between atoms: C4_10  and  O3_11
REMARK    8  A    between atoms: C4_10  and  C5_13
REMARK    9  A    between atoms: C6_14  and  C7_15
REMARK   10  A    between atoms: C8_16  and  C9_17
ROOT
HETATM    1  C4  UNL     1      10.691  14.779  15.936  1.00  0.00     0.170 C
ENDROOT
BRANCH   1   2
HETATM    2  C3  UNL     1      10.330  13.913  17.126  1.00  0.00     0.152 C
BRANCH   2   3
HETATM    3  C2  UNL     1      11.312  12.800  17.333  1.00  0.00     0.063 C
BRANCH   3   4
HETATM    4  C1  UNL     1      11.227  11.782  16.216  1.00  0.00     0.203 C
BRANCH   4   5
HETATM    5  O1  UNL     1      10.497  10.664  16.650  1.00  0.00    -0.287 OA
BRANCH   5   6
HETATM    6  N1  UNL     1      10.520  10.544  17.985  1.00  0.00    -0.311 N
ATOM      7  H12 UNL     1      11.181   9.947  18.482  1.00  0.00     0.184 HD
ATOM      8  H11 UNL     1       9.803  11.117  18.428  1.00  0.00     0.184 HD
ENDBRANCH   5   6
ENDBRANCH   4   5
ENDBRANCH   3   4
ENDBRANCH   2   3
BRANCH   2   9
HETATM    9  O2  UNL     1       9.082  13.325  16.877  1.00  0.00    -0.393 OA
ATOM     10  H2  UNL     1       8.745  13.712  16.078  1.00  0.00     0.210 HD
ENDBRANCH   2   9
ENDBRANCH   1   2
BRANCH   1  11
HETATM   11  O3  UNL     1       9.654  14.626  15.007  1.00  0.00    -0.389 OA
ATOM     12  H3  UNL     1       9.212  15.465  14.958  1.00  0.00     0.210 HD
ENDBRANCH   1  11
BRANCH   1  13
HETATM   13  C5  UNL     1      10.700  16.189  16.355  1.00  0.00     0.016 C
HETATM   14  C6  UNL     1      11.058  16.502  17.582  1.00  0.00     0.063 C
BRANCH  14  15
HETATM   15  C7  UNL     1      11.079  17.890  18.033  1.00  0.00    -0.073 C
HETATM   16  C8  UNL     1      11.076  19.033  18.413  1.00  0.00    -0.062 C
BRANCH  16  17
HETATM   17  C9  UNL     1      11.051  20.398  18.863  1.00  0.00     0.018 A
HETATM   18  C10 UNL     1      11.246  20.705  20.213  1.00  0.00     0.020 A
HETATM   19  C11 UNL     1      11.225  22.008  20.661  1.00  0.00     0.001 A
HETATM   20  C12 UNL     1      11.012  23.058  19.801  1.00  0.00     0.000 A
HETATM   21  C13 UNL     1      10.817  22.766  18.460  1.00  0.00     0.001 A
HETATM   22  C14 UNL     1      10.837  21.460  18.007  1.00  0.00     0.020 A
ENDBRANCH  16  17
ENDBRANCH  14  15
ENDBRANCH   1  13
TORSDOF 10
ENDMDL