MODEL 1
REMARK VINA RESULT: -7.428141516      0.000      0.000
REMARK  7 active torsions:
REMARK  status: ('A' for Active; 'I' for Inactive)
REMARK    1  A    between atoms: C2_2  and  C4_4
REMARK    2  A    between atoms: C4_4  and  C5_5
REMARK    3  A    between atoms: C4_4  and  N2_13
REMARK    4  A    between atoms: C5_5  and  C6_6
REMARK    5  A    between atoms: C6_6  and  N1_7
REMARK    6  A    between atoms: N2_13  and  O1_14
REMARK    7  A    between atoms: N2_13  and  N3_16
REMARK       I    between atoms: N3_16  and  C12_18
ROOT
HETATM    1  C4  UNL     1      10.674  20.927  18.538  1.00  0.00     0.138 C
ENDROOT
BRANCH   1   2
HETATM    2  C2  UNL     1      11.448  21.974  19.265  1.00  0.00     0.004 C
HETATM    3  C1  UNL     1      12.551  21.307  20.122  1.00  0.00     0.012 C
HETATM    4  C3  UNL     1      10.614  22.816  20.227  1.00  0.00     0.012 C
ENDBRANCH   1   2
BRANCH   1   5
HETATM    5  C5  UNL     1      11.290  19.598  18.363  1.00  0.00     0.050 C
BRANCH   5   6
HETATM    6  C6  UNL     1      10.496  18.453  17.901  1.00  0.00     0.130 C
BRANCH   6   7
HETATM    7  N1  UNL     1      11.308  17.245  18.130  1.00  0.00    -0.366 N
HETATM    8  C7  UNL     1      10.922  16.066  17.622  1.00  0.00     0.090 A
HETATM    9  C8  UNL     1      11.668  14.910  17.821  1.00  0.00     0.017 A
HETATM   10  C9  UNL     1      12.827  14.972  18.557  1.00  0.00     0.003 A
HETATM   11  C10 UNL     1      13.222  16.181  19.078  1.00  0.00     0.017 A
HETATM   12  C11 UNL     1      12.435  17.316  18.847  1.00  0.00     0.090 A
ENDBRANCH   6   7
ENDBRANCH   5   6
ENDBRANCH   1   5
BRANCH   1  13
HETATM   13  N2  UNL     1      10.081  21.426  17.311  1.00  0.00    -0.194 N
BRANCH  13  14
HETATM   14  O1  UNL     1       8.897  21.711  17.265  1.00  0.00    -0.272 OA
ATOM     15  H1  UNL     1       8.312  21.464  17.972  1.00  0.00     0.246 HD
ENDBRANCH  13  14
BRANCH  13  16
HETATM   16  N3  UNL     1      10.882  21.581  16.200  1.00  0.00    -0.252 N
HETATM   17  C12 UNL     1      10.334  21.293  14.921  1.00  0.00     0.202 C
HETATM   18  N4  UNL     1       9.079  21.512  14.649  1.00  0.00    -0.372 N
HETATM   19  N5  UNL     1      11.135  20.756  13.896  1.00  0.00    -0.062 NA
ATOM     20  H42 UNL     1       8.499  21.902  15.392  1.00  0.00     0.158 HD
ATOM     21  H41 UNL     1       8.686  21.306  13.730  1.00  0.00     0.158 HD
ATOM     22  H3  UNL     1      11.847  21.895  16.294  1.00  0.00     0.192 HD
ENDBRANCH  13  16
ENDBRANCH   1  13
TORSDOF 7
ENDMDL