MODEL 1
REMARK VINA RESULT: -6.218391624      0.000      0.000
REMARK  7 active torsions:
REMARK  status: ('A' for Active; 'I' for Inactive)
REMARK    1  A    between atoms: C5_5  and  C6_6
REMARK    2  A    between atoms: C6_6  and  C7_7
REMARK    3  A    between atoms: C7_7  and  N1_8
REMARK    4  A    between atoms: C7_7  and  C8_12
REMARK    5  A    between atoms: C8_12  and  N2_13
REMARK    6  A    between atoms: C8_12  and  C9_17
REMARK    7  A    between atoms: C9_17  and  C10_18
ROOT
HETATM    1  C7  UNL     1       9.399 -14.889  24.405  1.00  0.00     0.218 C
ENDROOT
BRANCH   1   2
HETATM    2  C6  UNL     1      10.510 -15.127  23.411  1.00  0.00     0.073 C
BRANCH   2   3
HETATM    3  C5  UNL     1      11.311 -13.949  23.080  1.00  0.00    -0.056 A
HETATM    4  C4  UNL     1      10.804 -12.651  23.205  1.00  0.00     0.007 A
HETATM    5  C3  UNL     1      11.564 -11.543  22.898  1.00  0.00     0.007 A
HETATM    6  C2  UNL     1      12.858 -11.676  22.456  1.00  0.00    -0.062 A
HETATM    7  C1  UNL     1      13.668 -10.452  22.128  1.00  0.00     0.048 C
HETATM    8  C14 UNL     1      13.374 -12.939  22.327  1.00  0.00     0.007 A
HETATM    9  C13 UNL     1      12.605 -14.063  22.636  1.00  0.00     0.007 A
ENDBRANCH   2   3
ENDBRANCH   1   2
BRANCH   1  10
HETATM   10  N1  UNL     1      10.085 -14.696  25.704  1.00  0.00    -0.073 N
ATOM     11  H13 UNL     1      10.004 -15.491  26.337  1.00  0.00     0.274 HD
ATOM     12  H12 UNL     1      11.103 -14.702  25.640  1.00  0.00     0.274 HD
ATOM     13  H11 UNL     1       9.700 -13.828  26.078  1.00  0.00     0.274 HD
ENDBRANCH   1  10
BRANCH   1  14
HETATM   14  C8  UNL     1       8.467 -16.034  24.556  1.00  0.00     0.219 C
BRANCH  14  15
HETATM   15  N2  UNL     1       8.736 -16.847  25.747  1.00  0.00    -0.073 N
ATOM     16  H23 UNL     1       9.652 -17.290  25.684  1.00  0.00     0.274 HD
ATOM     17  H22 UNL     1       8.893 -16.254  26.563  1.00  0.00     0.274 HD
ATOM     18  H21 UNL     1       8.011 -17.539  25.935  1.00  0.00     0.274 HD
ENDBRANCH  14  15
BRANCH  14  19
HETATM   19  C9  UNL     1       7.009 -15.693  24.452  1.00  0.00     0.093 C
BRANCH  19  20
HETATM   20  C10 UNL     1       6.287 -16.308  23.334  1.00  0.00     0.029 A
HETATM   21  C11 UNL     1       4.995 -16.833  23.445  1.00  0.00     0.045 A
HETATM   22  C12 UNL     1       4.706 -17.324  22.187  1.00  0.00     0.109 A
HETATM   23  N3  UNL     1       5.740 -17.118  21.360  1.00  0.00    -0.312 N
HETATM   24  N4  UNL     1       6.671 -16.514  22.056  1.00  0.00    -0.305 N
ATOM     25  H3  UNL     1       5.791 -17.382  20.376  1.00  0.00     0.186 HD
ATOM     26  H4  UNL     1       7.577 -16.233  21.679  1.00  0.00     0.186 HD
ENDBRANCH  19  20
ENDBRANCH  14  19
ENDBRANCH   1  14
TORSDOF 7
ENDMDL