MODEL 3
REMARK VINA RESULT: -5.418318508      1.750      5.849
REMARK  7 active torsions:
REMARK  status: ('A' for Active; 'I' for Inactive)
REMARK    1  A    between atoms: C2_2  and  C3_3
REMARK    2  A    between atoms: C3_3  and  N1_4
REMARK    3  A    between atoms: C8_9  and  C9_10
REMARK    4  A    between atoms: N2_11  and  N3_13
REMARK    5  A    between atoms: N3_13  and  C10_15
REMARK    6  A    between atoms: C10_15  and  N4_18
REMARK    7  A    between atoms: N4_18  and  N5_19
ROOT
HETATM    1  C9  UNL     1      10.897 -14.179  25.306  1.00  0.00     0.136 C
HETATM    2  N2  UNL     1      11.863 -13.795  24.637  1.00  0.00    -0.312 N
ATOM      3  H2  UNL     1      12.521 -13.326  25.259  1.00  0.00     0.185 HD
ENDROOT
BRANCH   2   4
HETATM    4  N3  UNL     1      12.362 -13.770  23.395  1.00  0.00    -0.310 N
ATOM      5  H3  UNL     1      12.058 -14.476  22.726  1.00  0.00     0.182 HD
BRANCH   4   6
HETATM    6  C10 UNL     1      13.340 -12.750  22.965  1.00  0.00     0.127 C
HETATM    7  C11 UNL     1      12.641 -11.421  22.974  1.00  0.00     0.061 C
HETATM    8  C12 UNL     1      13.844 -13.118  21.606  1.00  0.00     0.061 C
BRANCH   6   9
HETATM    9  N4  UNL     1      14.385 -12.727  23.965  1.00  0.00    -0.116 NA
BRANCH   9  10
HETATM   10  N5  UNL     1      15.239 -11.659  23.850  1.00  0.00    -0.346 N
ATOM     11  H52 UNL     1      15.922 -11.588  23.096  1.00  0.00     0.172 HD
ATOM     12  H51 UNL     1      15.123 -10.958  24.581  1.00  0.00     0.172 HD
ENDBRANCH   9  10
ENDBRANCH   6   9
ENDBRANCH   4   6
ENDBRANCH   2   4
BRANCH   1  13
HETATM   13  C8  UNL     1       9.714 -14.900  24.843  1.00  0.00     0.051 A
HETATM   14  N1  UNL     1       8.998 -14.419  23.814  1.00  0.00    -0.352 N
HETATM   15  C4  UNL     1       7.902 -15.106  23.378  1.00  0.00     0.091 A
HETATM   16  C5  UNL     1       7.507 -16.280  23.968  1.00  0.00     0.017 A
HETATM   17  C6  UNL     1       8.219 -16.795  25.021  1.00  0.00     0.004 A
HETATM   18  C7  UNL     1       9.322 -16.089  25.445  1.00  0.00     0.031 A
BRANCH  14  19
HETATM   19  C3  UNL     1       9.301 -13.188  23.121  1.00  0.00     0.155 C
BRANCH  19  20
HETATM   20  C2  UNL     1       8.841 -12.035  23.935  1.00  0.00    -0.017 C
HETATM   21  C1  UNL     1       9.001 -10.771  23.596  1.00  0.00     0.008 C
ENDBRANCH  19  20
ENDBRANCH  14  19
ENDBRANCH   1  13
TORSDOF 7
ENDMDL