MODEL 5
REMARK VINA RESULT: -5.975906183      2.154      5.141
REMARK  5 active torsions:
REMARK  status: ('A' for Active; 'I' for Inactive)
REMARK    1  A    between atoms: C3_3  and  C4_4
REMARK    2  A    between atoms: C3_3  and  N3_13
REMARK    3  A    between atoms: C4_4  and  C5_5
REMARK    4  A    between atoms: N3_13  and  C9_16
REMARK    5  A    between atoms: C9_16  and  C10_17
ROOT
HETATM    1  C1  UNL     1      14.045 -13.080  21.247  1.00  0.00     0.014 C
HETATM    2  C2  UNL     1      13.251 -12.466  21.917  1.00  0.00    -0.084 C
HETATM    3  C3  UNL     1      12.276 -11.714  22.711  1.00  0.00     0.269 C
ENDROOT
BRANCH   3   4
HETATM    4  C4  UNL     1      10.958 -11.669  21.973  1.00  0.00     0.104 C
BRANCH   4   5
HETATM    5  C5  UNL     1       9.854 -11.200  22.834  1.00  0.00     0.029 A
HETATM    6  C6  UNL     1       8.981 -11.969  23.577  1.00  0.00     0.114 A
HETATM    7  N1  UNL     1       8.115 -11.155  24.226  1.00  0.00    -0.354 N
HETATM    8  C7  UNL     1       8.434  -9.895  23.902  1.00  0.00     0.077 A
ATOM      9  H1  UNL     1       7.360 -11.447  24.847  1.00  0.00     0.166 HD
HETATM   10  C8  UNL     1       7.735  -8.677  24.397  1.00  0.00     0.089 C
HETATM   11  N2  UNL     1       9.482  -9.927  23.063  1.00  0.00    -0.348 N
ATOM     12  H2  UNL     1       9.932  -9.106  22.657  1.00  0.00     0.167 HD
ENDBRANCH   4   5
ENDBRANCH   3   4
BRANCH   3  13
HETATM   13  N3  UNL     1      12.061 -12.277  24.013  1.00  0.00    -0.055 N
ATOM     14  H32 UNL     1      12.626 -11.802  24.717  1.00  0.00     0.279 HD
ATOM     15  H31 UNL     1      11.132 -12.045  24.365  1.00  0.00     0.279 HD
BRANCH  13  16
HETATM   16  C9  UNL     1      12.287 -13.708  24.042  1.00  0.00     0.290 C
BRANCH  16  17
HETATM   17  C10 UNL     1      11.070 -14.454  24.444  1.00  0.00     0.034 A
HETATM   18  C11 UNL     1      10.325 -15.093  23.466  1.00  0.00     0.027 A
HETATM   19  C12 UNL     1       9.188 -15.801  23.771  1.00  0.00     0.003 A
HETATM   20  C13 UNL     1       8.788 -15.868  25.087  1.00  0.00     0.017 A
HETATM   21  C14 UNL     1       9.563 -15.212  26.042  1.00  0.00     0.088 A
HETATM   22  N4  UNL     1      10.663 -14.529  25.730  1.00  0.00    -0.368 N
ATOM     23  H4  UNL     1      11.200 -14.064  26.462  1.00  0.00     0.165 HD
ENDBRANCH  16  17
ENDBRANCH  13  16
ENDBRANCH   3  13
TORSDOF 5
ENDMDL