MODEL 1
REMARK VINA RESULT: -8.327665012      0.000      0.000
REMARK  5 active torsions:
REMARK  status: ('A' for Active; 'I' for Inactive)
REMARK    1  A    between atoms: C2_3  and  C3_4
REMARK    2  A    between atoms: C3_4  and  N2_5
REMARK       I    between atoms: N2_5  and  C4_7
REMARK       I    between atoms: C4_7  and  N4_11
REMARK    3  A    between atoms: N4_11  and  C5_13
REMARK    4  A    between atoms: C5_13  and  C7_16
REMARK    5  A    between atoms: C7_16  and  C8_17
ROOT
HETATM    1  N1  UNL     1       6.361 -16.471  22.290  1.00  0.00    -0.197 NA
HETATM    2  C1  UNL     1       7.304 -16.477  22.985  1.00  0.00     0.060 C
HETATM    3  C2  UNL     1       8.492 -16.477  23.842  1.00  0.00     0.144 C
ENDROOT
BRANCH   3   4
HETATM    4  C3  UNL     1       8.223 -15.512  24.999  1.00  0.00     0.152 C
BRANCH   4   5
HETATM    5  N2  UNL     1       9.464 -14.953  25.440  1.00  0.00    -0.226 N
HETATM    6  C4  UNL     1      10.163 -14.003  24.652  1.00  0.00     0.668 C
HETATM    7  N3  UNL     1      11.436 -13.906  24.673  1.00  0.00    -0.235 N
HETATM    8  N4  UNL     1       9.445 -13.096  23.786  1.00  0.00    -0.209 N
ATOM      9  H32 UNL     1      11.943 -14.546  25.284  1.00  0.00     0.174 HD
ATOM     10  H31 UNL     1      11.939 -13.222  24.106  1.00  0.00     0.174 HD
ATOM     11  H4  UNL     1       8.608 -13.414  23.298  1.00  0.00     0.179 HD
ATOM     12  H2  UNL     1       9.854 -15.244  26.336  1.00  0.00     0.177 HD
BRANCH   8  13
HETATM   13  C5  UNL     1       9.910 -11.750  23.612  1.00  0.00     0.211 C
HETATM   14  C6  UNL     1       8.845 -10.791  23.935  1.00  0.00     0.085 C
HETATM   15  N5  UNL     1       8.008 -10.027  24.210  1.00  0.00    -0.195 NA
BRANCH  13  16
HETATM   16  C7  UNL     1      10.326 -11.576  22.163  1.00  0.00     0.079 C
BRANCH  16  17
HETATM   17  C8  UNL     1      11.755 -11.931  21.970  1.00  0.00    -0.055 A
HETATM   18  C9  UNL     1      12.124 -13.091  21.324  1.00  0.00     0.007 A
HETATM   19  C10 UNL     1      13.489 -13.360  21.177  1.00  0.00     0.001 A
HETATM   20  C11 UNL     1      14.433 -12.482  21.670  1.00  0.00     0.000 A
HETATM   21  C12 UNL     1      14.076 -11.317  22.319  1.00  0.00     0.001 A
HETATM   22  C13 UNL     1      12.710 -11.066  22.455  1.00  0.00     0.007 A
ENDBRANCH  16  17
ENDBRANCH  13  16
ENDBRANCH   8  13
ENDBRANCH   4   5
ENDBRANCH   3   4
TORSDOF 5
ENDMDL