MODEL 1
REMARK VINA RESULT: -7.684284908      0.000      0.000
REMARK  5 active torsions:
REMARK  status: ('A' for Active; 'I' for Inactive)
REMARK    1  A    between atoms: N3_4  and  N4_6
REMARK    2  A    between atoms: C2_8  and  C3_9
REMARK    3  A    between atoms: C6_12  and  O1_13
REMARK    4  A    between atoms: O1_13  and  C7_14
REMARK    5  A    between atoms: C7_14  and  C8_15
ROOT
HETATM    1  C3  UNL     1       8.066 -15.983  24.363  1.00  0.00    -0.019 A
HETATM    2  C4  UNL     1       8.889 -16.113  25.461  1.00  0.00     0.015 A
HETATM    3  C5  UNL     1      10.004 -15.310  25.626  1.00  0.00     0.037 A
HETATM    4  C6  UNL     1      10.360 -14.342  24.717  1.00  0.00     0.069 A
HETATM    5  C12 UNL     1       9.526 -14.204  23.595  1.00  0.00     0.037 A
HETATM    6  C13 UNL     1       8.428 -15.008  23.451  1.00  0.00     0.015 A
ENDROOT
BRANCH   1   7
HETATM    7  C2  UNL     1       6.892 -16.813  24.170  1.00  0.00     0.118 C
HETATM    8  N4  UNL     1       6.265 -16.786  23.054  1.00  0.00    -0.309 N
ATOM      9  H4  UNL     1       6.617 -16.169  22.322  1.00  0.00     0.186 HD
BRANCH   8  10
HETATM   10  N3  UNL     1       5.145 -17.536  22.782  1.00  0.00    -0.276 N
HETATM   11  C1  UNL     1       4.283 -17.148  21.923  1.00  0.00     0.215 C
HETATM   12  N1  UNL     1       4.470 -15.927  21.233  1.00  0.00    -0.065 NA
HETATM   13  N2  UNL     1       3.151 -17.977  21.694  1.00  0.00    -0.065 NA
ATOM     14  H3  UNL     1       5.000 -18.418  23.275  1.00  0.00     0.189 HD
ENDBRANCH   8  10
ENDBRANCH   1   7
BRANCH   4  15
HETATM   15  O1  UNL     1      11.460 -13.537  24.864  1.00  0.00    -0.345 OA
BRANCH  15  16
HETATM   16  C7  UNL     1      11.708 -12.410  24.105  1.00  0.00     0.232 C
BRANCH  16  17
HETATM   17  C8  UNL     1      12.709 -12.577  23.023  1.00  0.00     0.033 A
HETATM   18  C9  UNL     1      12.687 -13.446  21.936  1.00  0.00     0.028 A
HETATM   19  C10 UNL     1      13.817 -13.249  21.203  1.00  0.00     0.019 A
HETATM   20  C11 UNL     1      14.538 -12.267  21.827  1.00  0.00     0.088 A
HETATM   21  N5  UNL     1      13.852 -11.886  22.908  1.00  0.00    -0.367 N
ATOM     22  H5  UNL     1      14.157 -11.164  23.561  1.00  0.00     0.165 HD
ENDBRANCH  16  17
ENDBRANCH  15  16
ENDBRANCH   4  15
TORSDOF 5
ENDMDL