MODEL 2
REMARK VINA RESULT: -5.090308677      0.890      1.892
REMARK  8 active torsions:
REMARK  status: ('A' for Active; 'I' for Inactive)
REMARK    1  A    between atoms: C2_2  and  C3_3
REMARK    2  A    between atoms: C3_3  and  C4_4
REMARK    3  A    between atoms: C4_4  and  N1_5
REMARK    4  A    between atoms: C4_4  and  N2_9
REMARK    5  A    between atoms: C4_4  and  C6_12
REMARK    6  A    between atoms: C6_12  and  N3_13
REMARK    7  A    between atoms: N4_19  and  C9_20
REMARK    8  A    between atoms: C9_20  and  C10_21
ROOT
HETATM    1  C6  UNL     1      10.854 -13.682  24.168  1.00  0.00     0.180 C
HETATM    2  C7  UNL     1      10.913 -14.532  25.365  1.00  0.00     0.087 C
HETATM    3  C8  UNL     1       9.778 -15.416  25.684  1.00  0.00     0.060 C
HETATM    4  N4  UNL     1       8.577 -15.316  24.964  1.00  0.00    -0.393 N
HETATM    5  C12 UNL     1       8.520 -14.335  23.932  1.00  0.00     0.124 C
HETATM    6  C13 UNL     1       9.830 -14.292  23.178  1.00  0.00     0.063 C
ENDROOT
BRANCH   1   7
HETATM    7  C4  UNL     1      12.118 -13.593  23.372  1.00  0.00     0.228 C
BRANCH   7   8
HETATM    8  C3  UNL     1      13.394 -13.500  24.121  1.00  0.00     0.090 C
BRANCH   8   9
HETATM    9  C2  UNL     1      14.377 -12.499  23.689  1.00  0.00    -0.033 C
HETATM   10  C1  UNL     1      14.819 -11.595  24.551  1.00  0.00     0.007 C
ENDBRANCH   8   9
ENDBRANCH   7   8
BRANCH   7  11
HETATM   11  N1  UNL     1      12.156 -14.859  22.593  1.00  0.00    -0.050 N
ATOM     12  H13 UNL     1      11.344 -15.454  22.758  1.00  0.00     0.277 HD
ATOM     13  H12 UNL     1      12.014 -14.717  21.593  1.00  0.00     0.277 HD
ATOM     14  H11 UNL     1      13.039 -15.321  22.810  1.00  0.00     0.277 HD
ENDBRANCH   7  11
BRANCH   7  15
HETATM   15  N2  UNL     1      12.105 -12.563  22.360  1.00  0.00    -0.393 N
HETATM   16  C5  UNL     1      12.439 -12.946  21.047  1.00  0.00     0.142 C
ATOM     17  H2  UNL     1      11.863 -11.598  22.586  1.00  0.00     0.155 HD
ENDBRANCH   7  15
ENDBRANCH   1   7
BRANCH   1  18
HETATM   18  N3  UNL     1      10.294 -12.379  24.508  1.00  0.00    -0.066 N
ATOM     19  H33 UNL     1       9.386 -12.482  24.961  1.00  0.00     0.275 HD
ATOM     20  H32 UNL     1      10.816 -11.949  25.272  1.00  0.00     0.275 HD
ATOM     21  H31 UNL     1      10.232 -11.746  23.711  1.00  0.00     0.275 HD
ENDBRANCH   1  18
BRANCH   4  22
HETATM   22  C9  UNL     1       7.965 -16.571  24.606  1.00  0.00     0.121 C
BRANCH  22  23
HETATM   23  C10 UNL     1       7.238 -16.476  23.282  1.00  0.00     0.015 C
HETATM   24  C11 UNL     1       5.756 -16.703  23.433  1.00  0.00     0.006 C
ENDBRANCH  22  23
ENDBRANCH   4  22
TORSDOF 8
ENDMDL