MODEL 5
REMARK VINA RESULT: -5.887773061      1.601      2.668
REMARK  6 active torsions:
REMARK  status: ('A' for Active; 'I' for Inactive)
REMARK    1  A    between atoms: C2_2  and  O1_4
REMARK    2  A    between atoms: O1_4  and  C4_5
REMARK    3  A    between atoms: C7_8  and  C8_9
REMARK    4  A    between atoms: C8_9  and  C9_10
REMARK    5  A    between atoms: C9_10  and  C10_11
REMARK    6  A    between atoms: C9_10  and  N1_13
REMARK       I    between atoms: N1_13  and  C11_15
ROOT
HETATM    1  C8  UNL     1      11.224 -13.860  24.572  1.00  0.00     0.070 C
ENDROOT
BRANCH   1   2
HETATM    2  C7  UNL     1      10.025 -14.721  24.429  1.00  0.00    -0.056 A
HETATM    3  C6  UNL     1       9.265 -14.681  23.273  1.00  0.00     0.010 A
HETATM    4  C5  UNL     1       8.175 -15.504  23.170  1.00  0.00     0.038 A
HETATM    5  C4  UNL     1       7.784 -16.380  24.156  1.00  0.00     0.075 A
HETATM    6  C13 UNL     1       8.535 -16.423  25.308  1.00  0.00     0.038 A
HETATM    7  C12 UNL     1       9.619 -15.608  25.418  1.00  0.00     0.010 A
BRANCH   5   8
HETATM    8  O1  UNL     1       6.669 -17.158  23.938  1.00  0.00    -0.316 OA
BRANCH   8   9
HETATM    9  C2  UNL     1       5.652 -16.761  23.067  1.00  0.00     0.040 C
HETATM   10  C1  UNL     1       4.448 -16.586  23.585  1.00  0.00     0.046 C
HETATM   11  C3  UNL     1       5.888 -16.542  21.625  1.00  0.00     0.076 C
ENDBRANCH   8   9
ENDBRANCH   5   8
ENDBRANCH   1   2
BRANCH   1  12
HETATM   12  C9  UNL     1      11.578 -13.252  23.260  1.00  0.00     0.149 C
BRANCH  12  13
HETATM   13  C10 UNL     1      11.216 -11.817  23.245  1.00  0.00     0.256 C
HETATM   14  O2  UNL     1      10.764 -11.324  22.211  1.00  0.00    -0.305 OA
ENDBRANCH  12  13
BRANCH  12  15
HETATM   15  N1  UNL     1      12.987 -13.366  22.950  1.00  0.00    -0.354 N
HETATM   16  C11 UNL     1      13.983 -12.435  23.260  1.00  0.00     0.182 C
HETATM   17  N2  UNL     1      14.727 -11.964  22.324  1.00  0.00    -0.374 N
HETATM   18  N3  UNL     1      14.240 -11.961  24.570  1.00  0.00    -0.064 NA
ATOM     19  H22 UNL     1      14.542 -12.306  21.381  1.00  0.00     0.158 HD
ATOM     20  H21 UNL     1      15.453 -11.285  22.550  1.00  0.00     0.158 HD
ATOM     21  H1  UNL     1      13.282 -14.209  22.458  1.00  0.00     0.163 HD
ENDBRANCH  12  15
ENDBRANCH   1  12
TORSDOF 6
ENDMDL