MODEL 1
REMARK VINA RESULT: -7.117441925      0.000      0.000
REMARK  6 active torsions:
REMARK  status: ('A' for Active; 'I' for Inactive)
REMARK    1  A    between atoms: C4_6  and  N2_7
REMARK    2  A    between atoms: C5_12  and  N4_13
REMARK    3  A    between atoms: N4_13  and  C6_15
REMARK    4  A    between atoms: C6_15  and  C7_16
REMARK    5  A    between atoms: C7_16  and  O1_17
REMARK    6  A    between atoms: O1_17  and  C8_18
ROOT
HETATM    1  C1  UNL     1      10.423 -14.935  26.100  1.00  0.00     0.054 C
HETATM    2  C2  UNL     1       9.330 -15.396  25.180  1.00  0.00    -0.001 A
HETATM    3  C3  UNL     1       8.720 -16.628  25.429  1.00  0.00     0.116 A
HETATM    4  N1  UNL     1       7.739 -17.085  24.639  1.00  0.00    -0.202 N
ATOM      5  H1  UNL     1       7.314 -17.988  24.847  1.00  0.00     0.183 HD
HETATM    6  C4  UNL     1       7.299 -16.386  23.577  1.00  0.00     0.677 A
HETATM    7  N3  UNL     1       7.864 -15.220  23.327  1.00  0.00    -0.176 N
ATOM      8  H3  UNL     1       7.533 -14.687  22.522  1.00  0.00     0.186 HD
HETATM    9  C5  UNL     1       8.886 -14.678  24.099  1.00  0.00     0.128 A
ENDROOT
BRANCH   9  10
HETATM   10  N4  UNL     1       9.353 -13.575  23.785  1.00  0.00    -0.353 N
ATOM     11  H4  UNL     1      10.211 -13.775  23.272  1.00  0.00     0.166 HD
BRANCH  10  12
HETATM   12  C6  UNL     1       9.246 -12.224  23.809  1.00  0.00     0.089 C
BRANCH  12  13
HETATM   13  C7  UNL     1       9.584 -11.520  22.476  1.00  0.00     0.220 C
BRANCH  13  14
HETATM   14  O1  UNL     1      10.860 -10.966  22.634  1.00  0.00    -0.346 OA
BRANCH  14  15
HETATM   15  C8  UNL     1      12.041 -11.589  22.283  1.00  0.00     0.069 A
HETATM   16  C9  UNL     1      11.943 -12.730  21.505  1.00  0.00     0.037 A
HETATM   17  C10 UNL     1      13.063 -13.433  21.095  1.00  0.00     0.003 A
HETATM   18  C11 UNL     1      14.317 -13.000  21.460  1.00  0.00     0.000 A
HETATM   19  C12 UNL     1      14.397 -11.861  22.235  1.00  0.00     0.003 A
HETATM   20  C13 UNL     1      13.280 -11.161  22.644  1.00  0.00     0.037 A
ENDBRANCH  14  15
ENDBRANCH  13  14
ENDBRANCH  12  13
ENDBRANCH  10  12
ENDBRANCH   9  10
BRANCH   6  21
HETATM   21  N2  UNL     1       6.337 -16.877  22.834  1.00  0.00    -0.234 N
ATOM     22  H22 UNL     1       5.892 -17.772  23.036  1.00  0.00     0.174 HD
ATOM     23  H21 UNL     1       6.013 -16.353  22.022  1.00  0.00     0.174 HD
ENDBRANCH   6  21
TORSDOF 6
ENDMDL