MODEL 4
REMARK VINA RESULT: -3.124594241      2.350      3.595
REMARK  5 active torsions:
REMARK  status: ('A' for Active; 'I' for Inactive)
REMARK    1  A    between atoms: C3_5  and  O2_6
REMARK    2  A    between atoms: C4_8  and  O3_9
REMARK    3  A    between atoms: N2_13  and  C7_14
REMARK    4  A    between atoms: C7_14  and  C8_15
REMARK    5  A    between atoms: C8_15  and  O4_16
ROOT
HETATM    1  C1  UNL     1      18.986  21.225  24.706  1.00  0.00     0.398 C
HETATM    2  N1  UNL     1      17.896  20.420  25.222  1.00  0.00     0.187 N
HETATM    3  O1  UNL     1      17.467  21.062  26.359  1.00  0.00    -0.036 OA
HETATM    4  C2  UNL     1      16.798  20.385  24.299  1.00  0.00     0.325 C
HETATM    5  C3  UNL     1      15.455  20.514  24.980  1.00  0.00     0.189 C
HETATM    6  C4  UNL     1      14.884  19.146  25.137  1.00  0.00     0.155 C
HETATM    7  C5  UNL     1      16.122  18.260  24.940  1.00  0.00     0.053 C
HETATM    8  C6  UNL     1      17.088  18.461  26.063  1.00  0.00     0.288 C
HETATM    9  N2  UNL     1      18.309  19.153  25.634  1.00  0.00     0.133 N
HETATM   10  C9  UNL     1      18.901  18.376  24.589  1.00  0.00     0.281 C
HETATM   11  C10 UNL     1      18.040  18.410  23.365  1.00  0.00     0.038 C
HETATM   12  C11 UNL     1      16.705  18.986  23.718  1.00  0.00     0.040 C
ENDROOT
BRANCH   9  13
HETATM   13  C7  UNL     1      19.138  19.294  26.796  1.00  0.00     0.307 C
BRANCH  13  14
HETATM   14  C8  UNL     1      20.383  18.459  26.764  1.00  0.00     0.195 C
BRANCH  14  15
HETATM   15  O4  UNL     1      21.094  18.739  27.944  1.00  0.00    -0.399 OA
ATOM     16  H4  UNL     1      21.286  19.670  27.937  1.00  0.00     0.209 HD
ENDBRANCH  14  15
ENDBRANCH  13  14
ENDBRANCH   9  13
BRANCH   5  17
HETATM   17  O2  UNL     1      14.657  21.299  24.126  1.00  0.00    -0.390 OA
ATOM     18  H2  UNL     1      14.309  22.003  24.661  1.00  0.00     0.210 HD
ENDBRANCH   5  17
BRANCH   6  19
HETATM   19  O3  UNL     1      14.279  18.918  26.347  1.00  0.00    -0.392 OA
ATOM     20  H3  UNL     1      13.574  18.281  26.320  1.00  0.00     0.210 HD
ENDBRANCH   6  19
TORSDOF 5
ENDMDL