MODEL 2
REMARK VINA RESULT: -6.428109105      4.572      6.440
REMARK  3 active torsions:
REMARK  status: ('A' for Active; 'I' for Inactive)
REMARK       I    between atoms: N2_3  and  C2_5
REMARK       I    between atoms: C2_5  and  N3_6
REMARK    1  A    between atoms: N6_11  and  C4_13
REMARK    2  A    between atoms: C4_13  and  C5_14
REMARK    3  A    between atoms: N7_17  and  C8_18
ROOT
HETATM    1  N1  UNL     1      24.186  17.664  22.946  1.00  0.00    -0.171 NA
HETATM    2  C1  UNL     1      23.450  16.750  22.891  1.00  0.00     0.196 C
HETATM    3  N2  UNL     1      22.583  15.653  22.805  1.00  0.00    -0.126 N
ATOM      4  H2  UNL     1      22.493  15.144  21.925  1.00  0.00     0.197 HD
HETATM    5  C2  UNL     1      21.831  15.248  23.936  1.00  0.00     0.689 C
HETATM    6  N3  UNL     1      22.518  15.121  25.168  1.00  0.00    -0.165 N
ATOM      7  H3  UNL     1      22.798  15.973  25.653  1.00  0.00     0.186 HD
HETATM    8  C3  UNL     1      22.809  13.996  25.709  1.00  0.00     0.215 C
HETATM    9  N4  UNL     1      22.421  12.805  25.042  1.00  0.00    -0.066 NA
HETATM   10  N5  UNL     1      23.502  14.003  26.950  1.00  0.00    -0.066 NA
HETATM   11  N6  UNL     1      20.572  14.991  23.912  1.00  0.00    -0.220 N
ATOM     12  H6  UNL     1      20.115  14.705  24.777  1.00  0.00     0.178 HD
ENDROOT
BRANCH  11  13
HETATM   13  C4  UNL     1      19.784  15.090  22.721  1.00  0.00     0.195 C
BRANCH  13  14
HETATM   14  C5  UNL     1      19.749  13.772  22.025  1.00  0.00     0.029 A
HETATM   15  C6  UNL     1      20.447  13.566  20.851  1.00  0.00     0.044 A
HETATM   16  C7  UNL     1      20.364  12.319  20.270  1.00  0.00     0.102 A
HETATM   17  N7  UNL     1      19.646  11.295  20.773  1.00  0.00    -0.296 N
HETATM   18  C9  UNL     1      18.975  11.535  21.923  1.00  0.00     0.190 A
HETATM   19  N8  UNL     1      19.031  12.737  22.521  1.00  0.00    -0.354 N
ATOM     20  H8  UNL     1      18.510  12.876  23.387  1.00  0.00     0.166 HD
BRANCH  17  21
HETATM   21  C8  UNL     1      19.575  10.027  20.159  1.00  0.00     0.360 C
HETATM   22  O1  UNL     1      20.536   9.610  19.490  1.00  0.00    -0.283 OA
ENDBRANCH  17  21
ENDBRANCH  13  14
ENDBRANCH  11  13
TORSDOF 3
ENDMDL