MODEL 3
REMARK VINA RESULT: -4.931962259      7.364      8.237
REMARK  6 active torsions:
REMARK  status: ('A' for Active; 'I' for Inactive)
REMARK    1  A    between atoms: O1_1  and  C1_3
REMARK    2  A    between atoms: C1_3  and  C2_4
REMARK    3  A    between atoms: C3_5  and  C4_6
REMARK    4  A    between atoms: C4_6  and  O2_7
REMARK    5  A    between atoms: C11_19  and  C12_20
REMARK    6  A    between atoms: C12_20  and  O3_21
ROOT
HETATM    1  C2  UNL     1      18.673  18.075  24.372  1.00  0.00     0.043 C
HETATM    2  C3  UNL     1      17.718  17.855  23.250  1.00  0.00     0.042 C
HETATM    3  C5  UNL     1      16.767  18.995  23.357  1.00  0.00     0.128 C
HETATM    4  C6  UNL     1      15.337  18.645  23.578  1.00  0.00     0.173 C
HETATM    5  N1  UNL     1      14.852  19.630  24.493  1.00  0.00    -0.191 N
HETATM    6  C7  UNL     1      13.561  19.989  24.761  1.00  0.00     0.110 A
HETATM    7  C8  UNL     1      13.267  20.967  25.689  1.00  0.00     0.035 A
HETATM    8  C9  UNL     1      14.346  21.551  26.319  1.00  0.00     0.107 A
HETATM    9  N2  UNL     1      15.615  21.205  26.060  1.00  0.00    -0.202 N
ATOM     10  H2  UNL     1      16.387  21.660  26.548  1.00  0.00     0.183 HD
HETATM   11  C10 UNL     1      15.859  20.222  25.124  1.00  0.00     0.683 A
HETATM   12  N3  UNL     1      17.059  19.656  24.640  1.00  0.00    -0.203 N
HETATM   13  C11 UNL     1      18.457  19.452  24.877  1.00  0.00     0.133 C
ENDROOT
BRANCH   1  14
HETATM   14  C1  UNL     1      20.105  17.755  24.046  1.00  0.00     0.171 C
BRANCH  14  15
HETATM   15  O1  UNL     1      20.794  17.663  25.252  1.00  0.00    -0.400 OA
ATOM     16  H1  UNL     1      20.862  16.740  25.470  1.00  0.00     0.209 HD
ENDBRANCH  14  15
ENDBRANCH   1  14
BRANCH   2  17
HETATM   17  C4  UNL     1      17.057  16.496  23.266  1.00  0.00     0.171 C
BRANCH  17  18
HETATM   18  O2  UNL     1      18.006  15.567  22.875  1.00  0.00    -0.400 OA
ATOM     19  H2  UNL     1      17.544  14.834  22.485  1.00  0.00     0.209 HD
ENDBRANCH  17  18
ENDBRANCH   2  17
BRANCH  13  20
HETATM   20  C12 UNL     1      19.300  20.502  24.214  1.00  0.00     0.190 C
BRANCH  20  21
HETATM   21  O3  UNL     1      18.898  21.788  24.446  1.00  0.00    -0.399 OA
ATOM     22  H3  UNL     1      19.194  22.420  23.801  1.00  0.00     0.209 HD
ENDBRANCH  20  21
ENDBRANCH  13  20
TORSDOF 6
ENDMDL