MODEL 5
REMARK VINA RESULT: -4.269282233      2.686      3.518
REMARK  5 active torsions:
REMARK  status: ('A' for Active; 'I' for Inactive)
REMARK    1  A    between atoms: N1_2  and  C3_4
REMARK    2  A    between atoms: C6_7  and  N2_8
REMARK       I    between atoms: N2_8  and  C7_10
REMARK    3  A    between atoms: C7_10  and  C8_12
REMARK    4  A    between atoms: N3_13  and  N4_15
REMARK    5  A    between atoms: C10_19  and  O2_20
ROOT
HETATM    1  C3  UNL     1      17.200  18.868  24.691  1.00  0.00     0.360 C
HETATM    2  C4  UNL     1      17.940  18.843  25.992  1.00  0.00     0.071 C
HETATM    3  C5  UNL     1      19.403  18.644  25.837  1.00  0.00     0.024 A
HETATM    4  C6  UNL     1      19.915  17.892  24.684  1.00  0.00     0.098 A
HETATM    5  C9  UNL     1      19.946  19.395  24.712  1.00  0.00     0.070 A
HETATM    6  C10 UNL     1      18.998  20.086  23.801  1.00  0.00     0.266 C
HETATM    7  O3  UNL     1      17.738  19.624  23.705  1.00  0.00    -0.326 OA
ENDROOT
BRANCH   4   8
HETATM    8  N2  UNL     1      21.226  17.283  24.693  1.00  0.00    -0.351 N
HETATM    9  C7  UNL     1      21.485  15.993  24.177  1.00  0.00     0.258 C
HETATM   10  O1  UNL     1      20.566  15.321  23.682  1.00  0.00    -0.267 OA
ATOM     11  H2  UNL     1      22.002  17.810  25.092  1.00  0.00     0.163 HD
BRANCH   9  12
HETATM   12  C8  UNL     1      22.823  15.431  24.213  1.00  0.00     0.180 C
HETATM   13  N3  UNL     1      23.435  14.992  23.171  1.00  0.00    -0.313 N
ATOM     14  H3  UNL     1      24.376  14.608  23.257  1.00  0.00     0.185 HD
BRANCH  13  15
HETATM   15  N4  UNL     1      22.818  15.040  21.929  1.00  0.00    -0.345 N
ATOM     16  H42 UNL     1      21.838  14.767  21.854  1.00  0.00     0.176 HD
ATOM     17  H41 UNL     1      23.342  15.344  21.108  1.00  0.00     0.176 HD
ENDBRANCH  13  15
ENDBRANCH   9  12
ENDBRANCH   4   8
BRANCH   6  18
HETATM   18  O2  UNL     1      19.095  21.457  24.066  1.00  0.00    -0.371 OA
ATOM     19  H2  UNL     1      18.230  21.828  23.944  1.00  0.00     0.212 HD
ENDBRANCH   6  18
BRANCH   1  20
HETATM   20  N1  UNL     1      15.814  19.190  24.849  1.00  0.00     0.108 N
HETATM   21  C1  UNL     1      15.566  20.573  25.139  1.00  0.00     0.312 C
HETATM   22  C2  UNL     1      14.947  18.651  23.847  1.00  0.00     0.312 C
ENDBRANCH   1  20
TORSDOF 5
ENDMDL