MODEL 4
REMARK VINA RESULT: -4.560179567      1.204      1.435
REMARK  6 active torsions:
REMARK  status: ('A' for Active; 'I' for Inactive)
REMARK    1  A    between atoms: N1_1  and  C1_5
REMARK    2  A    between atoms: C1_5  and  C2_6
REMARK    3  A    between atoms: C2_6  and  N2_7
REMARK    4  A    between atoms: N2_7  and  S1_9
REMARK    5  A    between atoms: C9_18  and  O2_19
REMARK    6  A    between atoms: C10_21  and  O3_22
ROOT
HETATM    1  S1  UNL     1      20.083  13.536  22.726  1.00  0.00     0.101 S
HETATM    2  O1  UNL     1      19.059  14.468  23.272  1.00  0.00    -0.240 OA
HETATM    3  C3  UNL     1      21.018  14.244  21.430  1.00  0.00     0.112 A
HETATM    4  C4  UNL     1      22.217  14.898  21.656  1.00  0.00     0.040 A
HETATM    5  C5  UNL     1      22.912  15.437  20.589  1.00  0.00     0.004 A
HETATM    6  C6  UNL     1      22.390  15.305  19.317  1.00  0.00     0.017 A
HETATM    7  C7  UNL     1      21.199  14.651  19.121  1.00  0.00     0.092 A
HETATM    8  N3  UNL     1      20.523  14.125  20.186  1.00  0.00    -0.346 N
HETATM    9  C8  UNL     1      19.283  13.444  20.005  1.00  0.00     0.164 C
HETATM   10  C9  UNL     1      19.228  12.055  20.597  1.00  0.00     0.178 C
HETATM   11  C10 UNL     1      19.345  12.053  22.097  1.00  0.00     0.255 C
ENDROOT
BRANCH   1  12
HETATM   12  N2  UNL     1      20.965  13.233  23.956  1.00  0.00    -0.322 N
ATOM     13  H2  UNL     1      21.039  12.253  24.228  1.00  0.00     0.174 HD
BRANCH  12  14
HETATM   14  C2  UNL     1      21.662  14.132  24.727  1.00  0.00     0.097 C
BRANCH  14  15
HETATM   15  C1  UNL     1      22.582  13.690  25.787  1.00  0.00     0.274 C
BRANCH  15  16
HETATM   16  N1  UNL     1      23.798  13.063  25.273  1.00  0.00    -0.075 N
ATOM     17  H13 UNL     1      24.361  12.687  26.035  1.00  0.00     0.274 HD
ATOM     18  H12 UNL     1      23.579  12.196  24.782  1.00  0.00     0.274 HD
ATOM     19  H11 UNL     1      24.354  13.683  24.684  1.00  0.00     0.274 HD
ENDBRANCH  15  16
ENDBRANCH  14  15
ENDBRANCH  12  14
ENDBRANCH   1  12
BRANCH  11  20
HETATM   20  O3  UNL     1      20.064  10.968  22.589  1.00  0.00    -0.379 OA
ATOM     21  H3  UNL     1      19.449  10.270  22.784  1.00  0.00     0.211 HD
ENDBRANCH  11  20
BRANCH  10  22
HETATM   22  O2  UNL     1      20.244  11.315  19.987  1.00  0.00    -0.390 OA
ATOM     23  H2  UNL     1      20.004  10.400  20.068  1.00  0.00     0.210 HD
ENDBRANCH  10  22
TORSDOF 6
ENDMDL