MODEL 3
REMARK VINA RESULT: -3.096279059      1.961      5.826
REMARK  5 active torsions:
REMARK  status: ('A' for Active; 'I' for Inactive)
REMARK    1  A    between atoms: C3_4  and  C4_5
REMARK    2  A    between atoms: C4_5  and  N1_6
REMARK    3  A    between atoms: C8_10  and  O2_11
REMARK    4  A    between atoms: C9_13  and  O3_14
REMARK    5  A    between atoms: C10_16  and  C11_17
ROOT
HETATM    1  C1  UNL     1      18.998  19.894  24.374  1.00  0.00     0.040 C
HETATM    2  C2  UNL     1      18.087  18.654  24.381  1.00  0.00     0.133 C
HETATM    3  O1  UNL     1      18.798  17.654  23.814  1.00  0.00    -0.376 OA
HETATM    4  C3  UNL     1      18.122  16.434  23.620  1.00  0.00     0.179 C
HETATM    5  C8  UNL     1      16.673  16.658  23.730  1.00  0.00     0.178 C
HETATM    6  C9  UNL     1      16.233  17.865  22.912  1.00  0.00     0.164 C
HETATM    7  C10 UNL     1      16.850  19.059  23.618  1.00  0.00     0.135 C
ENDROOT
BRANCH   4   8
HETATM    8  C4  UNL     1      18.692  15.851  22.391  1.00  0.00     0.270 C
BRANCH   8   9
HETATM    9  N1  UNL     1      19.520  14.684  22.480  1.00  0.00    -0.076 N
HETATM   10  C5  UNL     1      20.091  14.541  21.102  1.00  0.00     0.271 C
HETATM   11  C6  UNL     1      18.792  13.446  22.671  1.00  0.00     0.271 C
HETATM   12  C7  UNL     1      20.644  14.774  23.355  1.00  0.00     0.271 C
ENDBRANCH   8   9
ENDBRANCH   4   8
BRANCH   5  13
HETATM   13  O2  UNL     1      15.830  15.594  23.590  1.00  0.00    -0.390 OA
ATOM     14  H2  UNL     1      15.062  15.541  24.146  1.00  0.00     0.210 HD
ENDBRANCH   5  13
BRANCH   6  15
HETATM   15  O3  UNL     1      14.839  17.895  22.955  1.00  0.00    -0.392 OA
ATOM     16  H3  UNL     1      14.594  17.991  23.867  1.00  0.00     0.210 HD
ENDBRANCH   6  15
BRANCH   7  17
HETATM   17  C11 UNL     1      15.855  19.561  24.598  1.00  0.00     0.240 C
HETATM   18  N2  UNL     1      15.453  20.916  24.642  1.00  0.00    -0.062 NA
HETATM   19  O4  UNL     1      15.307  18.789  25.458  1.00  0.00    -0.276 OA
ENDBRANCH   7  17
TORSDOF 5
ENDMDL