MODEL 1
REMARK VINA RESULT: -6.276819957      0.000      0.000
REMARK  5 active torsions:
REMARK  status: ('A' for Active; 'I' for Inactive)
REMARK    1  A    between atoms: N1_2  and  C2_3
REMARK    2  A    between atoms: C2_3  and  C3_4
REMARK    3  A    between atoms: C6_7  and  N2_8
REMARK       I    between atoms: N2_8  and  C7_10
REMARK    4  A    between atoms: C8_13  and  C9_14
REMARK    5  A    between atoms: C9_14  and  O2_15
ROOT
HETATM    1  C3  UNL     1      20.406  13.614  21.743  1.00  0.00     0.173 C
HETATM    2  C4  UNL     1      19.762  12.520  22.561  1.00  0.00     0.005 C
HETATM    3  C5  UNL     1      20.277  12.401  23.789  1.00  0.00    -0.001 C
HETATM    4  C6  UNL     1      21.385  13.388  24.084  1.00  0.00     0.139 C
HETATM    5  C8  UNL     1      21.014  14.752  23.599  1.00  0.00     0.172 C
HETATM    6  O3  UNL     1      20.193  14.774  22.483  1.00  0.00    -0.370 OA
ENDROOT
BRANCH   1   7
HETATM    7  C2  UNL     1      19.753  13.708  20.383  1.00  0.00     0.307 C
BRANCH   7   8
HETATM    8  N1  UNL     1      20.542  14.549  19.533  1.00  0.00     0.048 N
HETATM    9  C1  UNL     1      21.972  14.490  19.797  1.00  0.00     0.310 C
HETATM   10  C10 UNL     1      20.165  14.658  18.189  1.00  0.00     0.342 A
HETATM   11  N4  UNL     1      20.093  15.699  19.019  1.00  0.00    -0.197 N
ATOM     12  H4  UNL     1      19.859  16.681  19.161  1.00  0.00     0.195 HD
ENDBRANCH   7   8
ENDBRANCH   1   7
BRANCH   5  13
HETATM   13  C9  UNL     1      22.237  15.597  23.240  1.00  0.00     0.198 C
BRANCH  13  14
HETATM   14  O2  UNL     1      23.352  14.832  22.990  1.00  0.00    -0.398 OA
ATOM     15  H2  UNL     1      24.147  15.350  22.940  1.00  0.00     0.209 HD
ENDBRANCH  13  14
ENDBRANCH   5  13
BRANCH   4  16
HETATM   16  N2  UNL     1      21.671  13.335  25.487  1.00  0.00    -0.335 N
HETATM   17  C7  UNL     1      23.000  13.234  25.935  1.00  0.00     0.329 C
HETATM   18  N3  UNL     1      23.368  13.178  27.305  1.00  0.00    -0.040 NA
HETATM   19  O1  UNL     1      23.936  13.190  25.097  1.00  0.00    -0.251 OA
ATOM     20  H2  UNL     1      20.908  13.370  26.163  1.00  0.00     0.164 HD
ENDBRANCH   4  16
TORSDOF 5
ENDMDL