MODEL 5
REMARK VINA RESULT: -5.586256437      3.046      6.800
REMARK  4 active torsions:
REMARK  status: ('A' for Active; 'I' for Inactive)
REMARK    1  A    between atoms: C3_10  and  C4_11
REMARK    2  A    between atoms: C4_11  and  C5_12
REMARK    3  A    between atoms: C5_12  and  N3_13
REMARK    4  A    between atoms: N3_13  and  C6_15
ROOT
HETATM    1  C4  UNL     1      17.346  17.638  22.447  1.00  0.00     0.068 C
ENDROOT
BRANCH   1   2
HETATM    2  C3  UNL     1      16.042  18.185  22.974  1.00  0.00     0.300 C
HETATM    3  S1  UNL     1      16.297  19.162  24.473  1.00  0.00     0.141 S
HETATM    4  O1  UNL     1      17.567  18.561  25.405  1.00  0.00    -0.234 OA
HETATM    5  N1  UNL     1      14.784  19.006  25.384  1.00  0.00    -0.338 N
HETATM    6  C1  UNL     1      13.736  18.884  24.422  1.00  0.00     0.157 C
ATOM      7  H1  UNL     1      14.682  19.005  26.399  1.00  0.00     0.169 HD
HETATM    8  C2  UNL     1      13.799  17.686  23.548  1.00  0.00     0.254 C
HETATM    9  N2  UNL     1      15.102  17.151  23.317  1.00  0.00    -0.057 N
ATOM     10  H22 UNL     1      15.426  16.601  24.112  1.00  0.00     0.278 HD
ATOM     11  H21 UNL     1      15.083  16.414  22.613  1.00  0.00     0.278 HD
ENDBRANCH   1   2
BRANCH   1  12
HETATM   12  C5  UNL     1      17.481  16.206  22.945  1.00  0.00     0.123 C
BRANCH  12  13
HETATM   13  N3  UNL     1      18.617  15.615  22.306  1.00  0.00    -0.390 N
ATOM     14  H3  UNL     1      18.882  15.993  21.397  1.00  0.00     0.159 HD
BRANCH  13  15
HETATM   15  C6  UNL     1      19.328  14.666  22.759  1.00  0.00     0.030 A
HETATM   16  C7  UNL     1      19.056  13.328  22.579  1.00  0.00     0.046 A
HETATM   17  C8  UNL     1      19.889  12.357  23.112  1.00  0.00     0.089 A
HETATM   18  N4  UNL     1      20.995  12.706  23.826  1.00  0.00    -0.375 N
HETATM   19  C9  UNL     1      21.291  14.010  24.021  1.00  0.00     0.089 A
ATOM     20  H4  UNL     1      21.601  11.982  24.213  1.00  0.00     0.164 HD
HETATM   21  C10 UNL     1      20.459  14.991  23.489  1.00  0.00     0.046 A
ENDBRANCH  13  15
ENDBRANCH  12  13
ENDBRANCH   1  12
TORSDOF 4
ENDMDL