MODEL 3
REMARK VINA RESULT: -5.345434930      2.788      3.406
REMARK  5 active torsions:
REMARK  status: ('A' for Active; 'I' for Inactive)
REMARK    1  A    between atoms: C2_4  and  N2_5
REMARK    2  A    between atoms: C2_4  and  C3_10
REMARK    3  A    between atoms: N2_5  and  N3_7
REMARK    4  A    between atoms: N4_13  and  C6_14
REMARK    5  A    between atoms: C6_14  and  C7_15
ROOT
HETATM    1  C3  UNL     1      22.010  14.813  21.710  1.00  0.00     0.012 A
HETATM    2  C4  UNL     1      23.196  15.167  22.321  1.00  0.00     0.032 A
HETATM    3  C5  UNL     1      23.352  15.045  23.685  1.00  0.00     0.092 A
HETATM    4  N4  UNL     1      22.386  14.585  24.499  1.00  0.00    -0.360 N
HETATM    5  C8  UNL     1      21.221  14.234  23.929  1.00  0.00     0.092 A
HETATM    6  C9  UNL     1      21.020  14.339  22.569  1.00  0.00     0.032 A
ENDROOT
BRANCH   1   7
HETATM    7  C2  UNL     1      21.800  14.924  20.281  1.00  0.00     0.131 C
HETATM    8  N1  UNL     1      20.691  14.598  19.743  1.00  0.00    -0.379 N
HETATM    9  C1  UNL     1      20.381  14.668  18.352  1.00  0.00     0.147 C
ATOM     10  H1  UNL     1      19.959  14.255  20.364  1.00  0.00     0.160 HD
BRANCH   7  11
HETATM   11  N2  UNL     1      22.845  15.404  19.464  1.00  0.00    -0.225 N
ATOM     12  H2  UNL     1      23.458  14.743  18.987  1.00  0.00     0.195 HD
BRANCH  11  13
HETATM   13  N3  UNL     1      23.048  16.782  19.304  1.00  0.00    -0.037 N
HETATM   14  O1  UNL     1      22.665  17.406  18.297  1.00  0.00    -0.516 OA
HETATM   15  O2  UNL     1      23.695  17.500  20.281  1.00  0.00    -0.516 OA
ENDBRANCH  11  13
ENDBRANCH   7  11
ENDBRANCH   1   7
BRANCH   4  16
HETATM   16  C6  UNL     1      22.612  14.480  25.933  1.00  0.00     0.200 C
BRANCH  16  17
HETATM   17  C7  UNL     1      22.915  13.107  26.355  1.00  0.00     0.105 C
HETATM   18  N5  UNL     1      22.849  12.134  25.506  1.00  0.00    -0.390 N
ATOM     19  H52 UNL     1      22.582  12.356  24.547  1.00  0.00     0.157 HD
ATOM     20  H51 UNL     1      23.059  11.180  25.799  1.00  0.00     0.157 HD
HETATM   21  N6  UNL     1      23.286  12.799  27.691  1.00  0.00    -0.086 NA
ENDBRANCH  16  17
ENDBRANCH   4  16
TORSDOF 5
ENDMDL