MODEL 5
REMARK VINA RESULT: -5.839666621      1.785      3.660
REMARK  4 active torsions:
REMARK  status: ('A' for Active; 'I' for Inactive)
REMARK    1  A    between atoms: C5_8  and  C6_9
REMARK    2  A    between atoms: C6_9  and  C7_10
REMARK    3  A    between atoms: C7_10  and  N3_11
REMARK       I    between atoms: C8_13  and  N5_15
REMARK    4  A    between atoms: N5_15  and  C9_17
ROOT
HETATM    1  N3  UNL     1      18.240  11.730  58.610  1.00  0.00    -0.364 N
ATOM      2  H3  UNL     1      18.348  12.084  59.560  1.00  0.00     0.162 HD
HETATM    3  C8  UNL     1      18.394  12.540  57.631  1.00  0.00     0.202 C
HETATM    4  N4  UNL     1      18.272  12.187  56.264  1.00  0.00    -0.063 NA
HETATM    5  N5  UNL     1      18.708  13.890  57.933  1.00  0.00    -0.161 N
ATOM      6  H5  UNL     1      18.018  14.631  57.809  1.00  0.00     0.187 HD
ENDROOT
BRANCH   1   7
HETATM    7  C7  UNL     1      17.916  10.317  58.418  1.00  0.00     0.130 C
BRANCH   7   8
HETATM    8  C6  UNL     1      19.187   9.547  58.611  1.00  0.00     0.096 C
BRANCH   8   9
HETATM    9  C5  UNL     1      19.896   9.198  57.383  1.00  0.00     0.084 A
HETATM   10  N1  UNL     1      21.130   9.663  57.147  1.00  0.00    -0.351 N
HETATM   11  C1  UNL     1      21.767  10.513  58.121  1.00  0.00     0.156 C
HETATM   12  C2  UNL     1      21.803   9.350  56.003  1.00  0.00     0.093 A
HETATM   13  C3  UNL     1      21.228   8.540  55.050  1.00  0.00     0.034 A
HETATM   14  C4  UNL     1      19.957   8.071  55.312  1.00  0.00     0.090 A
HETATM   15  N2  UNL     1      19.318   8.399  56.451  1.00  0.00    -0.355 N
ATOM     16  H2  UNL     1      18.378   8.039  56.617  1.00  0.00     0.166 HD
ENDBRANCH   8   9
ENDBRANCH   7   8
ENDBRANCH   1   7
BRANCH   5  17
HETATM   17  C9  UNL     1      19.897  14.153  58.370  1.00  0.00     0.716 A
HETATM   18  N6  UNL     1      20.237  14.831  59.483  1.00  0.00    -0.115 N
HETATM   19  N7  UNL     1      21.553  14.860  59.537  1.00  0.00    -0.213 N
ATOM     20  H6  UNL     1      19.594  15.245  60.158  1.00  0.00     0.207 HD
HETATM   21  N8  UNL     1      22.075  14.235  58.514  1.00  0.00    -0.213 N
ATOM     22  H7  UNL     1      22.092  15.309  60.277  1.00  0.00     0.210 HD
HETATM   23  N9  UNL     1      21.069  13.799  57.793  1.00  0.00    -0.115 N
ATOM     24  H8  UNL     1      23.068  14.111  58.315  1.00  0.00     0.210 HD
ATOM     25  H9  UNL     1      21.157  13.270  56.924  1.00  0.00     0.207 HD
ENDBRANCH   5  17
TORSDOF 4
ENDMDL