MODEL 1
REMARK VINA RESULT: -3.839549161      0.000      0.000
REMARK  5 active torsions:
REMARK  status: ('A' for Active; 'I' for Inactive)
REMARK    1  A    between atoms: S1_2  and  C2_4
REMARK    2  A    between atoms: C2_4  and  C3_5
REMARK    3  A    between atoms: C3_5  and  O2_6
REMARK    4  A    between atoms: C8_13  and  O3_14
REMARK    5  A    between atoms: C9_16  and  O4_17
ROOT
HETATM    1  C3  UNL     1      19.178  12.553  56.865  1.00  0.00     0.121 C
HETATM    2  C4  UNL     1      19.989  11.333  57.140  1.00  0.00     0.277 C
HETATM    3  N1  UNL     1      19.292  10.173  57.533  1.00  0.00    -0.069 N
HETATM    4  C5  UNL     1      20.180   9.367  58.367  1.00  0.00     0.272 C
HETATM    5  C6  UNL     1      18.951   9.324  56.385  1.00  0.00     0.272 C
HETATM    6  C7  UNL     1      18.085  10.372  58.278  1.00  0.00     0.270 C
HETATM    7  C8  UNL     1      17.219  11.466  57.738  1.00  0.00     0.176 C
HETATM    8  C9  UNL     1      18.067  12.740  57.875  1.00  0.00     0.185 C
ENDROOT
BRANCH   1   9
HETATM    9  C2  UNL     1      20.078  13.765  56.955  1.00  0.00     0.150 C
BRANCH   9  10
HETATM   10  S1  UNL     1      21.562  13.512  57.842  1.00  0.00     0.013 S
HETATM   11  C1  UNL     1      22.961  13.119  56.879  1.00  0.00     0.127 C
HETATM   12  O1  UNL     1      21.828  14.578  59.079  1.00  0.00    -0.258 OA
ENDBRANCH   9  10
ENDBRANCH   1   9
BRANCH   1  13
HETATM   13  O2  UNL     1      18.583  12.471  55.615  1.00  0.00    -0.385 OA
ATOM     14  H2  UNL     1      18.164  13.293  55.385  1.00  0.00     0.210 HD
ENDBRANCH   1  13
BRANCH   8  15
HETATM   15  O4  UNL     1      18.541  12.743  59.179  1.00  0.00    -0.390 OA
ATOM     16  H4  UNL     1      17.994  12.228  59.760  1.00  0.00     0.210 HD
ENDBRANCH   8  15
BRANCH   7  17
HETATM   17  O3  UNL     1      16.038  11.547  58.418  1.00  0.00    -0.391 OA
ATOM     18  H3  UNL     1      15.330  11.143  57.931  1.00  0.00     0.210 HD
ENDBRANCH   7  17
TORSDOF 5
ENDMDL