MODEL 2
REMARK VINA RESULT: -4.407709935      1.997      2.114
REMARK  5 active torsions:
REMARK  status: ('A' for Active; 'I' for Inactive)
REMARK    1  A    between atoms: S1_2  and  C2_4
REMARK    2  A    between atoms: C2_4  and  C3_5
REMARK    3  A    between atoms: C4_9  and  N2_10
REMARK    4  A    between atoms: C8_16  and  O2_17
REMARK    5  A    between atoms: C9_19  and  O3_20
ROOT
HETATM    1  C3  UNL     1      21.793  11.874  57.623  1.00  0.00     0.231 C
HETATM    2  N1  UNL     1      20.409  12.356  57.585  1.00  0.00    -0.044 N
ATOM      3  H11 UNL     1      19.942  12.343  58.492  1.00  0.00     0.280 HD
ATOM      4  H12 UNL     1      19.764  11.723  57.112  1.00  0.00     0.280 HD
HETATM    5  C4  UNL     1      20.489  13.676  56.980  1.00  0.00     0.323 C
HETATM    6  C8  UNL     1      21.602  13.590  55.988  1.00  0.00     0.199 C
HETATM    7  C9  UNL     1      22.561  12.549  56.561  1.00  0.00     0.182 C
ENDROOT
BRANCH   5   8
HETATM    8  N2  UNL     1      20.642  14.685  57.979  1.00  0.00    -0.321 N
HETATM    9  C5  UNL     1      21.470  15.743  57.932  1.00  0.00     0.111 A
HETATM   10  C6  UNL     1      21.295  16.453  59.102  1.00  0.00     0.106 A
HETATM   11  N3  UNL     1      20.368  15.824  59.845  1.00  0.00    -0.361 N
HETATM   12  C7  UNL     1      19.969  14.734  59.147  1.00  0.00     0.184 A
ATOM     13  H3  UNL     1      20.028  16.113  60.762  1.00  0.00     0.166 HD
ENDBRANCH   5   8
BRANCH   6  14
HETATM   14  O2  UNL     1      22.315  14.757  55.821  1.00  0.00    -0.389 OA
ATOM     15  H2  UNL     1      23.225  14.707  56.088  1.00  0.00     0.210 HD
ENDBRANCH   6  14
BRANCH   1  16
HETATM   16  C2  UNL     1      21.840  10.389  57.501  1.00  0.00     0.144 C
BRANCH  16  17
HETATM   17  S1  UNL     1      20.372   9.625  57.051  1.00  0.00     0.013 S
HETATM   18  C1  UNL     1      20.276   8.693  55.606  1.00  0.00     0.127 C
HETATM   19  O1  UNL     1      19.555   8.873  58.285  1.00  0.00    -0.258 OA
ENDBRANCH  16  17
ENDBRANCH   1  16
BRANCH   7  20
HETATM   20  O3  UNL     1      23.650  13.212  57.148  1.00  0.00    -0.391 OA
ATOM     21  H3  UNL     1      23.658  14.112  56.842  1.00  0.00     0.210 HD
ENDBRANCH   7  20
TORSDOF 5
ENDMDL