MODEL 3
REMARK VINA RESULT: -4.592731423      1.972      5.272
REMARK  8 active torsions:
REMARK  status: ('A' for Active; 'I' for Inactive)
REMARK    1  A    between atoms: C4_5  and  O1_6
REMARK    2  A    between atoms: C5_8  and  O2_9
REMARK    3  A    between atoms: C5_8  and  C6_11
REMARK    4  A    between atoms: C7_12  and  C8_13
REMARK    5  A    between atoms: C8_13  and  O3_14
REMARK    6  A    between atoms: O3_14  and  C9_15
REMARK    7  A    between atoms: C9_15  and  C10_16
REMARK    8  A    between atoms: C10_16  and  O4_17
ROOT
HETATM    1  C1  UNL     1      19.557   8.801  58.021  1.00  0.00     0.272 C
HETATM    2  N1  UNL     1      19.717  10.146  57.550  1.00  0.00    -0.068 N
HETATM    3  C2  UNL     1      21.078  10.606  57.626  1.00  0.00     0.272 C
HETATM    4  C3  UNL     1      19.261  10.329  56.185  1.00  0.00     0.272 C
HETATM    5  C4  UNL     1      19.129  11.850  56.078  1.00  0.00     0.192 C
HETATM    6  C5  UNL     1      18.545  12.195  57.416  1.00  0.00     0.172 C
HETATM    7  C11 UNL     1      18.801  10.990  58.293  1.00  0.00     0.290 C
ENDROOT
BRANCH   6   8
HETATM    8  O2  UNL     1      17.191  12.462  57.377  1.00  0.00    -0.373 OA
ATOM      9  H2  UNL     1      16.741  12.046  56.651  1.00  0.00     0.212 HD
ENDBRANCH   6   8
BRANCH   6  10
HETATM   10  C6  UNL     1      19.316  13.335  57.947  1.00  0.00    -0.061 C
HETATM   11  C7  UNL     1      19.948  14.275  58.363  1.00  0.00    -0.077 C
BRANCH  11  12
HETATM   12  C8  UNL     1      20.723  15.437  58.852  1.00  0.00     0.261 C
BRANCH  12  13
HETATM   13  O3  UNL     1      21.983  15.339  58.314  1.00  0.00    -0.377 OA
BRANCH  13  14
HETATM   14  C9  UNL     1      21.975  14.770  57.047  1.00  0.00     0.194 C
BRANCH  14  15
HETATM   15  C10 UNL     1      22.784  13.503  56.969  1.00  0.00     0.190 C
BRANCH  15  16
HETATM   16  O4  UNL     1      23.361  13.160  58.180  1.00  0.00    -0.399 OA
ATOM     17  H4  UNL     1      24.268  12.891  58.093  1.00  0.00     0.209 HD
ENDBRANCH  15  16
ENDBRANCH  14  15
ENDBRANCH  13  14
ENDBRANCH  12  13
ENDBRANCH  11  12
ENDBRANCH   6  10
BRANCH   5  18
HETATM   18  O1  UNL     1      18.154  12.095  55.114  1.00  0.00    -0.390 OA
ATOM     19  H1  UNL     1      18.507  11.784  54.288  1.00  0.00     0.210 HD
ENDBRANCH   5  18
TORSDOF 8
ENDMDL