MODEL 1
REMARK VINA RESULT: -4.558285297      0.000      0.000
REMARK  5 active torsions:
REMARK  status: ('A' for Active; 'I' for Inactive)
REMARK    1  A    between atoms: N1_2  and  C3_4
REMARK    2  A    between atoms: C5_9  and  N3_10
REMARK    3  A    between atoms: C6_14  and  N4_15
REMARK    4  A    between atoms: N4_15  and  S1_17
REMARK    5  A    between atoms: S1_17  and  N5_18
ROOT
HETATM    1  C3  UNL     1      20.120  13.341  57.187  1.00  0.00     0.443 C
HETATM    2  N2  UNL     1      19.823  14.278  58.284  1.00  0.00    -0.039 N
ATOM      3  H21 UNL     1      19.705  15.241  57.968  1.00  0.00     0.279 HD
ATOM      4  H22 UNL     1      20.619  14.439  58.901  1.00  0.00     0.279 HD
HETATM    5  C4  UNL     1      18.663  13.762  58.977  1.00  0.00     0.270 C
HETATM    6  C5  UNL     1      18.177  12.575  58.162  1.00  0.00     0.236 C
HETATM    7  C6  UNL     1      19.549  12.084  57.651  1.00  0.00     0.190 C
ENDROOT
BRANCH   7   8
HETATM    8  N4  UNL     1      19.346  10.996  56.839  1.00  0.00    -0.288 N
HETATM    9  C7  UNL     1      18.812  11.300  55.555  1.00  0.00     0.165 C
BRANCH   8  10
HETATM   10  S1  UNL     1      20.246   9.607  56.851  1.00  0.00     0.315 S
HETATM   11  O1  UNL     1      19.700   8.707  57.969  1.00  0.00    -0.183 OA
HETATM   12  O2  UNL     1      20.202   8.733  55.646  1.00  0.00    -0.183 OA
BRANCH  10  13
HETATM   13  N5  UNL     1      21.907   9.896  57.334  1.00  0.00    -0.311 N
ATOM     14  H52 UNL     1      22.708   9.553  56.804  1.00  0.00     0.170 HD
ATOM     15  H51 UNL     1      21.970  10.439  58.195  1.00  0.00     0.170 HD
ENDBRANCH  10  13
ENDBRANCH   8  10
ENDBRANCH   7   8
BRANCH   1  16
HETATM   16  N1  UNL     1      21.520  13.398  56.950  1.00  0.00     0.113 N
HETATM   17  C1  UNL     1      21.807  14.671  56.285  1.00  0.00     0.312 C
HETATM   18  C2  UNL     1      22.354  13.312  58.095  1.00  0.00     0.312 C
ENDBRANCH   1  16
BRANCH   6  19
HETATM   19  N3  UNL     1      17.509  11.586  58.939  1.00  0.00    -0.071 N
ATOM     20  H33 UNL     1      17.981  11.451  59.833  1.00  0.00     0.274 HD
ATOM     21  H32 UNL     1      16.611  11.936  59.272  1.00  0.00     0.274 HD
ATOM     22  H31 UNL     1      17.392  10.697  58.454  1.00  0.00     0.274 HD
ENDBRANCH   6  19
TORSDOF 5
ENDMDL