MODEL 3
REMARK VINA RESULT: -3.909619359      2.102      4.326
REMARK  6 active torsions:
REMARK  status: ('A' for Active; 'I' for Inactive)
REMARK    1  A    between atoms: O1_2  and  C2_3
REMARK    2  A    between atoms: C3_4  and  O2_5
REMARK    3  A    between atoms: C4_7  and  N1_8
REMARK    4  A    between atoms: N1_8  and  C5_9
REMARK    5  A    between atoms: C8_13  and  O4_14
REMARK    6  A    between atoms: C10_17  and  O5_18
ROOT
HETATM    1  C2  UNL     1      20.687  10.162  56.270  1.00  0.00     0.181 C
HETATM    2  C3  UNL     1      19.620  10.319  57.294  1.00  0.00     0.185 C
HETATM    3  C4  UNL     1      18.953  11.718  57.184  1.00  0.00     0.198 C
HETATM    4  C6  UNL     1      19.920  12.746  57.826  1.00  0.00     0.050 C
HETATM    5  C7  UNL     1      21.134  12.732  56.982  1.00  0.00     0.027 A
HETATM    6  C8  UNL     1      22.486  13.059  57.347  1.00  0.00     0.130 A
HETATM    7  C9  UNL     1      22.083  11.702  57.617  1.00  0.00     0.053 A
HETATM    8  C10 UNL     1      22.076  10.527  56.711  1.00  0.00     0.156 C
ENDROOT
BRANCH   3   9
HETATM    9  N1  UNL     1      17.742  11.670  57.754  1.00  0.00    -0.414 NA
BRANCH   9  10
HETATM   10  C5  UNL     1      16.516  11.620  58.331  1.00  0.00     0.435 C
HETATM   11  O3  UNL     1      16.129  11.157  59.428  1.00  0.00    -0.269 OA
ENDBRANCH   9  10
ENDBRANCH   3   9
BRANCH   2  12
HETATM   12  O2  UNL     1      19.955   9.996  58.580  1.00  0.00    -0.390 OA
ATOM     13  H2  UNL     1      19.896  10.694  59.221  1.00  0.00     0.210 HD
ENDBRANCH   2  12
BRANCH   1  14
HETATM   14  O1  UNL     1      20.720   8.822  55.857  1.00  0.00    -0.385 OA
HETATM   15  C1  UNL     1      19.513   8.177  56.151  1.00  0.00     0.202 C
ENDBRANCH   1  14
BRANCH   8  16
HETATM   16  O5  UNL     1      22.712   9.460  57.349  1.00  0.00    -0.392 OA
ATOM     17  H5  UNL     1      23.651   9.590  57.399  1.00  0.00     0.210 HD
ENDBRANCH   8  16
BRANCH   6  18
HETATM   18  O4  UNL     1      22.768  13.886  58.451  1.00  0.00    -0.395 OA
ATOM     19  H4  UNL     1      23.240  13.556  59.207  1.00  0.00     0.210 HD
ENDBRANCH   6  18
TORSDOF 6
ENDMDL