MODEL 2
REMARK VINA RESULT: -7.574516458      1.477      3.434
REMARK  6 active torsions:
REMARK  status: ('A' for Active; 'I' for Inactive)
REMARK    1  A    between atoms: O1_2  and  C2_3
REMARK    2  A    between atoms: C6_7  and  C7_8
REMARK    3  A    between atoms: C7_8  and  O2_10
REMARK    4  A    between atoms: C9_12  and  C10_13
REMARK    5  A    between atoms: C10_13  and  N1_14
REMARK    6  A    between atoms: N1_14  and  N2_16
ROOT
HETATM    1  C2  UNL     1      19.158  11.441  57.350  1.00  0.00     0.080 A
HETATM    2  C3  UNL     1      19.321  10.085  57.229  1.00  0.00     0.038 A
HETATM    3  C4  UNL     1      20.599   9.600  57.192  1.00  0.00     0.004 A
HETATM    4  C5  UNL     1      21.708  10.401  57.269  1.00  0.00     0.015 A
HETATM    5  C6  UNL     1      21.548  11.796  57.392  1.00  0.00     0.007 A
HETATM    6  C9  UNL     1      20.269  12.305  57.432  1.00  0.00     0.027 A
ENDROOT
BRANCH   6   7
HETATM    7  C10 UNL     1      20.005  13.589  57.545  1.00  0.00     0.122 C
BRANCH   7   8
HETATM    8  N1  UNL     1      19.416  14.167  58.732  1.00  0.00    -0.309 N
ATOM      9  H1  UNL     1      18.480  13.915  59.051  1.00  0.00     0.186 HD
BRANCH   8  10
HETATM   10  N2  UNL     1      20.212  15.097  59.415  1.00  0.00    -0.276 N
HETATM   11  C11 UNL     1      21.137  15.777  58.848  1.00  0.00     0.215 C
HETATM   12  N3  UNL     1      21.891  16.691  59.610  1.00  0.00    -0.065 NA
HETATM   13  N4  UNL     1      21.389  15.603  57.474  1.00  0.00    -0.065 NA
ATOM     14  H2  UNL     1      20.047  15.239  60.411  1.00  0.00     0.189 HD
ENDBRANCH   8  10
ENDBRANCH   7   8
ENDBRANCH   6   7
BRANCH   1  15
HETATM   15  O1  UNL     1      17.875  11.957  57.390  1.00  0.00    -0.355 OA
HETATM   16  C1  UNL     1      16.897  11.614  58.311  1.00  0.00     0.210 C
ENDBRANCH   1  15
BRANCH   5  17
HETATM   17  C7  UNL     1      22.631  12.541  57.464  1.00  0.00     0.050 C
HETATM   18  C8  UNL     1      23.396  12.765  56.177  1.00  0.00     0.077 C
BRANCH  17  19
HETATM   19  O2  UNL     1      23.157  13.146  58.573  1.00  0.00    -0.364 OA
ATOM     20  H2  UNL     1      23.565  12.730  59.323  1.00  0.00     0.217 HD
ENDBRANCH  17  19
ENDBRANCH   5  17
TORSDOF 6
ENDMDL