MODEL 1
REMARK VINA RESULT: -9.321518419      0.000      0.000
REMARK  11 active torsions:
REMARK  status: ('A' for Active; 'I' for Inactive)
REMARK    1  A    between atoms: C2_2  and  N1_3
REMARK    2  A    between atoms: C2_2  and  C11_18
REMARK       I    between atoms: N1_3  and  C3_5
REMARK       I    between atoms: C3_5  and  N2_7
REMARK    3  A    between atoms: N2_7  and  C4_9
REMARK    4  A    between atoms: C4_9  and  C5_10
REMARK    5  A    between atoms: C5_10  and  C6_11
REMARK    6  A    between atoms: C6_11  and  C7_12
REMARK    7  A    between atoms: C7_12  and  C8_13
REMARK    8  A    between atoms: C8_13  and  O3_15
REMARK    9  A    between atoms: O3_15  and  C9_16
REMARK   10  A    between atoms: C16_23  and  O4_24
REMARK   11  A    between atoms: C17_26  and  O5_27
ROOT
HETATM    1  C11 UNL     1      17.411  16.357  31.726  1.00  0.00     0.064 C
HETATM    2  C12 UNL     1      16.049  15.774  31.579  1.00  0.00     0.016 C
HETATM    3  C13 UNL     1      14.929  16.769  31.537  1.00  0.00     0.039 C
HETATM    4  C14 UNL     1      15.233  17.965  30.612  1.00  0.00     0.068 C
HETATM    5  C15 UNL     1      14.178  17.947  29.548  1.00  0.00     0.073 C
HETATM    6  C16 UNL     1      13.060  18.924  29.760  1.00  0.00     0.150 C
HETATM    7  C17 UNL     1      13.226  20.214  29.087  1.00  0.00     0.155 C
HETATM    8  C18 UNL     1      14.260  21.163  29.456  1.00  0.00    -0.008 C
HETATM    9  C19 UNL     1      14.105  22.414  28.564  1.00  0.00     0.019 C
HETATM   10  C20 UNL     1      15.666  20.687  29.515  1.00  0.00     0.018 C
HETATM   11  C21 UNL     1      15.496  20.497  30.998  1.00  0.00     0.002 C
HETATM   12  C22 UNL     1      15.267  19.167  31.506  1.00  0.00     0.025 C
HETATM   13  C23 UNL     1      16.407  18.852  32.509  1.00  0.00     0.010 C
HETATM   14  C24 UNL     1      17.690  18.764  31.732  1.00  0.00     0.033 C
HETATM   15  C25 UNL     1      17.523  17.543  30.814  1.00  0.00     0.132 C
HETATM   16  O6  UNL     1      16.436  17.676  30.000  1.00  0.00    -0.374 OA
HETATM   17  C26 UNL     1      14.387  21.491  30.926  1.00  0.00    -0.034 C
HETATM   18  C27 UNL     1      13.198  21.401  31.770  1.00  0.00     0.016 C
HETATM   19  C28 UNL     1      14.910  22.947  31.004  1.00  0.00     0.016 C
ENDROOT
BRANCH   1  20
HETATM   20  C2  UNL     1      18.396  15.274  31.371  1.00  0.00     0.011 C
HETATM   21  C1  UNL     1      19.300  15.593  30.481  1.00  0.00     0.039 C
BRANCH  20  22
HETATM   22  N1  UNL     1      18.313  14.015  31.985  1.00  0.00    -0.313 N
HETATM   23  C3  UNL     1      18.815  13.622  33.228  1.00  0.00     0.320 C
HETATM   24  O1  UNL     1      19.448  14.341  34.045  1.00  0.00    -0.247 OA
HETATM   25  N2  UNL     1      18.636  12.267  33.715  1.00  0.00    -0.343 N
ATOM     26  H2  UNL     1      18.127  11.616  33.115  1.00  0.00     0.164 HD
ATOM     27  H1  UNL     1      17.822  13.294  31.455  1.00  0.00     0.170 HD
BRANCH  25  28
HETATM   28  C4  UNL     1      19.111  11.774  34.956  1.00  0.00     0.124 C
BRANCH  28  29
HETATM   29  C5  UNL     1      18.876  10.287  35.185  1.00  0.00     0.020 C
BRANCH  29  30
HETATM   30  C6  UNL     1      17.419   9.961  35.142  1.00  0.00     0.011 C
BRANCH  30  31
HETATM   31  C7  UNL     1      16.607  10.466  36.279  1.00  0.00     0.111 C
BRANCH  31  32
HETATM   32  C8  UNL     1      15.600  11.482  35.934  1.00  0.00     0.258 C
HETATM   33  O2  UNL     1      14.368  11.305  36.068  1.00  0.00    -0.265 OA
BRANCH  32  34
HETATM   34  O3  UNL     1      15.981  12.727  35.426  1.00  0.00    -0.322 OA
BRANCH  34  35
HETATM   35  C9  UNL     1      15.420  13.928  35.963  1.00  0.00     0.174 C
HETATM   36  C10 UNL     1      16.022  15.096  35.224  1.00  0.00     0.034 C
ENDBRANCH  34  35
ENDBRANCH  32  34
ENDBRANCH  31  32
ENDBRANCH  30  31
ENDBRANCH  29  30
ENDBRANCH  28  29
ENDBRANCH  25  28
ENDBRANCH  20  22
ENDBRANCH   1  20
BRANCH   6  37
HETATM   37  O4  UNL     1      11.870  18.373  29.197  1.00  0.00    -0.393 OA
ATOM     38  H4  UNL     1      11.517  18.997  28.574  1.00  0.00     0.210 HD
ENDBRANCH   6  37
BRANCH   7  39
HETATM   39  O5  UNL     1      13.379  19.941  27.703  1.00  0.00    -0.392 OA
ATOM     40  H5  UNL     1      12.517  20.013  27.311  1.00  0.00     0.210 HD
ENDBRANCH   7  39
TORSDOF 11
ENDMDL