MODEL 4
REMARK VINA RESULT: -9.329227763      1.520      2.209
REMARK  10 active torsions:
REMARK  status: ('A' for Active; 'I' for Inactive)
REMARK    1  A    between atoms: C1_2  and  C2_3
REMARK       I    between atoms: C1_2  and  N4_27
REMARK    2  A    between atoms: C2_3  and  N1_4
REMARK    3  A    between atoms: C9_11  and  O2_12
REMARK    4  A    between atoms: N2_14  and  C10_15
REMARK    5  A    between atoms: C10_15  and  C11_16
REMARK    6  A    between atoms: C11_16  and  C12_17
REMARK    7  A    between atoms: C12_17  and  N3_18
REMARK    8  A    between atoms: C18_24  and  O3_25
REMARK    9  A    between atoms: N4_27  and  C19_29
REMARK   10  A    between atoms: C19_29  and  C20_30
ROOT
HETATM    1  N1  UNL     1      17.992  13.088  34.799  1.00  0.00    -0.368 N
HETATM    2  C3  UNL     1      19.094  12.116  34.796  1.00  0.00     0.123 C
HETATM    3  C4  UNL     1      18.611  10.750  34.376  1.00  0.00     0.020 C
HETATM    4  C5  UNL     1      17.891  10.151  35.571  1.00  0.00     0.006 C
HETATM    5  C6  UNL     1      16.407  10.330  35.483  1.00  0.00     0.045 C
HETATM    6  C7  UNL     1      16.049  11.743  35.762  1.00  0.00     0.024 A
HETATM    7  C8  UNL     1      16.746  12.894  35.459  1.00  0.00     0.093 A
HETATM    8  C9  UNL     1      16.016  13.966  35.915  1.00  0.00     0.172 A
HETATM    9  N2  UNL     1      14.883  13.462  36.493  1.00  0.00    -0.306 N
HETATM   10  C18 UNL     1      14.885  12.126  36.409  1.00  0.00     0.153 A
ENDROOT
BRANCH   1  11
HETATM   11  C2  UNL     1      18.210  14.312  34.077  1.00  0.00     0.225 C
BRANCH  11  12
HETATM   12  C1  UNL     1      17.500  14.364  32.787  1.00  0.00     0.235 C
HETATM   13  O1  UNL     1      17.739  13.464  31.945  1.00  0.00    -0.272 OA
HETATM   14  N4  UNL     1      16.576  15.384  32.492  1.00  0.00    -0.359 N
ATOM     15  H4  UNL     1      16.392  16.108  33.187  1.00  0.00     0.162 HD
BRANCH  14  16
HETATM   16  C19 UNL     1      15.887  15.426  31.233  1.00  0.00     0.132 C
BRANCH  16  17
HETATM   17  C20 UNL     1      15.243  16.756  30.971  1.00  0.00    -0.023 C
HETATM   18  C21 UNL     1      14.191  16.989  32.027  1.00  0.00     0.015 C
HETATM   19  C22 UNL     1      13.582  18.372  31.913  1.00  0.00    -0.013 C
HETATM   20  C23 UNL     1      12.877  18.426  30.569  1.00  0.00     0.009 C
HETATM   21  C27 UNL     1      14.601  19.471  31.978  1.00  0.00     0.009 C
HETATM   22  C24 UNL     1      13.922  18.199  29.512  1.00  0.00    -0.013 C
HETATM   23  C25 UNL     1      14.998  19.277  29.543  1.00  0.00     0.009 C
HETATM   24  C29 UNL     1      14.549  16.814  29.630  1.00  0.00     0.015 C
HETATM   25  C26 UNL     1      15.638  19.220  30.920  1.00  0.00    -0.013 C
HETATM   26  C28 UNL     1      16.265  17.857  31.065  1.00  0.00     0.015 C
ENDBRANCH  16  17
ENDBRANCH  14  16
ENDBRANCH  11  12
ENDBRANCH   1  11
BRANCH   8  27
HETATM   27  O2  UNL     1      16.366  15.307  35.810  1.00  0.00    -0.344 OA
ATOM     28  H2  UNL     1      16.287  15.966  36.491  1.00  0.00     0.219 HD
ENDBRANCH   8  27
BRANCH  10  29
HETATM   29  O3  UNL     1      13.914  11.268  36.877  1.00  0.00    -0.345 OA
ATOM     30  H3  UNL     1      13.170  11.520  37.412  1.00  0.00     0.219 HD
ENDBRANCH  10  29
BRANCH   9  31
HETATM   31  C10 UNL     1      13.868  14.287  37.081  1.00  0.00     0.135 C
BRANCH  31  32
HETATM   32  C11 UNL     1      13.108  13.631  38.202  1.00  0.00     0.050 C
BRANCH  32  33
HETATM   33  C12 UNL     1      13.604  13.999  39.561  1.00  0.00     0.274 C
BRANCH  33  34
HETATM   34  N3  UNL     1      12.718  13.611  40.626  1.00  0.00     0.088 N
HETATM   35  C13 UNL     1      12.403  12.209  40.667  1.00  0.00     0.272 C
HETATM   36  C14 UNL     1      13.614  11.371  41.047  1.00  0.00     0.030 C
HETATM   37  C15 UNL     1      14.008  11.811  42.453  1.00  0.00     0.003 C
HETATM   38  C16 UNL     1      14.371  13.259  42.401  1.00  0.00     0.030 C
HETATM   39  C17 UNL     1      13.198  14.091  41.918  1.00  0.00     0.272 C
ENDBRANCH  33  34
ENDBRANCH  32  33
ENDBRANCH  31  32
ENDBRANCH   9  31
TORSDOF 10
ENDMDL