MODEL 4
REMARK VINA RESULT: -8.879605171      2.628      9.099
REMARK  11 active torsions:
REMARK  status: ('A' for Active; 'I' for Inactive)
REMARK    1  A    between atoms: C3_3  and  O1_4
REMARK    2  A    between atoms: C4_6  and  C5_7
REMARK    3  A    between atoms: C5_7  and  C6_8
REMARK    4  A    between atoms: C6_8  and  C7_10
REMARK    5  A    between atoms: C11_16  and  C12_17
REMARK    6  A    between atoms: C12_17  and  C13_18
REMARK    7  A    between atoms: C12_17  and  O4_26
REMARK    8  A    between atoms: C13_18  and  C14_19
REMARK    9  A    between atoms: C15_20  and  C16_21
REMARK   10  A    between atoms: C16_21  and  O3_24
REMARK   11  A    between atoms: C22_30  and  O5_31
ROOT
HETATM    1  C7  UNL     1      17.343  13.906  34.154  1.00  0.00     0.142 C
HETATM    2  C8  UNL     1      16.804  14.751  35.317  1.00  0.00     0.134 C
HETATM    3  N1  UNL     1      15.424  14.501  35.395  1.00  0.00    -0.415 N
ATOM      4  H1  UNL     1      14.768  15.198  35.044  1.00  0.00     0.153 HD
HETATM    5  C9  UNL     1      14.935  13.310  35.947  1.00  0.00     0.086 C
HETATM    6  C10 UNL     1      14.124  13.724  37.155  1.00  0.00     0.062 C
HETATM    7  C11 UNL     1      13.651  12.669  38.027  1.00  0.00    -0.046 C
HETATM    8  C20 UNL     1      14.034  11.430  37.926  1.00  0.00    -0.064 C
HETATM    9  C21 UNL     1      13.548  10.367  38.833  1.00  0.00     0.067 C
HETATM   10  C22 UNL     1      14.559   9.239  39.033  1.00  0.00     0.122 C
HETATM   11  C23 UNL     1      15.091   8.769  37.735  1.00  0.00     0.033 C
HETATM   12  C24 UNL     1      15.838   9.914  37.041  1.00  0.00     0.016 C
HETATM   13  C25 UNL     1      14.951  11.083  36.818  1.00  0.00    -0.014 C
HETATM   14  C26 UNL     1      14.041  10.718  35.647  1.00  0.00     0.020 C
HETATM   15  C27 UNL     1      15.862  12.257  36.410  1.00  0.00     0.027 C
HETATM   16  C28 UNL     1      16.840  11.687  35.478  1.00  0.00     0.086 C
HETATM   17  C29 UNL     1      17.729  12.631  34.782  1.00  0.00     0.140 C
HETATM   18  O6  UNL     1      18.918  12.374  34.691  1.00  0.00    -0.297 OA
ENDROOT
BRANCH   7  19
HETATM   19  C12 UNL     1      12.625  13.153  39.096  1.00  0.00     0.153 C
BRANCH  19  20
HETATM   20  C13 UNL     1      11.521  13.710  38.342  1.00  0.00     0.063 C
BRANCH  20  21
HETATM   21  C14 UNL     1      10.142  13.403  38.707  1.00  0.00    -0.025 C
HETATM   22  C15 UNL     1       9.083  13.342  37.956  1.00  0.00     0.006 C
BRANCH  22  23
HETATM   23  C16 UNL     1       7.754  12.995  38.612  1.00  0.00     0.068 C
HETATM   24  C17 UNL     1       6.694  13.269  37.575  1.00  0.00     0.050 C
HETATM   25  C18 UNL     1       7.725  11.550  39.014  1.00  0.00     0.050 C
BRANCH  23  26
HETATM   26  O3  UNL     1       7.517  13.811  39.710  1.00  0.00    -0.387 OA
ATOM     27  H3  UNL     1       6.857  14.465  39.509  1.00  0.00     0.211 HD
ENDBRANCH  23  26
ENDBRANCH  22  23
ENDBRANCH  20  21
ENDBRANCH  19  20
BRANCH  19  28
HETATM   28  O4  UNL     1      13.258  13.765  40.101  1.00  0.00    -0.386 OA
HETATM   29  C19 UNL     1      13.001  13.107  41.328  1.00  0.00     0.202 C
ENDBRANCH  19  28
ENDBRANCH   7  19
BRANCH  10  30
HETATM   30  O5  UNL     1      13.903   8.184  39.660  1.00  0.00    -0.395 OA
ATOM     31  H5  UNL     1      13.116   8.531  40.065  1.00  0.00     0.210 HD
ENDBRANCH  10  30
BRANCH   1  32
HETATM   32  C6  UNL     1      18.405  14.596  33.422  1.00  0.00     0.140 C
HETATM   33  O2  UNL     1      19.248  15.225  34.021  1.00  0.00    -0.297 OA
BRANCH  32  34
HETATM   34  C5  UNL     1      18.415  14.499  31.939  1.00  0.00     0.091 C
BRANCH  34  35
HETATM   35  C4  UNL     1      17.023  14.632  31.343  1.00  0.00     0.056 A
HETATM   36  C2  UNL     1      16.376  15.938  31.646  1.00  0.00    -0.053 A
HETATM   37  C1  UNL     1      15.814  16.855  32.390  1.00  0.00     0.017 C
HETATM   38  C3  UNL     1      16.833  15.542  30.237  1.00  0.00     0.155 A
BRANCH  38  39
HETATM   39  O1  UNL     1      17.909  16.227  29.714  1.00  0.00    -0.391 OA
ATOM     40  H1  UNL     1      17.718  17.001  29.197  1.00  0.00     0.210 HD
ENDBRANCH  38  39
ENDBRANCH  34  35
ENDBRANCH  32  34
ENDBRANCH   1  32
TORSDOF 11
ENDMDL