MODEL 4
REMARK VINA RESULT: -8.995679371      1.481      2.821
REMARK  12 active torsions:
REMARK  status: ('A' for Active; 'I' for Inactive)
REMARK    1  A    between atoms: C2_2  and  N1_4
REMARK    2  A    between atoms: N1_4  and  C3_6
REMARK    3  A    between atoms: C5_8  and  O1_9
REMARK    4  A    between atoms: O1_9  and  C6_10
REMARK    5  A    between atoms: C6_10  and  C7_11
REMARK    6  A    between atoms: C12_16  and  C13_17
REMARK    7  A    between atoms: C13_17  and  C16_20
REMARK    8  A    between atoms: C16_20  and  O2_21
REMARK    9  A    between atoms: C17_23  and  O3_24
REMARK   10  A    between atoms: C18_26  and  O4_27
REMARK   11  A    between atoms: O4_27  and  C19_28
REMARK   12  A    between atoms: C24_33  and  O5_34
ROOT
HETATM    1  C3  UNL     1      18.292  16.581  32.597  1.00  0.00     0.095 C
HETATM    2  C4  UNL     1      17.663  15.900  33.755  1.00  0.00     0.060 C
HETATM    3  C5  UNL     1      16.166  15.895  33.511  1.00  0.00     0.155 C
HETATM    4  C17 UNL     1      15.703  17.324  33.655  1.00  0.00     0.176 C
HETATM    5  C18 UNL     1      16.239  18.081  32.459  1.00  0.00     0.163 C
HETATM    6  C26 UNL     1      17.728  17.927  32.283  1.00  0.00     0.002 C
HETATM    7  C27 UNL     1      18.034  18.203  30.818  1.00  0.00     0.020 C
HETATM    8  C28 UNL     1      18.456  18.962  33.122  1.00  0.00     0.020 C
ENDROOT
BRANCH   3   9
HETATM    9  O1  UNL     1      15.474  14.978  34.228  1.00  0.00    -0.379 OA
BRANCH   9  10
HETATM   10  C6  UNL     1      16.028  14.678  35.478  1.00  0.00     0.207 C
BRANCH  10  11
HETATM   11  C7  UNL     1      16.148  13.248  35.715  1.00  0.00    -0.027 A
HETATM   12  C8  UNL     1      17.290  12.652  35.157  1.00  0.00     0.010 A
HETATM   13  C9  UNL     1      17.543  11.308  35.298  1.00  0.00     0.001 A
HETATM   14  C10 UNL     1      16.657  10.523  36.003  1.00  0.00     0.001 A
HETATM   15  C11 UNL     1      15.531  11.116  36.553  1.00  0.00     0.008 A
HETATM   16  C12 UNL     1      15.244  12.464  36.430  1.00  0.00    -0.040 A
BRANCH  16  17
HETATM   17  C13 UNL     1      14.068  13.092  37.032  1.00  0.00     0.001 C
HETATM   18  C14 UNL     1      12.849  13.145  36.126  1.00  0.00     0.022 C
HETATM   19  C15 UNL     1      14.348  14.406  37.702  1.00  0.00     0.022 C
BRANCH  17  20
HETATM   20  C16 UNL     1      13.578  12.170  38.171  1.00  0.00     0.177 C
BRANCH  20  21
HETATM   21  O2  UNL     1      13.280  12.891  39.322  1.00  0.00    -0.400 OA
ATOM     22  H2  UNL     1      13.353  12.352  40.102  1.00  0.00     0.209 HD
ENDBRANCH  20  21
ENDBRANCH  17  20
ENDBRANCH  16  17
ENDBRANCH  10  11
ENDBRANCH   9  10
ENDBRANCH   3   9
BRANCH   4  23
HETATM   23  O3  UNL     1      14.313  17.283  33.618  1.00  0.00    -0.390 OA
ATOM     24  H3  UNL     1      14.062  17.642  32.775  1.00  0.00     0.210 HD
ENDBRANCH   4  23
BRANCH   1  25
HETATM   25  N1  UNL     1      18.367  15.715  31.443  1.00  0.00    -0.379 N
ATOM     26  H1  UNL     1      19.146  15.859  30.802  1.00  0.00     0.160 HD
BRANCH  25  27
HETATM   27  C2  UNL     1      17.451  14.683  31.128  1.00  0.00     0.069 C
HETATM   28  C1  UNL     1      17.598  13.291  31.623  1.00  0.00     0.081 C
HETATM   29  S1  UNL     1      16.147  14.983  30.202  1.00  0.00    -0.066 SA
ENDBRANCH  25  27
ENDBRANCH   1  25
BRANCH   5  30
HETATM   30  O4  UNL     1      16.017  19.428  32.635  1.00  0.00    -0.377 OA
BRANCH  30  31
HETATM   31  C19 UNL     1      15.253  20.102  31.757  1.00  0.00     0.124 C
HETATM   32  C20 UNL     1      14.755  19.347  30.552  1.00  0.00     0.032 C
HETATM   33  C21 UNL     1      13.795  20.295  29.827  1.00  0.00     0.009 C
HETATM   34  C22 UNL     1      14.429  21.573  29.403  1.00  0.00     0.010 C
HETATM   35  C23 UNL     1      13.301  22.526  29.016  1.00  0.00     0.012 C
HETATM   36  C24 UNL     1      15.242  22.252  30.464  1.00  0.00     0.124 C
HETATM   37  C25 UNL     1      16.082  21.245  31.209  1.00  0.00     0.064 C
BRANCH  36  38
HETATM   38  O5  UNL     1      14.483  23.039  31.322  1.00  0.00    -0.395 OA
ATOM     39  H5  UNL     1      14.467  22.717  32.215  1.00  0.00     0.210 HD
ENDBRANCH  36  38
ENDBRANCH  30  31
ENDBRANCH   5  30
TORSDOF 12
ENDMDL