MODEL 2
REMARK VINA RESULT: -9.076644784      2.765      3.953
REMARK  10 active torsions:
REMARK  status: ('A' for Active; 'I' for Inactive)
REMARK       I    between atoms: N1_2  and  C2_4
REMARK    1  A    between atoms: C2_4  and  C3_6
REMARK    2  A    between atoms: C3_6  and  O2_7
REMARK    3  A    between atoms: O2_7  and  C4_8
REMARK    4  A    between atoms: C4_8  and  C5_10
REMARK    5  A    between atoms: C5_10  and  C6_11
REMARK    6  A    between atoms: C6_11  and  C7_12
REMARK    7  A    between atoms: C20_25  and  O4_26
REMARK    8  A    between atoms: C21_28  and  C22_29
REMARK    9  A    between atoms: N2_30  and  N3_32
REMARK   10  A    between atoms: N3_32  and  C23_34
ROOT
HETATM    1  C7  UNL     1      17.319  18.854  31.932  1.00  0.00    -0.002 C
HETATM    2  C8  UNL     1      18.493  18.705  32.887  1.00  0.00     0.024 C
HETATM    3  C9  UNL     1      17.699  18.577  30.554  1.00  0.00    -0.013 C
HETATM    4  C10 UNL     1      17.214  17.439  29.747  1.00  0.00     0.001 C
HETATM    5  C11 UNL     1      15.874  16.879  29.742  1.00  0.00    -0.061 C
HETATM    6  C12 UNL     1      14.890  18.056  30.022  1.00  0.00    -0.016 C
HETATM    7  C13 UNL     1      13.533  17.647  29.453  1.00  0.00     0.020 C
HETATM    8  C14 UNL     1      15.224  19.250  29.200  1.00  0.00     0.020 C
HETATM    9  C15 UNL     1      14.966  18.064  31.495  1.00  0.00     0.027 C
HETATM   10  C16 UNL     1      13.989  16.967  31.975  1.00  0.00     0.011 C
HETATM   11  C17 UNL     1      14.156  15.709  31.228  1.00  0.00     0.017 C
HETATM   12  C18 UNL     1      15.430  15.628  30.369  1.00  0.00     0.007 C
HETATM   13  C19 UNL     1      15.049  14.595  29.273  1.00  0.00     0.023 C
HETATM   14  C20 UNL     1      16.349  14.828  31.255  1.00  0.00     0.143 C
HETATM   15  C21 UNL     1      16.415  15.310  32.684  1.00  0.00     0.078 C
HETATM   16  C24 UNL     1      16.879  16.700  32.650  1.00  0.00    -0.010 C
HETATM   17  C25 UNL     1      16.164  17.893  32.286  1.00  0.00    -0.066 C
ENDROOT
BRANCH   1  18
HETATM   18  C6  UNL     1      16.839  20.229  32.324  1.00  0.00     0.027 C
BRANCH  18  19
HETATM   19  C5  UNL     1      17.613  21.378  31.807  1.00  0.00     0.112 C
BRANCH  19  20
HETATM   20  C4  UNL     1      16.692  22.407  31.251  1.00  0.00     0.259 C
HETATM   21  O3  UNL     1      16.539  23.471  31.898  1.00  0.00    -0.265 OA
BRANCH  20  22
HETATM   22  O2  UNL     1      16.004  22.254  30.073  1.00  0.00    -0.312 OA
BRANCH  22  23
HETATM   23  C3  UNL     1      14.890  23.033  29.696  1.00  0.00     0.281 C
BRANCH  23  24
HETATM   24  C2  UNL     1      13.663  22.235  29.942  1.00  0.00     0.241 C
HETATM   25  N1  UNL     1      13.469  21.531  31.162  1.00  0.00    -0.364 N
HETATM   26  C1  UNL     1      12.301  20.752  31.434  1.00  0.00     0.149 C
ATOM     27  H1  UNL     1      14.195  21.585  31.876  1.00  0.00     0.161 HD
HETATM   28  O1  UNL     1      12.755  22.153  29.077  1.00  0.00    -0.271 OA
ENDBRANCH  23  24
ENDBRANCH  22  23
ENDBRANCH  20  22
ENDBRANCH  19  20
ENDBRANCH  18  19
ENDBRANCH   1  18
BRANCH  15  29
HETATM   29  C22 UNL     1      17.541  14.503  33.316  1.00  0.00     0.091 C
HETATM   30  N2  UNL     1      17.655  13.257  33.276  1.00  0.00    -0.313 N
ATOM     31  H2  UNL     1      16.956  12.695  32.789  1.00  0.00     0.185 HD
BRANCH  30  32
HETATM   32  N3  UNL     1      18.739  12.635  33.898  1.00  0.00    -0.279 N
ATOM     33  H3  UNL     1      19.685  12.927  33.651  1.00  0.00     0.189 HD
BRANCH  32  34
HETATM   34  C23 UNL     1      18.571  11.609  34.864  1.00  0.00     0.199 C
HETATM   35  N4  UNL     1      19.630  10.755  35.276  1.00  0.00    -0.068 NA
HETATM   36  S1  UNL     1      17.112  11.373  35.549  1.00  0.00    -0.043 SA
ENDBRANCH  32  34
ENDBRANCH  30  32
ENDBRANCH  15  29
BRANCH  14  37
HETATM   37  O4  UNL     1      17.498  14.374  30.707  1.00  0.00    -0.393 OA
ATOM     38  H4  UNL     1      17.827  13.538  31.016  1.00  0.00     0.210 HD
ENDBRANCH  14  37
TORSDOF 10
ENDMDL