MODEL 5
REMARK VINA RESULT: -9.645576426      2.511      3.694
REMARK  12 active torsions:
REMARK  status: ('A' for Active; 'I' for Inactive)
REMARK    1  A    between atoms: C2_2  and  C3_4
REMARK    2  A    between atoms: C4_5  and  O2_6
REMARK    3  A    between atoms: C12_15  and  N1_16
REMARK       I    between atoms: N1_16  and  C14_18
REMARK    4  A    between atoms: C14_18  and  C15_20
REMARK    5  A    between atoms: C15_20  and  C16_21
REMARK    6  A    between atoms: C16_21  and  C17_22
REMARK    7  A    between atoms: C17_22  and  C18_23
REMARK    8  A    between atoms: C18_23  and  C19_24
REMARK    9  A    between atoms: C19_24  and  C20_25
REMARK   10  A    between atoms: C20_25  and  O4_26
REMARK   11  A    between atoms: N2_28  and  O5_30
REMARK   12  A    between atoms: C28_39  and  O6_40
ROOT
HETATM    1  C3  UNL     1      14.016  21.183  29.841  1.00  0.00     0.082 A
HETATM    2  C4  UNL     1      14.615  21.506  31.182  1.00  0.00     0.138 C
HETATM    3  C5  UNL     1      15.581  20.523  31.706  1.00  0.00     0.038 C
HETATM    4  C6  UNL     1      15.533  19.159  31.123  1.00  0.00    -0.002 C
HETATM    5  C7  UNL     1      16.090  18.070  32.015  1.00  0.00     0.001 C
HETATM    6  C8  UNL     1      17.098  17.220  31.321  1.00  0.00     0.010 C
HETATM    7  C9  UNL     1      16.911  15.761  31.284  1.00  0.00    -0.016 C
HETATM    8  C10 UNL     1      16.481  15.248  29.896  1.00  0.00     0.010 C
HETATM    9  C11 UNL     1      16.061  15.163  32.342  1.00  0.00     0.030 C
HETATM   10  C12 UNL     1      15.783  16.160  33.435  1.00  0.00     0.095 C
HETATM   11  C21 UNL     1      15.072  17.360  32.864  1.00  0.00    -0.019 C
HETATM   12  C22 UNL     1      14.739  18.230  34.097  1.00  0.00     0.018 C
HETATM   13  C23 UNL     1      13.770  17.071  32.232  1.00  0.00     0.012 C
HETATM   14  C24 UNL     1      13.218  18.260  31.489  1.00  0.00     0.007 C
HETATM   15  C25 UNL     1      14.221  18.762  30.503  1.00  0.00     0.002 C
HETATM   16  C26 UNL     1      13.726  19.794  29.560  1.00  0.00     0.007 A
HETATM   17  C27 UNL     1      13.621  19.422  28.075  1.00  0.00     0.020 C
HETATM   18  C28 UNL     1      12.556  20.679  29.987  1.00  0.00     0.147 A
ENDROOT
BRANCH  10  19
HETATM   19  N1  UNL     1      15.223  15.577  34.602  1.00  0.00    -0.351 N
HETATM   20  C13 UNL     1      13.879  15.934  35.002  1.00  0.00     0.153 C
HETATM   21  C14 UNL     1      15.900  14.602  35.413  1.00  0.00     0.219 C
HETATM   22  O3  UNL     1      15.327  14.148  36.434  1.00  0.00    -0.273 OA
BRANCH  21  23
HETATM   23  C15 UNL     1      17.247  14.109  35.096  1.00  0.00     0.103 C
BRANCH  23  24
HETATM   24  C16 UNL     1      17.316  12.746  34.509  1.00  0.00     0.009 C
BRANCH  24  25
HETATM   25  C17 UNL     1      17.977  11.700  35.339  1.00  0.00     0.001 C
BRANCH  25  26
HETATM   26  C18 UNL     1      17.145  10.459  35.550  1.00  0.00     0.008 C
BRANCH  26  27
HETATM   27  C19 UNL     1      15.919  10.729  36.389  1.00  0.00     0.086 C
BRANCH  27  28
HETATM   28  C20 UNL     1      14.771   9.898  35.985  1.00  0.00     0.135 C
HETATM   29  N2  UNL     1      14.916   8.852  35.254  1.00  0.00    -0.251 N
ATOM     30  H2  UNL     1      15.857   8.601  34.953  1.00  0.00     0.196 HD
BRANCH  28  31
HETATM   31  O4  UNL     1      13.500  10.247  36.399  1.00  0.00    -0.348 OA
ATOM     32  H4  UNL     1      13.392  10.908  37.072  1.00  0.00     0.219 HD
ENDBRANCH  28  31
BRANCH  29  33
HETATM   33  O5  UNL     1      13.884   8.061  34.860  1.00  0.00    -0.288 OA
ATOM     34  H5  UNL     1      13.985   7.150  34.612  1.00  0.00     0.244 HD
ENDBRANCH  29  33
ENDBRANCH  27  28
ENDBRANCH  26  27
ENDBRANCH  25  26
ENDBRANCH  24  25
ENDBRANCH  23  24
ENDBRANCH  21  23
ENDBRANCH  10  19
BRANCH   2  35
HETATM   35  O2  UNL     1      13.609  21.789  32.138  1.00  0.00    -0.394 OA
ATOM     36  H2  UNL     1      13.823  22.564  32.643  1.00  0.00     0.210 HD
ENDBRANCH   2  35
BRANCH   1  37
HETATM   37  C2  UNL     1      14.208  22.169  28.739  1.00  0.00     0.137 C
HETATM   38  C1  UNL     1      15.227  22.037  27.678  1.00  0.00     0.092 C
HETATM   39  O1  UNL     1      13.477  23.142  28.715  1.00  0.00    -0.297 OA
ENDBRANCH   1  37
BRANCH  18  40
HETATM   40  O6  UNL     1      11.658  21.138  29.038  1.00  0.00    -0.393 OA
ATOM     41  H6  UNL     1      11.821  22.010  28.697  1.00  0.00     0.210 HD
ENDBRANCH  18  40
TORSDOF 12
ENDMDL