MODEL 4
REMARK VINA RESULT: -6.807952856      1.949      4.469
REMARK  14 active torsions:
REMARK  status: ('A' for Active; 'I' for Inactive)
REMARK    1  A    between atoms: C2_2  and  C3_3
REMARK    2  A    between atoms: C3_3  and  C5_5
REMARK    3  A    between atoms: C3_3  and  C6_8
REMARK    4  A    between atoms: C5_5  and  O1_6
REMARK    5  A    between atoms: C6_8  and  C7_9
REMARK    6  A    between atoms: C7_9  and  C8_10
REMARK    7  A    between atoms: C8_10  and  C9_11
REMARK    8  A    between atoms: C10_12  and  C11_13
REMARK    9  A    between atoms: C12_14  and  O2_16
REMARK   10  A    between atoms: C20_24  and  O3_25
REMARK   11  A    between atoms: C21_27  and  O4_28
REMARK   12  A    between atoms: C24_31  and  O5_32
REMARK   13  A    between atoms: O5_32  and  C25_33
REMARK   14  A    between atoms: C27_36  and  C29_38
ROOT
HETATM    1  C11 UNL     1      14.800  12.068  36.779  1.00  0.00     0.057 C
HETATM    2  C12 UNL     1      13.730  13.030  36.971  1.00  0.00     0.067 C
HETATM    3  C13 UNL     1      14.396  14.300  37.561  1.00  0.00     0.047 C
HETATM    4  C14 UNL     1      12.561  12.580  37.828  1.00  0.00     0.034 C
HETATM    5  C15 UNL     1      11.279  12.843  37.095  1.00  0.00    -0.002 A
HETATM    6  C16 UNL     1      10.645  14.234  37.280  1.00  0.00     0.011 A
HETATM    7  C17 UNL     1      10.019  12.937  37.735  1.00  0.00    -0.003 A
HETATM    8  C18 UNL     1       9.816  12.687  39.164  1.00  0.00     0.017 C
HETATM    9  C19 UNL     1      10.007  13.861  40.094  1.00  0.00     0.013 C
HETATM   10  C20 UNL     1      10.474  11.427  39.697  1.00  0.00     0.151 C
HETATM   11  C21 UNL     1      11.280  10.700  38.630  1.00  0.00     0.157 C
HETATM   12  C23 UNL     1      12.672  11.280  38.516  1.00  0.00     0.055 C
HETATM   13  C24 UNL     1      13.643  10.274  38.066  1.00  0.00     0.151 C
HETATM   14  C27 UNL     1      14.417  10.618  36.807  1.00  0.00     0.010 C
HETATM   15  C28 UNL     1      13.732  10.177  35.539  1.00  0.00     0.023 C
ENDROOT
BRANCH   1  16
HETATM   16  C10 UNL     1      15.556  12.306  35.543  1.00  0.00    -0.010 C
HETATM   17  C9  UNL     1      16.864  12.700  35.542  1.00  0.00     0.047 C
BRANCH  17  18
HETATM   18  C8  UNL     1      17.566  12.915  34.413  1.00  0.00    -0.156 C
BRANCH  18  19
HETATM   19  C7  UNL     1      18.242  13.123  33.321  1.00  0.00     0.086 C
BRANCH  19  20
HETATM   20  C6  UNL     1      19.094  14.381  33.237  1.00  0.00     0.027 C
BRANCH  20  21
HETATM   21  C3  UNL     1      18.847  15.145  31.982  1.00  0.00    -0.005 C
HETATM   22  C4  UNL     1      17.704  14.564  31.171  1.00  0.00     0.021 C
BRANCH  21  23
HETATM   23  C2  UNL     1      18.596  16.585  32.221  1.00  0.00    -0.026 C
HETATM   24  C1  UNL     1      17.477  16.953  32.819  1.00  0.00     0.008 C
ENDBRANCH  21  23
BRANCH  21  25
HETATM   25  C5  UNL     1      20.093  15.071  31.095  1.00  0.00     0.177 C
BRANCH  25  26
HETATM   26  O1  UNL     1      21.161  14.609  31.841  1.00  0.00    -0.400 OA
ATOM     27  H1  UNL     1      21.959  15.030  31.544  1.00  0.00     0.209 HD
ENDBRANCH  25  26
ENDBRANCH  21  25
ENDBRANCH  20  21
ENDBRANCH  19  20
ENDBRANCH  18  19
ENDBRANCH  17  18
ENDBRANCH   1  16
BRANCH   2  28
HETATM   28  O2  UNL     1      13.181  13.535  35.776  1.00  0.00    -0.389 OA
ATOM     29  H2  UNL     1      12.434  13.046  35.451  1.00  0.00     0.210 HD
ENDBRANCH   2  28
BRANCH  14  30
HETATM   30  C29 UNL     1      15.679   9.826  36.845  1.00  0.00    -0.024 C
HETATM   31  C30 UNL     1      15.983   8.901  35.963  1.00  0.00     0.008 C
ENDBRANCH  14  30
BRANCH  13  32
HETATM   32  O5  UNL     1      14.583   9.952  39.110  1.00  0.00    -0.315 OA
BRANCH  32  33
HETATM   33  C25 UNL     1      14.280   9.453  40.331  1.00  0.00     0.255 C
HETATM   34  C26 UNL     1      14.369  10.285  41.572  1.00  0.00     0.126 C
HETATM   35  O6  UNL     1      13.915   8.275  40.436  1.00  0.00    -0.266 OA
ENDBRANCH  32  33
ENDBRANCH  13  32
BRANCH  11  36
HETATM   36  O4  UNL     1      11.351   9.367  38.812  1.00  0.00    -0.388 OA
HETATM   37  C22 UNL     1      10.158   8.703  39.011  1.00  0.00     0.202 C
ENDBRANCH  11  36
BRANCH  10  38
HETATM   38  O3  UNL     1      11.243  11.725  40.818  1.00  0.00    -0.393 OA
ATOM     39  H3  UNL     1      11.839  11.010  41.006  1.00  0.00     0.210 HD
ENDBRANCH  10  38
TORSDOF 14
ENDMDL