MODEL 2
REMARK VINA RESULT: -7.179802805      5.693      8.607
REMARK  12 active torsions:
REMARK  status: ('A' for Active; 'I' for Inactive)
REMARK    1  A    between atoms: C3_3  and  C4_4
REMARK    2  A    between atoms: C4_4  and  O1_5
REMARK    3  A    between atoms: C7_9  and  C8_10
REMARK    4  A    between atoms: C8_10  and  C9_11
REMARK    5  A    between atoms: C8_10  and  C12_16
REMARK    6  A    between atoms: C9_11  and  C10_12
REMARK    7  A    between atoms: C10_12  and  C11_13
REMARK    8  A    between atoms: C12_16  and  C13_17
REMARK    9  A    between atoms: C13_17  and  O3_18
REMARK   10  A    between atoms: C13_17  and  C14_20
REMARK   11  A    between atoms: C14_20  and  O4_23
REMARK   12  A    between atoms: C25_34  and  C26_35
ROOT
HETATM    1  C1  UNL     1      13.834   7.159  39.061  1.00  0.00     0.112 C
HETATM    2  C2  UNL     1      13.965   8.436  38.355  1.00  0.00    -0.108 C
HETATM    3  C3  UNL     1      14.056   9.504  37.770  1.00  0.00    -0.068 C
ENDROOT
BRANCH   3   4
HETATM    4  C4  UNL     1      14.189  10.771  37.100  1.00  0.00     0.126 C
HETATM    5  C5  UNL     1      15.710  11.016  37.041  1.00  0.00     0.056 C
HETATM    6  C6  UNL     1      15.757  12.029  35.905  1.00  0.00     0.039 C
HETATM    7  C7  UNL     1      14.975  13.255  36.178  1.00  0.00    -0.064 C
HETATM    8  C17 UNL     1      13.988  13.273  37.311  1.00  0.00    -0.006 C
HETATM    9  C18 UNL     1      14.447  14.159  38.477  1.00  0.00     0.021 C
HETATM   10  C19 UNL     1      12.669  13.966  36.880  1.00  0.00     0.093 C
HETATM   11  C30 UNL     1      13.686  11.944  37.925  1.00  0.00     0.051 C
HETATM   12  C20 UNL     1      11.657  13.001  36.391  1.00  0.00     0.132 C
HETATM   13  O5  UNL     1      11.017  13.177  35.341  1.00  0.00    -0.298 OA
HETATM   14  C21 UNL     1      11.321  11.755  37.100  1.00  0.00     0.064 C
HETATM   15  C22 UNL     1       9.947  11.880  37.729  1.00  0.00    -0.007 C
HETATM   16  C29 UNL     1      12.269  11.643  38.266  1.00  0.00     0.010 C
HETATM   17  C23 UNL     1       9.062  10.714  37.297  1.00  0.00     0.011 C
HETATM   18  C24 UNL     1      10.159  11.872  39.224  1.00  0.00     0.010 C
HETATM   19  C25 UNL     1      11.638  12.261  39.436  1.00  0.00    -0.005 C
BRANCH   4  20
HETATM   20  O1  UNL     1      13.666  10.754  35.808  1.00  0.00    -0.377 OA
ATOM     21  H1  UNL     1      14.325  10.576  35.148  1.00  0.00     0.211 HD
ENDBRANCH   4  20
BRANCH   7  22
HETATM   22  C8  UNL     1      15.589  14.542  35.735  1.00  0.00    -0.052 C
BRANCH  22  23
HETATM   23  C9  UNL     1      14.712  15.099  34.648  1.00  0.00     0.047 C
BRANCH  23  24
HETATM   24  C10 UNL     1      14.312  16.526  34.751  1.00  0.00     0.104 C
BRANCH  24  25
HETATM   25  C11 UNL     1      14.953  17.339  33.657  1.00  0.00     0.231 C
HETATM   26  N1  UNL     1      15.316  16.620  32.487  1.00  0.00    -0.062 NA
HETATM   27  O2  UNL     1      15.125  18.555  33.827  1.00  0.00    -0.277 OA
ENDBRANCH  24  25
ENDBRANCH  23  24
ENDBRANCH  22  23
BRANCH  22  28
HETATM   28  C12 UNL     1      17.001  14.741  35.541  1.00  0.00     0.042 C
BRANCH  28  29
HETATM   29  C13 UNL     1      17.839  14.846  34.384  1.00  0.00     0.077 C
BRANCH  29  30
HETATM   30  O3  UNL     1      18.701  15.985  34.370  1.00  0.00    -0.362 OA
ATOM     31  H3  UNL     1      18.329  16.772  34.752  1.00  0.00     0.217 HD
ENDBRANCH  29  30
BRANCH  29  32
HETATM   32  C14 UNL     1      18.572  13.767  33.693  1.00  0.00     0.099 C
HETATM   33  C15 UNL     1      17.751  13.616  32.333  1.00  0.00     0.053 C
HETATM   34  C16 UNL     1      18.500  12.394  34.224  1.00  0.00     0.053 C
BRANCH  32  35
HETATM   35  O4  UNL     1      19.802  14.070  33.155  1.00  0.00    -0.384 OA
ATOM     36  H4  UNL     1      20.394  13.350  32.971  1.00  0.00     0.211 HD
ENDBRANCH  32  35
ENDBRANCH  29  32
ENDBRANCH  28  29
ENDBRANCH  22  28
ENDBRANCH   7  22
BRANCH  19  37
HETATM   37  C26 UNL     1      12.049  11.798  40.791  1.00  0.00    -0.018 C
HETATM   38  C27 UNL     1      12.126  10.257  40.778  1.00  0.00     0.010 C
HETATM   39  C28 UNL     1      13.352  12.345  41.300  1.00  0.00     0.010 C
ENDBRANCH  19  37
ENDBRANCH   3   4
TORSDOF 12
ENDMDL