MODEL 5
REMARK VINA RESULT: -8.961788147      2.777      9.371
REMARK  11 active torsions:
REMARK  status: ('A' for Active; 'I' for Inactive)
REMARK    1  A    between atoms: C5_6  and  C6_7
REMARK    2  A    between atoms: C7_8  and  C9_10
REMARK    3  A    between atoms: C10_11  and  C11_12
REMARK    4  A    between atoms: C12_13  and  C13_14
REMARK    5  A    between atoms: C12_13  and  C16_19
REMARK    6  A    between atoms: C13_14  and  C14_15
REMARK    7  A    between atoms: C14_15  and  C15_16
REMARK    8  A    between atoms: C16_19  and  O4_20
REMARK    9  A    between atoms: C18_22  and  O5_23
REMARK   10  A    between atoms: C19_25  and  O6_27
REMARK   11  A    between atoms: C27_35  and  O7_36
ROOT
HETATM    1  C1  UNL     1      17.988  17.815  29.347  1.00  0.00     0.021 C
HETATM    2  C2  UNL     1      17.090  17.692  30.283  1.00  0.00    -0.014 C
HETATM    3  C3  UNL     1      15.624  17.705  30.188  1.00  0.00     0.118 A
HETATM    4  O1  UNL     1      15.046  16.560  29.758  1.00  0.00    -0.363 OA
HETATM    5  C4  UNL     1      15.088  16.665  31.130  1.00  0.00     0.173 A
HETATM    6  C5  UNL     1      16.339  16.311  31.903  1.00  0.00     0.083 C
HETATM    7  C18 UNL     1      17.258  17.490  31.784  1.00  0.00     0.123 C
HETATM    8  C19 UNL     1      16.944  18.771  32.381  1.00  0.00     0.090 C
HETATM    9  C20 UNL     1      15.786  18.952  33.287  1.00  0.00     0.049 C
HETATM   10  C21 UNL     1      17.014  19.961  31.453  1.00  0.00     0.046 C
HETATM   11  C22 UNL     1      16.102  20.074  30.342  1.00  0.00    -0.003 C
HETATM   12  C23 UNL     1      15.466  21.479  30.402  1.00  0.00     0.016 C
HETATM   13  C24 UNL     1      14.327  21.612  29.439  1.00  0.00    -0.021 C
HETATM   14  C25 UNL     1      14.440  23.017  28.827  1.00  0.00     0.017 C
HETATM   15  C26 UNL     1      12.986  21.566  30.173  1.00  0.00     0.017 C
HETATM   16  C27 UNL     1      14.332  20.641  28.318  1.00  0.00     0.126 C
HETATM   17  C28 UNL     1      14.505  19.209  28.708  1.00  0.00     0.041 C
HETATM   18  C29 UNL     1      15.035  19.056  30.142  1.00  0.00     0.034 C
ENDROOT
BRANCH   6  19
HETATM   19  C6  UNL     1      16.129  15.746  33.197  1.00  0.00    -0.009 C
HETATM   20  C7  UNL     1      16.771  14.729  33.804  1.00  0.00    -0.065 C
HETATM   21  C8  UNL     1      17.871  14.003  33.151  1.00  0.00     0.048 C
BRANCH  20  22
HETATM   22  C9  UNL     1      16.326  14.383  35.126  1.00  0.00     0.006 C
HETATM   23  C10 UNL     1      16.365  13.314  35.839  1.00  0.00     0.001 C
BRANCH  23  24
HETATM   24  C11 UNL     1      16.883  11.996  35.603  1.00  0.00     0.005 C
HETATM   25  C12 UNL     1      16.280  10.879  35.922  1.00  0.00    -0.056 C
BRANCH  25  26
HETATM   26  C13 UNL     1      14.982  10.788  36.572  1.00  0.00     0.047 C
BRANCH  26  27
HETATM   27  C14 UNL     1      14.383   9.416  36.646  1.00  0.00     0.117 C
BRANCH  27  28
HETATM   28  C15 UNL     1      13.529   9.014  35.529  1.00  0.00     0.172 C
HETATM   29  O2  UNL     1      12.464   9.538  35.147  1.00  0.00    -0.648 OA
HETATM   30  O3  UNL     1      13.932   7.894  34.765  1.00  0.00    -0.648 OA
ENDBRANCH  27  28
ENDBRANCH  26  27
ENDBRANCH  25  26
BRANCH  25  31
HETATM   31  C16 UNL     1      16.968   9.556  35.597  1.00  0.00     0.201 C
BRANCH  31  32
HETATM   32  O4  UNL     1      18.294   9.877  35.370  1.00  0.00    -0.392 OA
HETATM   33  C17 UNL     1      18.686   9.507  34.088  1.00  0.00     0.201 C
ENDBRANCH  31  32
ENDBRANCH  25  31
ENDBRANCH  23  24
ENDBRANCH  20  22
ENDBRANCH   6  19
BRANCH   7  34
HETATM   34  O5  UNL     1      18.565  17.032  31.939  1.00  0.00    -0.381 OA
ATOM     35  H5  UNL     1      18.527  16.429  32.672  1.00  0.00     0.211 HD
ENDBRANCH   7  34
BRANCH   8  36
HETATM   36  O6  UNL     1      18.061  19.028  33.253  1.00  0.00    -0.387 OA
ATOM     37  H6  UNL     1      18.416  18.165  33.429  1.00  0.00     0.210 HD
ENDBRANCH   8  36
BRANCH  16  38
HETATM   38  O7  UNL     1      15.253  21.065  27.357  1.00  0.00    -0.395 OA
ATOM     39  H7  UNL     1      16.124  21.045  27.736  1.00  0.00     0.210 HD
ENDBRANCH  16  38
TORSDOF 11
ENDMDL