MODEL 2
REMARK VINA RESULT: -9.465096801      1.844      2.955
REMARK  13 active torsions:
REMARK  status: ('A' for Active; 'I' for Inactive)
REMARK    1  A    between atoms: C2_2  and  C3_3
REMARK    2  A    between atoms: C3_3  and  O1_4
REMARK    3  A    between atoms: C9_11  and  C10_12
REMARK    4  A    between atoms: C10_12  and  C11_13
REMARK    5  A    between atoms: C11_13  and  C12_14
REMARK    6  A    between atoms: C14_16  and  O2_17
REMARK    7  A    between atoms: C15_19  and  C16_20
REMARK    8  A    between atoms: C16_20  and  C17_21
REMARK    9  A    between atoms: C16_20  and  N1_26
REMARK   10  A    between atoms: C18_22  and  C19_23
REMARK   11  A    between atoms: C19_23  and  O3_24
REMARK   12  A    between atoms: C26_34  and  C27_35
REMARK   13  A    between atoms: C27_35  and  O5_36
ROOT
HETATM    1  C12 UNL     1      18.460  15.791  31.387  1.00  0.00     0.124 C
HETATM    2  C13 UNL     1      17.221  15.030  31.071  1.00  0.00     0.066 C
HETATM    3  C14 UNL     1      17.321  13.804  31.968  1.00  0.00     0.152 C
HETATM    4  C15 UNL     1      18.353  14.203  32.946  1.00  0.00     0.185 C
HETATM    5  O4  UNL     1      18.585  15.574  32.765  1.00  0.00    -0.375 OA
ENDROOT
BRANCH   1   6
HETATM    6  C11 UNL     1      18.337  17.293  31.126  1.00  0.00     0.033 C
BRANCH   6   7
HETATM    7  C10 UNL     1      17.007  17.821  31.486  1.00  0.00     0.012 C
BRANCH   7   8
HETATM    8  C9  UNL     1      16.678  19.232  31.246  1.00  0.00     0.025 C
HETATM    9  C7  UNL     1      15.174  19.369  30.900  1.00  0.00    -0.032 C
HETATM   10  C6  UNL     1      14.968  18.419  29.750  1.00  0.00     0.010 C
HETATM   11  C8  UNL     1      14.426  18.858  32.104  1.00  0.00     0.016 C
HETATM   12  C30 UNL     1      14.840  20.776  30.615  1.00  0.00     0.008 C
HETATM   13  C5  UNL     1      13.801  18.763  28.858  1.00  0.00     0.002 C
HETATM   14  C4  UNL     1      13.864  20.185  28.363  1.00  0.00     0.012 C
HETATM   15  C2  UNL     1      13.830  21.067  29.572  1.00  0.00    -0.018 C
HETATM   16  C1  UNL     1      14.032  22.500  29.052  1.00  0.00     0.018 C
HETATM   17  C29 UNL     1      16.109  21.592  30.382  1.00  0.00     0.033 C
HETATM   18  C28 UNL     1      16.850  21.539  31.668  1.00  0.00    -0.021 C
HETATM   19  C26 UNL     1      17.150  20.286  32.125  1.00  0.00    -0.056 C
BRANCH  15  20
HETATM   20  C3  UNL     1      12.400  21.074  30.115  1.00  0.00     0.173 C
BRANCH  20  21
HETATM   21  O1  UNL     1      11.463  21.137  29.102  1.00  0.00    -0.400 OA
ATOM     22  H1  UNL     1      10.953  20.338  29.041  1.00  0.00     0.209 HD
ENDBRANCH  20  21
ENDBRANCH  15  20
BRANCH  19  23
HETATM   23  C27 UNL     1      17.877  20.240  33.391  1.00  0.00     0.198 C
BRANCH  23  24
HETATM   24  O5  UNL     1      18.953  21.109  33.514  1.00  0.00    -0.397 OA
ATOM     25  H5  UNL     1      18.997  21.612  34.318  1.00  0.00     0.209 HD
ENDBRANCH  23  24
ENDBRANCH  19  23
ENDBRANCH   7   8
ENDBRANCH   6   7
ENDBRANCH   1   6
BRANCH   3  26
HETATM   26  O2  UNL     1      17.842  12.770  31.180  1.00  0.00    -0.393 OA
ATOM     27  H2  UNL     1      18.568  13.139  30.691  1.00  0.00     0.210 HD
ENDBRANCH   3  26
BRANCH   4  28
HETATM   28  C16 UNL     1      18.105  13.972  34.383  1.00  0.00     0.191 C
BRANCH  28  29
HETATM   29  C17 UNL     1      18.541  12.580  34.676  1.00  0.00    -0.076 C
HETATM   30  C18 UNL     1      18.882  11.450  34.928  1.00  0.00    -0.079 C
BRANCH  30  31
HETATM   31  C19 UNL     1      19.268  10.089  35.242  1.00  0.00     0.257 C
BRANCH  31  32
HETATM   32  O3  UNL     1      18.942   9.180  34.252  1.00  0.00    -0.389 OA
ATOM     33  H3  UNL     1      18.327   8.514  34.535  1.00  0.00     0.210 HD
ENDBRANCH  31  32
ENDBRANCH  30  31
ENDBRANCH  28  29
BRANCH  28  34
HETATM   34  N1  UNL     1      16.806  14.123  34.904  1.00  0.00    -0.396 N
HETATM   35  C20 UNL     1      16.364  13.242  35.921  1.00  0.00     0.118 C
HETATM   36  C21 UNL     1      14.824  13.209  35.883  1.00  0.00     0.019 C
HETATM   37  C22 UNL     1      14.300  14.406  36.594  1.00  0.00     0.002 C
HETATM   38  C23 UNL     1      13.980  15.553  35.659  1.00  0.00     0.002 C
HETATM   39  C24 UNL     1      15.027  15.679  34.569  1.00  0.00     0.019 C
HETATM   40  C25 UNL     1      16.422  15.504  35.131  1.00  0.00     0.118 C
ENDBRANCH  28  34
ENDBRANCH   4  28
TORSDOF 13
ENDMDL