MODEL 3
REMARK VINA RESULT: -9.088317815      2.190      5.380
REMARK  16 active torsions:
REMARK  status: ('A' for Active; 'I' for Inactive)
REMARK    1  A    between atoms: O1_2  and  C2_3
REMARK    2  A    between atoms: C2_3  and  C3_5
REMARK    3  A    between atoms: C3_5  and  C4_6
REMARK    4  A    between atoms: C6_13  and  N4_14
REMARK    5  A    between atoms: N4_14  and  C7_15
REMARK    6  A    between atoms: N4_14  and  C16_34
REMARK    7  A    between atoms: C7_15  and  C8_16
REMARK    8  A    between atoms: C8_16  and  N5_17
REMARK    9  A    between atoms: C8_16  and  C9_21
REMARK   10  A    between atoms: C9_21  and  C10_22
REMARK   11  A    between atoms: C11_24  and  C12_25
REMARK   12  A    between atoms: C12_25  and  O4_26
REMARK   13  A    between atoms: C15_31  and  O6_32
REMARK   14  A    between atoms: N9_41  and  C17_42
REMARK   15  A    between atoms: C18_45  and  N11_46
REMARK   16  A    between atoms: C19_51  and  N13_52
ROOT
HETATM    1  N4  UNL     1      -8.377  37.774 -46.144  1.00  0.00    -0.165 N
ENDROOT
BRANCH   1   2
HETATM    2  C6  UNL     1      -9.593  38.589 -46.019  1.00  0.00     0.410 C
HETATM    3  N3  UNL     1      -9.345  39.766 -46.817  1.00  0.00    -0.320 N
HETATM    4  C5  UNL     1      -9.666  40.955 -46.532  1.00  0.00     0.188 C
ATOM      5  H3  UNL     1      -8.861  39.623 -47.703  1.00  0.00     0.166 HD
HETATM    6  N1  UNL     1     -10.350  41.183 -45.288  1.00  0.00    -0.336 N
HETATM    7  N2  UNL     1      -9.367  42.061 -47.400  1.00  0.00    -0.064 NA
HETATM    8  C4  UNL     1     -10.878  40.001 -44.649  1.00  0.00     0.300 C
ATOM      9  H1  UNL     1     -10.455  42.114 -44.886  1.00  0.00     0.164 HD
HETATM   10  N15 UNL     1      -9.954  38.878 -44.679  1.00  0.00    -0.015 N
ATOM     11 2H15 UNL     1      -9.139  39.037 -44.088  1.00  0.00     0.284 HD
ATOM     12 1H15 UNL     1     -10.328  38.060 -44.198  1.00  0.00     0.284 HD
BRANCH   8  13
HETATM   13  C3  UNL     1     -12.211  39.599 -45.241  1.00  0.00     0.165 C
BRANCH  13  14
HETATM   14  C2  UNL     1     -12.864  38.550 -44.426  1.00  0.00     0.262 C
HETATM   15  O2  UNL     1     -12.511  37.350 -44.528  1.00  0.00    -0.265 OA
BRANCH  14  16
HETATM   16  O1  UNL     1     -13.867  38.952 -43.561  1.00  0.00    -0.326 OA
HETATM   17  C1  UNL     1     -13.617  39.075 -42.179  1.00  0.00     0.213 C
ENDBRANCH  14  16
ENDBRANCH  13  14
ENDBRANCH   8  13
ENDBRANCH   1   2
BRANCH   1  18
HETATM   18  C7  UNL     1      -8.272  37.002 -47.347  1.00  0.00     0.178 C
BRANCH  18  19
HETATM   19  C8  UNL     1      -6.897  36.720 -47.838  1.00  0.00     0.208 C
BRANCH  19  20
HETATM   20  N5  UNL     1      -6.862  35.445 -48.509  1.00  0.00    -0.073 N
ATOM     21  H53 UNL     1      -6.939  34.667 -47.854  1.00  0.00     0.274 HD
ATOM     22  H52 UNL     1      -7.712  35.273 -49.046  1.00  0.00     0.274 HD
ATOM     23  H51 UNL     1      -6.025  35.376 -49.087  1.00  0.00     0.274 HD
ENDBRANCH  19  20
BRANCH  19  24
HETATM   24  C9  UNL     1      -6.597  37.764 -48.901  1.00  0.00     0.102 C
BRANCH  24  25
HETATM   25  C10 UNL     1      -5.345  38.492 -48.687  1.00  0.00     0.092 A
HETATM   26  O3  UNL     1      -4.209  37.995 -49.095  1.00  0.00    -0.314 OA
HETATM   27  C11 UNL     1      -3.048  38.571 -48.949  1.00  0.00     0.080 A
HETATM   28  C13 UNL     1      -3.007  39.796 -48.318  1.00  0.00     0.092 A
HETATM   29  C14 UNL     1      -4.157  40.371 -47.867  1.00  0.00     0.209 A
HETATM   30  O5  UNL     1      -4.156  41.495 -47.283  1.00  0.00    -0.285 OA
HETATM   31  C15 UNL     1      -5.357  39.708 -48.054  1.00  0.00     0.146 A
BRANCH  27  32
HETATM   32  C12 UNL     1      -1.779  37.948 -49.440  1.00  0.00     0.229 C
BRANCH  32  33
HETATM   33  O4  UNL     1      -1.333  38.617 -50.562  1.00  0.00    -0.394 OA
ATOM     34  H4  UNL     1      -1.069  37.992 -51.227  1.00  0.00     0.209 HD
ENDBRANCH  32  33
ENDBRANCH  27  32
BRANCH  31  35
HETATM   35  O6  UNL     1      -6.560  40.281 -47.597  1.00  0.00    -0.355 OA
ATOM     36  H6  UNL     1      -7.008  40.953 -48.099  1.00  0.00     0.218 HD
ENDBRANCH  31  35
ENDBRANCH  24  25
ENDBRANCH  19  24
ENDBRANCH  18  19
ENDBRANCH   1  18
BRANCH   1  37
HETATM   37  C16 UNL     1      -7.413  37.798 -45.145  1.00  0.00     0.737 A
HETATM   38  N6  UNL     1      -6.789  38.950 -44.782  1.00  0.00    -0.114 N
HETATM   39  N7  UNL     1      -5.935  38.694 -43.824  1.00  0.00    -0.212 N
ATOM     40  H6  UNL     1      -6.960  39.869 -45.192  1.00  0.00     0.207 HD
HETATM   41  N8  UNL     1      -6.013  37.423 -43.587  1.00  0.00    -0.191 N
ATOM     42  H7  UNL     1      -5.326  39.365 -43.355  1.00  0.00     0.210 HD
HETATM   43  N9  UNL     1      -6.928  36.826 -44.393  1.00  0.00     0.108 N
ATOM     44  H8  UNL     1      -5.458  36.933 -42.885  1.00  0.00     0.211 HD
BRANCH  43  45
HETATM   45  C17 UNL     1      -7.200  35.433 -44.294  1.00  0.00     0.749 A
HETATM   46  N10 UNL     1      -6.160  34.543 -44.254  1.00  0.00    -0.019 N
HETATM   47  C18 UNL     1      -6.346  33.221 -44.154  1.00  0.00     0.705 A
ATOM     48  H10 UNL     1      -5.206  34.901 -44.303  1.00  0.00     0.203 HD
HETATM   49  N12 UNL     1      -7.579  32.702 -44.086  1.00  0.00    -0.022 N
HETATM   50  C19 UNL     1      -8.609  33.558 -44.124  1.00  0.00     0.705 A
ATOM     51  H12 UNL     1      -7.727  31.695 -44.009  1.00  0.00     0.203 HD
HETATM   52  N14 UNL     1      -8.414  34.906 -44.226  1.00  0.00    -0.019 N
ATOM     53  H14 UNL     1      -9.225  35.524 -44.251  1.00  0.00     0.203 HD
BRANCH  47  54
HETATM   54  N11 UNL     1      -5.345  32.412 -44.116  1.00  0.00    -0.234 N
ATOM     55 2H11 UNL     1      -4.816  32.262 -44.975  1.00  0.00     0.174 HD
ATOM     56 1H11 UNL     1      -5.089  31.933 -43.252  1.00  0.00     0.174 HD
ENDBRANCH  47  54
BRANCH  50  57
HETATM   57  N13 UNL     1      -9.804  33.089 -44.061  1.00  0.00    -0.234 N
ATOM     58 2H13 UNL     1     -10.117  32.407 -44.751  1.00  0.00     0.174 HD
ATOM     59 1H13 UNL     1     -10.419  33.414 -43.315  1.00  0.00     0.174 HD
ENDBRANCH  50  57
ENDBRANCH  43  45
ENDBRANCH   1  37
TORSDOF 16
ENDMDL