MODEL 1
REMARK VINA RESULT: -9.460595799      0.000      0.000
REMARK  13 active torsions:
REMARK  status: ('A' for Active; 'I' for Inactive)
REMARK    1  A    between atoms: O1_2  and  N1_3
REMARK    2  A    between atoms: N1_3  and  C3_5
REMARK    3  A    between atoms: C3_5  and  C4_6
REMARK    4  A    between atoms: C5_9  and  C6_10
REMARK    5  A    between atoms: C6_10  and  C7_11
REMARK    6  A    between atoms: C6_10  and  N3_15
REMARK    7  A    between atoms: C7_11  and  O2_13
REMARK    8  A    between atoms: N3_15  and  O3_16
REMARK    9  A    between atoms: N3_15  and  C9_18
REMARK   10  A    between atoms: C12_29  and  C13_30
REMARK   11  A    between atoms: C16_36  and  N9_37
REMARK   12  A    between atoms: C18_47  and  N13_48
REMARK   13  A    between atoms: N13_48  and  N14_50
ROOT
HETATM    1  C6  UNL     1      -8.706  41.005 -45.107  1.00  0.00     0.212 C
ENDROOT
BRANCH   1   2
HETATM    2  C5  UNL     1      -7.816  40.196 -46.056  1.00  0.00     0.127 A
HETATM    3  N2  UNL     1      -8.040  38.911 -46.237  1.00  0.00    -0.331 N
HETATM    4  C4  UNL     1      -7.324  38.071 -47.062  1.00  0.00     0.140 A
ATOM      5  H2  UNL     1      -8.816  38.499 -45.718  1.00  0.00     0.168 HD
HETATM    6  N17 UNL     1      -6.318  38.649 -47.722  1.00  0.00     0.036 N
HETATM    7  C17 UNL     1      -6.063  39.986 -47.552  1.00  0.00     0.721 A
HETATM    8  C19 UNL     1      -5.548  37.938 -48.552  1.00  0.00     0.713 A
HETATM    9  N11 UNL     1      -6.807  40.755 -46.724  1.00  0.00    -0.176 N
HETATM   10  N12 UNL     1      -5.040  40.540 -48.232  1.00  0.00    -0.019 N
ATOM     11  H11 UNL     1      -6.599  41.747 -46.613  1.00  0.00     0.185 HD
HETATM   12  C18 UNL     1      -4.254  39.872 -49.064  1.00  0.00     0.725 A
ATOM     13  H12 UNL     1      -4.859  41.535 -48.099  1.00  0.00     0.203 HD
HETATM   14  N15 UNL     1      -4.520  38.563 -49.217  1.00  0.00    -0.020 N
ATOM     15  H15 UNL     1      -3.938  38.015 -49.850  1.00  0.00     0.203 HD
HETATM   16  N16 UNL     1      -5.746  36.684 -48.743  1.00  0.00    -0.233 N
ATOM     17 2H16 UNL     1      -5.159  36.141 -49.376  1.00  0.00     0.174 HD
ATOM     18 1H16 UNL     1      -6.508  36.220 -48.250  1.00  0.00     0.174 HD
BRANCH   4  19
HETATM   19  C3  UNL     1      -7.665  36.677 -47.174  1.00  0.00     0.198 C
BRANCH  19  20
HETATM   20  N1  UNL     1      -7.105  35.783 -46.159  1.00  0.00    -0.195 NA
HETATM   21  C2  UNL     1      -8.210  35.334 -45.320  1.00  0.00     0.144 C
BRANCH  20  22
HETATM   22  O1  UNL     1      -6.237  36.471 -45.372  1.00  0.00    -0.308 OA
HETATM   23  C1  UNL     1      -6.515  36.424 -44.034  1.00  0.00     0.229 C
ENDBRANCH  20  22
ENDBRANCH  19  20
ENDBRANCH   4  19
BRANCH  12  24
HETATM   24  N13 UNL     1      -3.269  40.407 -49.718  1.00  0.00    -0.138 N
ATOM     25  H13 UNL     1      -3.013  41.383 -49.564  1.00  0.00     0.205 HD
BRANCH  24  26
HETATM   26  N14 UNL     1      -2.566  39.623 -50.636  1.00  0.00    -0.331 N
ATOM     27 2H14 UNL     1      -2.826  39.646 -51.622  1.00  0.00     0.177 HD
ATOM     28 1H14 UNL     1      -1.799  39.040 -50.299  1.00  0.00     0.177 HD
ENDBRANCH  24  26
ENDBRANCH  12  24
ENDBRANCH   1   2
BRANCH   1  29
HETATM   29  C7  UNL     1      -9.557  41.835 -46.017  1.00  0.00     0.146 C
HETATM   30  C8  UNL     1      -9.513  43.306 -45.778  1.00  0.00     0.042 C
BRANCH  29  31
HETATM   31  O2  UNL     1      -9.342  41.529 -47.352  1.00  0.00    -0.393 OA
ATOM     32  H2  UNL     1      -9.056  40.631 -47.470  1.00  0.00     0.210 HD
ENDBRANCH  29  31
ENDBRANCH   1  29
BRANCH   1  33
HETATM   33  N3  UNL     1      -9.332  40.170 -44.176  1.00  0.00    -0.227 N
BRANCH  33  34
HETATM   34  O3  UNL     1      -8.593  39.814 -43.063  1.00  0.00    -0.285 OA
ATOM     35  H3  UNL     1      -8.090  40.502 -42.645  1.00  0.00     0.245 HD
ENDBRANCH  33  34
BRANCH  33  36
HETATM   36  C9  UNL     1     -10.637  39.703 -44.214  1.00  0.00     0.170 A
HETATM   37  N4  UNL     1     -11.273  39.128 -45.251  1.00  0.00    -0.267 N
HETATM   38  N5  UNL     1     -12.499  38.806 -44.954  1.00  0.00    -0.236 N
ATOM     39  H4  UNL     1     -10.845  38.965 -46.162  1.00  0.00     0.190 HD
HETATM   40  N6  UNL     1     -12.696  39.166 -43.701  1.00  0.00    -0.239 N
ATOM     41  H5  UNL     1     -13.178  38.360 -45.572  1.00  0.00     0.208 HD
HETATM   42  C10 UNL     1     -11.585  39.722 -43.197  1.00  0.00     0.105 A
HETATM   43  C12 UNL     1     -13.753  39.139 -42.710  1.00  0.00     0.359 C
HETATM   44  C11 UNL     1     -11.929  40.063 -41.792  1.00  0.00     0.298 C
HETATM   45  N7  UNL     1     -13.006  39.151 -41.465  1.00  0.00    -0.041 N
ATOM     46  H72 UNL     1     -12.716  38.235 -41.122  1.00  0.00     0.280 HD
ATOM     47  H71 UNL     1     -13.546  39.392 -40.634  1.00  0.00     0.280 HD
BRANCH  43  48
HETATM   48  C13 UNL     1     -14.608  37.945 -42.837  1.00  0.00     0.083 A
HETATM   49  C14 UNL     1     -14.084  36.678 -42.952  1.00  0.00     0.104 A
HETATM   50  C15 UNL     1     -14.890  35.561 -43.071  1.00  0.00     0.261 A
HETATM   51  O4  UNL     1     -14.443  34.395 -43.177  1.00  0.00    -0.268 OA
HETATM   52  N8  UNL     1     -16.220  35.728 -43.072  1.00  0.00    -0.156 N
HETATM   53  C16 UNL     1     -16.744  36.952 -42.962  1.00  0.00     0.679 A
ATOM     54  H8  UNL     1     -16.834  34.919 -43.157  1.00  0.00     0.187 HD
HETATM   55  N10 UNL     1     -15.943  38.042 -42.845  1.00  0.00    -0.192 N
ATOM     56  H10 UNL     1     -16.373  38.963 -42.761  1.00  0.00     0.184 HD
BRANCH  53  57
HETATM   57  N9  UNL     1     -18.049  37.083 -42.966  1.00  0.00    -0.234 N
ATOM     58  H92 UNL     1     -18.650  36.266 -43.066  1.00  0.00     0.174 HD
ATOM     59  H91 UNL     1     -18.449  38.017 -42.869  1.00  0.00     0.174 HD
ENDBRANCH  53  57
ENDBRANCH  43  48
ENDBRANCH  33  36
ENDBRANCH   1  33
TORSDOF 13
ENDMDL