MODEL 2
REMARK VINA RESULT: -7.135348263      9.185     13.202
REMARK  15 active torsions:
REMARK  status: ('A' for Active; 'I' for Inactive)
REMARK    1  A    between atoms: C3_3  and  O1_4
REMARK    2  A    between atoms: C5_8  and  C6_9
REMARK    3  A    between atoms: C6_9  and  O3_10
REMARK    4  A    between atoms: C6_9  and  O4_12
REMARK    5  A    between atoms: C7_14  and  N1_15
REMARK    6  A    between atoms: C8_19  and  N5_20
REMARK    7  A    between atoms: N6_24  and  C9_25
REMARK    8  A    between atoms: N9_30  and  C10_31
REMARK    9  A    between atoms: C11_34  and  N11_35
REMARK   10  A    between atoms: C12_38  and  N12_39
REMARK   11  A    between atoms: C14_46  and  S1_47
REMARK   12  A    between atoms: S1_47  and  C15_48
REMARK   13  A    between atoms: C15_48  and  C16_49
REMARK   14  A    between atoms: C16_49  and  C17_50
REMARK   15  A    between atoms: C17_50  and  O7_51
ROOT
HETATM    1  C9  UNL     1     -10.913  29.974 -41.619  1.00  0.00     0.166 A
HETATM    2  N7  UNL     1      -9.845  30.785 -41.309  1.00  0.00    -0.267 N
ATOM      3  H7  UNL     1      -8.987  30.887 -41.851  1.00  0.00     0.190 HD
HETATM    4  N8  UNL     1     -10.134  31.405 -40.185  1.00  0.00    -0.219 N
ATOM      5  H8  UNL     1      -9.519  32.071 -39.717  1.00  0.00     0.209 HD
HETATM    6  N9  UNL     1     -11.321  31.050 -39.746  1.00  0.00    -0.061 N
HETATM    7  C14 UNL     1     -11.830  30.137 -40.651  1.00  0.00     0.158 A
ENDROOT
BRANCH   1   8
HETATM    8  N6  UNL     1     -10.868  29.182 -42.783  1.00  0.00    -0.279 N
HETATM    9  C2  UNL     1     -10.725  27.855 -42.658  1.00  0.00     0.053 A
HETATM   10  C1  UNL     1     -10.664  27.207 -41.299  1.00  0.00     0.072 C
HETATM   11  C3  UNL     1     -10.686  27.048 -43.759  1.00  0.00     0.140 A
HETATM   12  C4  UNL     1     -10.796  27.590 -45.007  1.00  0.00     0.221 A
HETATM   13  O2  UNL     1     -10.755  26.820 -46.016  1.00  0.00    -0.284 OA
HETATM   14  C5  UNL     1     -10.949  28.975 -45.152  1.00  0.00     0.095 A
HETATM   15  C7  UNL     1     -10.981  29.747 -43.997  1.00  0.00     0.147 A
BRANCH  11  16
HETATM   16  O1  UNL     1     -10.533  25.654 -43.635  1.00  0.00    -0.355 OA
ATOM     17  H1  UNL     1     -10.251  25.123 -44.371  1.00  0.00     0.218 HD
ENDBRANCH  11  16
BRANCH  14  18
HETATM   18  C6  UNL     1     -11.076  29.454 -46.525  1.00  0.00     0.296 C
BRANCH  18  19
HETATM   19  O3  UNL     1     -12.059  28.832 -47.286  1.00  0.00    -0.367 OA
ATOM     20  H3  UNL     1     -12.061  27.882 -47.254  1.00  0.00     0.213 HD
ENDBRANCH  18  19
BRANCH  18  21
HETATM   21  O4  UNL     1      -9.861  29.132 -47.210  1.00  0.00    -0.367 OA
ATOM     22  H4  UNL     1     -10.089  28.613 -47.972  1.00  0.00     0.213 HD
ENDBRANCH  18  21
ENDBRANCH  14  18
BRANCH  15  23
HETATM   23  N1  UNL     1     -11.208  31.155 -44.128  1.00  0.00    -0.215 N
HETATM   24  N2  UNL     1     -10.289  32.166 -43.933  1.00  0.00    -0.005 NA
HETATM   25  N3  UNL     1     -10.932  33.357 -43.871  1.00  0.00    -0.013 NA
HETATM   26  N4  UNL     1     -12.299  33.116 -43.882  1.00  0.00    -0.072 NA
HETATM   27  C8  UNL     1     -12.433  31.790 -44.506  1.00  0.00     0.415 C
BRANCH  27  28
HETATM   28  N5  UNL     1     -13.637  31.204 -44.048  1.00  0.00    -0.041 N
ATOM     29  H53 UNL     1     -13.474  30.220 -43.834  1.00  0.00     0.278 HD
ATOM     30  H52 UNL     1     -13.859  31.567 -43.121  1.00  0.00     0.278 HD
ATOM     31  H51 UNL     1     -14.457  31.287 -44.649  1.00  0.00     0.278 HD
ENDBRANCH  27  28
ENDBRANCH  15  23
ENDBRANCH   1   8
BRANCH   7  32
HETATM   32  S1  UNL     1     -13.410  29.423 -40.425  1.00  0.00    -0.106 SA
BRANCH  32  33
HETATM   33  C15 UNL     1     -14.794  30.050 -41.293  1.00  0.00     0.083 C
BRANCH  33  34
HETATM   34  C16 UNL     1     -15.674  31.060 -40.627  1.00  0.00     0.036 C
BRANCH  34  35
HETATM   35  C17 UNL     1     -15.557  32.431 -41.267  1.00  0.00     0.165 C
BRANCH  35  36
HETATM   36  O7  UNL     1     -14.237  32.790 -41.466  1.00  0.00    -0.401 OA
ATOM     37  H7  UNL     1     -14.159  33.516 -42.073  1.00  0.00     0.209 HD
ENDBRANCH  35  36
ENDBRANCH  34  35
ENDBRANCH  33  34
ENDBRANCH  32  33
ENDBRANCH   7  32
BRANCH   6  38
HETATM   38  C10 UNL     1     -12.012  31.472 -38.585  1.00  0.00     0.708 A
HETATM   39  N10 UNL     1     -13.134  32.241 -38.704  1.00  0.00    -0.172 N
HETATM   40  C11 UNL     1     -13.808  32.656 -37.618  1.00  0.00     0.151 A
ATOM     41  H10 UNL     1     -13.465  32.505 -39.632  1.00  0.00     0.186 HD
HETATM   42  C12 UNL     1     -13.409  32.331 -36.339  1.00  0.00     0.188 A
HETATM   43  C13 UNL     1     -12.264  31.545 -36.227  1.00  0.00     0.168 A
HETATM   44  N13 UNL     1     -11.863  31.217 -34.914  1.00  0.00    -0.079 NA
HETATM   45  N14 UNL     1     -11.637  31.163 -37.331  1.00  0.00    -0.174 N
ATOM     46  H14 UNL     1     -10.802  30.588 -37.220  1.00  0.00     0.185 HD
BRANCH  40  47
HETATM   47  N11 UNL     1     -14.884  33.393 -37.710  1.00  0.00    -0.383 N
ATOM     48 2H11 UNL     1     -14.758  34.315 -38.127  1.00  0.00     0.157 HD
ATOM     49 1H11 UNL     1     -15.794  33.066 -37.385  1.00  0.00     0.157 HD
ENDBRANCH  40  47
BRANCH  42  50
HETATM   50  N12 UNL     1     -14.108  32.759 -35.183  1.00  0.00    -0.108 N
HETATM   51  O5  UNL     1     -15.081  32.101 -34.770  1.00  0.00    -0.532 OA
HETATM   52  O6  UNL     1     -13.757  33.886 -34.480  1.00  0.00    -0.532 OA
ENDBRANCH  42  50
ENDBRANCH   6  38
TORSDOF 15
ENDMDL