MODEL 2
REMARK VINA RESULT: -8.954242519      0.752      1.260
REMARK  17 active torsions:
REMARK  status: ('A' for Active; 'I' for Inactive)
REMARK    1  A    between atoms: C2_3  and  N2_4
REMARK    2  A    between atoms: C4_6  and  N3_7
REMARK    3  A    between atoms: C6_12  and  N4_13
REMARK    4  A    between atoms: C9_21  and  N6_22
REMARK    5  A    between atoms: N8_29  and  O1_30
REMARK    6  A    between atoms: C12_33  and  N9_34
REMARK    7  A    between atoms: N9_34  and  N10_36
REMARK    8  A    between atoms: N10_36  and  C13_38
REMARK    9  A    between atoms: C13_38  and  C14_39
REMARK   10  A    between atoms: C14_39  and  O2_40
REMARK   11  A    between atoms: C14_39  and  C15_42
REMARK   12  A    between atoms: C15_42  and  O3_43
REMARK   13  A    between atoms: C15_42  and  C16_45
REMARK   14  A    between atoms: C16_45  and  O4_46
REMARK   15  A    between atoms: C16_45  and  C17_48
REMARK   16  A    between atoms: C17_48  and  O5_49
REMARK   17  A    between atoms: O5_49  and  S2_50
ROOT
HETATM    1  C1  UNL     1      -7.410  37.972 -45.186  1.00  0.00     0.177 C
HETATM    2  N1  UNL     1      -6.477  38.682 -46.057  1.00  0.00    -0.169 N
HETATM    3  C2  UNL     1      -6.689  40.015 -46.205  1.00  0.00     0.684 A
HETATM    4  N5  UNL     1      -5.842  40.700 -47.008  1.00  0.00    -0.185 N
ATOM      5  H5  UNL     1      -5.969  41.703 -47.145  1.00  0.00     0.184 HD
HETATM    6  C8  UNL     1      -4.837  40.065 -47.622  1.00  0.00     0.126 A
HETATM    7  C9  UNL     1      -3.964  40.780 -48.451  1.00  0.00     0.131 A
HETATM    8  N7  UNL     1      -2.971  40.117 -49.049  1.00  0.00    -0.319 N
ATOM      9  H7  UNL     1      -2.343  40.653 -49.648  1.00  0.00     0.169 HD
HETATM   10  C10 UNL     1      -2.733  38.803 -48.925  1.00  0.00     0.184 A
HETATM   11  S1  UNL     1      -1.379  37.985 -49.760  1.00  0.00    -0.011 SA
HETATM   12  N8  UNL     1      -3.580  38.104 -48.119  1.00  0.00    -0.195 N
HETATM   13  C11 UNL     1      -4.598  38.720 -47.492  1.00  0.00     0.142 A
HETATM   14  C12 UNL     1      -5.481  38.005 -46.654  1.00  0.00     0.169 A
ENDROOT
BRANCH  14  15
HETATM   15  N9  UNL     1      -5.213  36.773 -46.546  1.00  0.00    -0.287 N
ATOM     16  H9  UNL     1      -4.529  36.477 -47.243  1.00  0.00     0.188 HD
BRANCH  15  17
HETATM   17  N10 UNL     1      -5.589  35.753 -45.761  1.00  0.00    -0.332 N
ATOM     18  H10 UNL     1      -5.523  35.823 -44.745  1.00  0.00     0.180 HD
BRANCH  17  19
HETATM   19  C13 UNL     1      -6.098  34.531 -46.403  1.00  0.00     0.173 C
BRANCH  19  20
HETATM   20  C14 UNL     1      -6.559  33.568 -45.334  1.00  0.00     0.168 C
BRANCH  20  21
HETATM   21  O2  UNL     1      -7.534  32.712 -45.781  1.00  0.00    -0.391 OA
ATOM     22  H2  UNL     1      -7.700  32.000 -45.174  1.00  0.00     0.210 HD
ENDBRANCH  20  21
BRANCH  20  23
HETATM   23  C15 UNL     1      -7.077  34.376 -44.159  1.00  0.00     0.179 C
BRANCH  23  24
HETATM   24  O3  UNL     1      -8.395  34.742 -44.347  1.00  0.00    -0.390 OA
ATOM     25  H3  UNL     1      -8.472  35.676 -44.506  1.00  0.00     0.210 HD
ENDBRANCH  23  24
BRANCH  23  26
HETATM   26  C16 UNL     1      -6.782  33.691 -42.867  1.00  0.00     0.174 C
BRANCH  26  27
HETATM   27  O4  UNL     1      -5.927  32.622 -42.948  1.00  0.00    -0.391 OA
ATOM     28  H4  UNL     1      -5.014  32.815 -42.771  1.00  0.00     0.210 HD
ENDBRANCH  26  27
BRANCH  26  29
HETATM   29  C17 UNL     1      -8.114  33.312 -42.247  1.00  0.00     0.227 C
BRANCH  29  30
HETATM   30  O5  UNL     1      -8.545  32.147 -42.844  1.00  0.00    -0.254 OA
BRANCH  30  31
HETATM   31  S2  UNL     1     -10.135  32.168 -43.314  1.00  0.00     0.251 S
HETATM   32  O6  UNL     1     -10.848  30.942 -42.833  1.00  0.00    -0.572 OA
HETATM   33  O7  UNL     1     -10.766  33.431 -42.742  1.00  0.00    -0.572 OA
HETATM   34  O8  UNL     1     -10.247  32.308 -44.984  1.00  0.00    -0.572 OA
ENDBRANCH  30  31
ENDBRANCH  29  30
ENDBRANCH  26  29
ENDBRANCH  23  26
ENDBRANCH  20  23
ENDBRANCH  19  20
ENDBRANCH  17  19
ENDBRANCH  15  17
ENDBRANCH  14  15
BRANCH   3  35
HETATM   35  N2  UNL     1      -7.764  40.670 -45.545  1.00  0.00    -0.213 N
HETATM   36  C3  UNL     1      -7.791  40.860 -44.132  1.00  0.00     0.174 C
HETATM   37  C4  UNL     1      -9.180  41.271 -43.687  1.00  0.00     0.204 C
HETATM   38  C5  UNL     1     -10.258  40.542 -44.415  1.00  0.00     0.069 C
HETATM   39  C6  UNL     1     -10.119  40.456 -45.891  1.00  0.00     0.204 C
HETATM   40  C7  UNL     1      -8.872  41.155 -46.349  1.00  0.00     0.174 C
BRANCH  37  41
HETATM   41  N3  UNL     1      -9.372  42.694 -43.730  1.00  0.00    -0.073 N
ATOM     42  H33 UNL     1      -8.718  43.133 -44.376  1.00  0.00     0.274 HD
ATOM     43  H32 UNL     1     -10.248  42.932 -44.196  1.00  0.00     0.274 HD
ATOM     44  H31 UNL     1      -9.319  43.122 -42.805  1.00  0.00     0.274 HD
ENDBRANCH  37  41
BRANCH  39  45
HETATM   45  N4  UNL     1     -10.132  39.060 -46.313  1.00  0.00    -0.073 N
ATOM     46  H43 UNL     1      -9.223  38.757 -46.659  1.00  0.00     0.274 HD
ATOM     47  H42 UNL     1     -10.210  38.423 -45.520  1.00  0.00     0.274 HD
ATOM     48  H41 UNL     1     -10.872  38.910 -46.999  1.00  0.00     0.274 HD
ENDBRANCH  39  45
ENDBRANCH   3  35
BRANCH  12  49
HETATM   49  O1  UNL     1      -3.348  36.761 -47.982  1.00  0.00    -0.280 OA
ATOM     50  H1  UNL     1      -3.880  36.291 -47.351  1.00  0.00     0.245 HD
ENDBRANCH  12  49
BRANCH   7  51
HETATM   51  N6  UNL     1      -4.188  42.036 -48.573  1.00  0.00    -0.383 N
ATOM     52  H62 UNL     1      -4.925  42.548 -48.090  1.00  0.00     0.157 HD
ATOM     53  H61 UNL     1      -3.575  42.549 -49.206  1.00  0.00     0.157 HD
ENDBRANCH   7  51
TORSDOF 17
ENDMDL