MODEL 2
REMARK VINA RESULT: -8.236527481      1.017      1.215
REMARK  16 active torsions:
REMARK  status: ('A' for Active; 'I' for Inactive)
REMARK    1  A    between atoms: C2_2  and  O1_3
REMARK    2  A    between atoms: C2_2  and  C18_48
REMARK    3  A    between atoms: O1_3  and  C3_4
REMARK    4  A    between atoms: C5_6  and  O2_7
REMARK    5  A    between atoms: C7_10  and  N1_11
REMARK    6  A    between atoms: C8_14  and  C9_15
REMARK    7  A    between atoms: C9_15  and  O3_16
REMARK    8  A    between atoms: C9_15  and  O4_18
REMARK    9  A    between atoms: C11_21  and  C12_22
REMARK   10  A    between atoms: C14_31  and  N6_32
REMARK   11  A    between atoms: C16_40  and  N9_41
REMARK   12  A    between atoms: C18_48  and  N14_49
REMARK   13  A    between atoms: C18_48  and  C19_53
REMARK   14  A    between atoms: C19_53  and  C20_55
REMARK   15  A    between atoms: C20_55  and  N15_56
REMARK   16  A    between atoms: C20_55  and  O6_60
ROOT
HETATM    1  C3  UNL     1      -9.090  39.976 -46.358  1.00  0.00     0.154 A
HETATM    2  C4  UNL     1      -8.926  39.531 -47.649  1.00  0.00     0.095 A
HETATM    3  C5  UNL     1      -7.620  39.046 -47.799  1.00  0.00     0.101 A
HETATM    4  C6  UNL     1      -7.032  39.221 -46.563  1.00  0.00     0.122 A
HETATM    5  C7  UNL     1      -5.755  38.917 -46.156  1.00  0.00     0.158 A
HETATM    6  N8  UNL     1      -5.435  39.206 -44.861  1.00  0.00    -0.345 N
ATOM      7  H8  UNL     1      -4.494  38.991 -44.530  1.00  0.00     0.167 HD
HETATM    8  C15 UNL     1      -6.293  39.752 -44.016  1.00  0.00     0.140 A
HETATM    9  C16 UNL     1      -7.597  40.065 -44.424  1.00  0.00     0.151 A
HETATM   10  N13 UNL     1      -7.938  39.791 -45.694  1.00  0.00    -0.269 N
ENDROOT
BRANCH   5  11
HETATM   11  N1  UNL     1      -4.766  38.295 -46.963  1.00  0.00    -0.234 N
HETATM   12  N2  UNL     1      -3.796  39.001 -47.609  1.00  0.00    -0.291 N
HETATM   13  C8  UNL     1      -3.033  38.199 -48.314  1.00  0.00     0.083 A
ATOM     14  H2  UNL     1      -3.680  40.013 -47.553  1.00  0.00     0.187 HD
HETATM   15  C10 UNL     1      -3.523  36.940 -48.115  1.00  0.00     0.067 A
HETATM   16  C11 UNL     1      -4.636  37.002 -47.248  1.00  0.00     0.105 A
BRANCH  13  17
HETATM   17  C9  UNL     1      -1.869  38.644 -49.147  1.00  0.00     0.306 C
BRANCH  17  18
HETATM   18  O3  UNL     1      -2.389  39.123 -50.356  1.00  0.00    -0.366 OA
ATOM     19  H3  UNL     1      -2.957  38.444 -50.702  1.00  0.00     0.213 HD
ENDBRANCH  17  18
BRANCH  17  20
HETATM   20  O4  UNL     1      -1.153  37.480 -49.460  1.00  0.00    -0.366 OA
ATOM     21  H4  UNL     1      -0.540  37.351 -48.746  1.00  0.00     0.213 HD
ENDBRANCH  17  20
ENDBRANCH  13  17
BRANCH  16  22
HETATM   22  C12 UNL     1      -5.390  35.817 -46.868  1.00  0.00     0.165 A
HETATM   23  N3  UNL     1      -5.927  35.085 -47.858  1.00  0.00    -0.173 N
HETATM   24  C13 UNL     1      -6.685  33.968 -47.644  1.00  0.00     0.692 A
ATOM     25  H3  UNL     1      -5.761  35.378 -48.820  1.00  0.00     0.186 HD
HETATM   26  N4  UNL     1      -7.151  33.346 -48.588  1.00  0.00    -0.234 N
HETATM   27  N5  UNL     1      -6.905  33.578 -46.371  1.00  0.00    -0.023 N
ATOM     28  H42 UNL     1      -6.985  33.641 -49.550  1.00  0.00     0.174 HD
ATOM     29  H41 UNL     1      -7.716  32.512 -48.428  1.00  0.00     0.174 HD
HETATM   30  C14 UNL     1      -6.389  34.275 -45.349  1.00  0.00     0.692 A
ATOM     31  H5  UNL     1      -7.468  32.748 -46.186  1.00  0.00     0.203 HD
HETATM   32  N7  UNL     1      -5.634  35.394 -45.635  1.00  0.00    -0.173 N
ATOM     33  H7  UNL     1      -5.241  35.924 -44.857  1.00  0.00     0.186 HD
BRANCH  30  34
HETATM   34  N6  UNL     1      -6.609  33.907 -44.196  1.00  0.00    -0.234 N
ATOM     35  H62 UNL     1      -6.963  32.975 -43.979  1.00  0.00     0.174 HD
ATOM     36  H61 UNL     1      -6.426  34.547 -43.423  1.00  0.00     0.174 HD
ENDBRANCH  30  34
ENDBRANCH  16  22
ENDBRANCH   5  11
BRANCH   3  37
HETATM   37  O2  UNL     1      -7.158  38.534 -48.984  1.00  0.00    -0.358 OA
ATOM     38  H2  UNL     1      -7.245  37.615 -49.210  1.00  0.00     0.217 HD
ENDBRANCH   3  37
BRANCH   1  39
HETATM   39  O1  UNL     1     -10.238  40.532 -45.799  1.00  0.00    -0.328 OA
BRANCH  39  40
HETATM   40  C2  UNL     1     -11.523  39.994 -46.012  1.00  0.00     0.164 C
HETATM   41  C1  UNL     1     -12.456  40.959 -46.670  1.00  0.00     0.042 C
BRANCH  40  42
HETATM   42  C18 UNL     1     -12.101  39.584 -44.678  1.00  0.00     0.285 C
BRANCH  42  43
HETATM   43  N14 UNL     1     -13.447  40.105 -44.468  1.00  0.00    -0.066 N
ATOM     44 3H14 UNL     1     -14.127  39.348 -44.400  1.00  0.00     0.275 HD
ATOM     45 2H14 UNL     1     -13.545  40.498 -43.531  1.00  0.00     0.275 HD
ATOM     46 1H14 UNL     1     -13.721  40.781 -45.180  1.00  0.00     0.275 HD
ENDBRANCH  42  43
BRANCH  42  47
HETATM   47  C19 UNL     1     -12.186  38.102 -44.607  1.00  0.00     0.215 C
HETATM   48  O5  UNL     1     -11.463  37.423 -45.349  1.00  0.00    -0.291 OA
BRANCH  47  49
HETATM   49  C20 UNL     1     -13.099  37.390 -43.685  1.00  0.00     0.389 C
BRANCH  49  50
HETATM   50  N15 UNL     1     -12.880  37.706 -42.300  1.00  0.00    -0.046 N
ATOM     51 3H15 UNL     1     -12.339  38.565 -42.206  1.00  0.00     0.277 HD
ATOM     52 2H15 UNL     1     -13.749  38.003 -41.856  1.00  0.00     0.277 HD
ATOM     53 1H15 UNL     1     -12.447  36.948 -41.771  1.00  0.00     0.277 HD
ENDBRANCH  49  50
BRANCH  49  54
HETATM   54  O6  UNL     1     -12.975  35.991 -43.849  1.00  0.00    -0.364 OA
ATOM     55  H6  UNL     1     -13.138  35.545 -43.026  1.00  0.00     0.212 HD
ENDBRANCH  49  54
ENDBRANCH  47  49
ENDBRANCH  42  47
ENDBRANCH  40  42
ENDBRANCH  39  40
ENDBRANCH   1  39
BRANCH   9  56
HETATM   56  N9  UNL     1      -8.509  40.657 -43.541  1.00  0.00    -0.218 N
HETATM   57  C17 UNL     1      -8.847  41.939 -43.339  1.00  0.00     0.220 A
HETATM   58  N10 UNL     1      -9.795  42.057 -42.399  1.00  0.00    -0.280 N
HETATM   59  N11 UNL     1     -10.050  40.809 -42.009  1.00  0.00    -0.007 NA
ATOM     60  H10 UNL     1     -10.228  42.915 -42.057  1.00  0.00     0.184 HD
HETATM   61  N12 UNL     1      -9.281  39.977 -42.693  1.00  0.00     0.001 NA
ENDBRANCH   9  56
TORSDOF 16
ENDMDL