MODEL 2
REMARK VINA RESULT: -8.509182546      2.116      3.548
REMARK  18 active torsions:
REMARK  status: ('A' for Active; 'I' for Inactive)
REMARK    1  A    between atoms: C1_2  and  O2_4
REMARK    2  A    between atoms: O2_4  and  C2_5
REMARK    3  A    between atoms: C3_6  and  C4_7
REMARK    4  A    between atoms: C5_8  and  O3_9
REMARK    5  A    between atoms: C6_12  and  C7_13
REMARK    6  A    between atoms: C7_13  and  O5_14
REMARK    7  A    between atoms: C7_13  and  O6_16
REMARK    8  A    between atoms: C8_18  and  O7_19
REMARK    9  A    between atoms: N4_25  and  C9_26
REMARK   10  A    between atoms: C9_26  and  C10_27
REMARK   11  A    between atoms: C10_27  and  O8_28
REMARK   12  A    between atoms: C10_27  and  C11_30
REMARK   13  A    between atoms: C11_30  and  O9_31
REMARK   14  A    between atoms: C11_30  and  C12_33
REMARK   15  A    between atoms: C12_33  and  N5_34
REMARK   16  A    between atoms: C14_36  and  C15_37
REMARK       I    between atoms: C15_37  and  N6_39
REMARK   17  A    between atoms: N6_39  and  N7_41
REMARK   18  A    between atoms: N7_41  and  C16_43
ROOT
HETATM    1  C10 UNL     1      -5.726  36.578 -47.043  1.00  0.00     0.168 C
ENDROOT
BRANCH   1   2
HETATM    2  C9  UNL     1      -5.576  35.190 -46.521  1.00  0.00     0.187 C
BRANCH   2   3
HETATM    3  N4  UNL     1      -6.770  34.861 -45.741  1.00  0.00    -0.252 N
HETATM    4  C2  UNL     1      -7.048  33.715 -45.117  1.00  0.00     0.200 A
HETATM    5  C3  UNL     1      -8.280  33.877 -44.545  1.00  0.00     0.120 A
HETATM    6  N2  UNL     1      -8.734  35.141 -44.838  1.00  0.00    -0.281 N
HETATM    7  N3  UNL     1      -7.801  35.711 -45.559  1.00  0.00    -0.238 N
ATOM      8  H2  UNL     1      -9.621  35.554 -44.552  1.00  0.00     0.188 HD
ATOM      9  H3  UNL     1      -7.848  36.660 -45.930  1.00  0.00     0.208 HD
BRANCH   4  10
HETATM   10  O2  UNL     1      -6.285  32.566 -45.035  1.00  0.00    -0.242 OA
BRANCH  10  11
HETATM   11  C1  UNL     1      -5.383  32.378 -44.003  1.00  0.00     0.379 C
HETATM   12  N1  UNL     1      -4.101  31.857 -44.325  1.00  0.00    -0.032 NA
HETATM   13  O1  UNL     1      -5.756  32.679 -42.841  1.00  0.00    -0.242 OA
ENDBRANCH  10  11
ENDBRANCH   4  10
BRANCH   5  14
HETATM   14  C4  UNL     1      -9.019  32.908 -43.761  1.00  0.00     0.090 A
HETATM   15  C5  UNL     1      -9.809  31.880 -44.226  1.00  0.00     0.199 A
HETATM   16  O4  UNL     1     -10.348  31.233 -43.203  1.00  0.00    -0.284 OA
HETATM   17  C6  UNL     1      -9.972  31.759 -42.065  1.00  0.00     0.144 A
HETATM   18  C8  UNL     1      -9.132  32.819 -42.370  1.00  0.00     0.118 A
BRANCH  15  19
HETATM   19  O3  UNL     1     -10.061  31.505 -45.551  1.00  0.00    -0.340 OA
ATOM     20  H3  UNL     1      -9.949  30.653 -45.956  1.00  0.00     0.220 HD
ENDBRANCH  15  19
BRANCH  17  21
HETATM   21  C7  UNL     1     -10.379  31.296 -40.707  1.00  0.00     0.315 C
BRANCH  21  22
HETATM   22  O5  UNL     1      -9.373  30.478 -40.216  1.00  0.00    -0.365 OA
ATOM     23  H5  UNL     1      -9.762  29.641 -39.991  1.00  0.00     0.213 HD
ENDBRANCH  21  22
BRANCH  21  24
HETATM   24  O6  UNL     1     -10.512  32.415 -39.845  1.00  0.00    -0.365 OA
ATOM     25  H6  UNL     1      -9.843  32.377 -39.171  1.00  0.00     0.213 HD
ENDBRANCH  21  24
ENDBRANCH  17  21
BRANCH  18  26
HETATM   26  O7  UNL     1      -8.493  33.669 -41.508  1.00  0.00    -0.357 OA
ATOM     27  H7  UNL     1      -8.917  34.416 -41.101  1.00  0.00     0.217 HD
ENDBRANCH  18  26
ENDBRANCH   5  14
ENDBRANCH   2   3
ENDBRANCH   1   2
BRANCH   1  28
HETATM   28  O8  UNL     1      -6.267  36.536 -48.326  1.00  0.00    -0.391 OA
ATOM     29  H8  UNL     1      -7.201  36.698 -48.281  1.00  0.00     0.210 HD
ENDBRANCH   1  28
BRANCH   1  30
HETATM   30  C11 UNL     1      -4.514  37.436 -47.050  1.00  0.00     0.168 C
BRANCH  30  31
HETATM   31  O9  UNL     1      -3.882  37.342 -48.290  1.00  0.00    -0.391 OA
ATOM     32  H9  UNL     1      -3.147  37.944 -48.318  1.00  0.00     0.210 HD
ENDBRANCH  30  31
BRANCH  30  33
HETATM   33  C12 UNL     1      -4.753  38.870 -46.732  1.00  0.00     0.184 C
BRANCH  33  34
HETATM   34  N5  UNL     1      -5.640  38.957 -45.582  1.00  0.00    -0.284 N
HETATM   35  C13 UNL     1      -6.752  39.743 -45.529  1.00  0.00     0.148 A
HETATM   36  C14 UNL     1      -7.330  39.522 -44.284  1.00  0.00     0.136 A
HETATM   37  N10 UNL     1      -6.568  38.634 -43.647  1.00  0.00    -0.280 N
HETATM   38  N11 UNL     1      -5.570  38.322 -44.452  1.00  0.00    -0.240 N
ATOM     39  H10 UNL     1      -6.726  38.264 -42.710  1.00  0.00     0.189 HD
ATOM     40  H11 UNL     1      -4.831  37.661 -44.214  1.00  0.00     0.208 HD
BRANCH  36  41
HETATM   41  C15 UNL     1      -8.531  40.156 -43.818  1.00  0.00     0.289 C
HETATM   42  O10 UNL     1      -9.262  40.770 -44.668  1.00  0.00    -0.264 OA
HETATM   43  N6  UNL     1      -8.947  40.134 -42.480  1.00  0.00    -0.262 N
ATOM     44  H6  UNL     1      -8.369  39.642 -41.799  1.00  0.00     0.190 HD
BRANCH  43  45
HETATM   45  N7  UNL     1     -10.114  40.754 -42.036  1.00  0.00    -0.269 N
ATOM     46  H7  UNL     1     -10.042  41.643 -41.541  1.00  0.00     0.190 HD
BRANCH  45  47
HETATM   47  C16 UNL     1     -11.435  40.176 -42.253  1.00  0.00     0.190 C
HETATM   48  N8  UNL     1     -11.948  40.006 -43.404  1.00  0.00    -0.360 N
HETATM   49  C17 UNL     1     -13.253  39.421 -43.353  1.00  0.00     0.142 C
ATOM     50  H8  UNL     1     -11.479  40.261 -44.273  1.00  0.00     0.162 HD
HETATM   51  C18 UNL     1     -13.447  39.100 -41.896  1.00  0.00     0.142 C
HETATM   52  N9  UNL     1     -12.326  39.733 -41.263  1.00  0.00    -0.360 N
ATOM     53  H9  UNL     1     -12.196  39.842 -40.257  1.00  0.00     0.162 HD
ENDBRANCH  45  47
ENDBRANCH  43  45
ENDBRANCH  36  41
ENDBRANCH  33  34
ENDBRANCH  30  33
ENDBRANCH   1  30
TORSDOF 18
ENDMDL