MODEL 4
REMARK VINA RESULT: -8.867489356      2.478      6.437
REMARK  16 active torsions:
REMARK  status: ('A' for Active; 'I' for Inactive)
REMARK    1  A    between atoms: C2_2  and  O1_3
REMARK    2  A    between atoms: C2_2  and  C3_5
REMARK       I    between atoms: C3_5  and  N1_7
REMARK    3  A    between atoms: N1_7  and  C4_9
REMARK    4  A    between atoms: C4_9  and  C5_10
REMARK    5  A    between atoms: C6_12  and  N2_13
REMARK    6  A    between atoms: C7_14  and  N3_15
REMARK    7  A    between atoms: N4_18  and  C8_19
REMARK    8  A    between atoms: C8_19  and  C9_20
REMARK    9  A    between atoms: C9_20  and  O4_21
REMARK   10  A    between atoms: C9_20  and  C10_23
REMARK   11  A    between atoms: C10_23  and  O5_24
REMARK   12  A    between atoms: C12_27  and  N5_28
REMARK   13  A    between atoms: C13_33  and  C14_34
REMARK       I    between atoms: C14_34  and  N7_36
REMARK   14  A    between atoms: N8_38  and  C15_40
REMARK   15  A    between atoms: C16_45  and  N11_46
REMARK   16  A    between atoms: N12_49  and  N13_50
ROOT
HETATM    1  N2  UNL     1      -7.429  38.911 -45.331  1.00  0.00    -0.114 N
HETATM    2  C7  UNL     1      -6.904  39.399 -46.487  1.00  0.00     0.690 A
HETATM    3  N4  UNL     1      -6.233  38.407 -47.096  1.00  0.00    -0.148 N
HETATM    4  C11 UNL     1      -6.332  37.299 -46.332  1.00  0.00     0.144 A
HETATM    5  C12 UNL     1      -5.860  36.009 -46.441  1.00  0.00     0.132 A
HETATM    6  N6  UNL     1      -6.141  35.115 -45.482  1.00  0.00    -0.322 N
ATOM      7  H6  UNL     1      -5.781  34.167 -45.586  1.00  0.00     0.169 HD
HETATM    8  C13 UNL     1      -6.880  35.404 -44.381  1.00  0.00     0.179 A
HETATM    9  N14 UNL     1      -7.339  36.661 -44.276  1.00  0.00    -0.321 N
ATOM     10  H14 UNL     1      -7.899  36.914 -43.462  1.00  0.00     0.169 HD
HETATM   11  C17 UNL     1      -7.089  37.600 -45.206  1.00  0.00     0.162 A
ENDROOT
BRANCH   8  12
HETATM   12  C14 UNL     1      -7.155  34.386 -43.368  1.00  0.00     0.304 C
HETATM   13  O6  UNL     1      -6.333  34.243 -42.431  1.00  0.00    -0.263 OA
HETATM   14  N7  UNL     1      -8.296  33.570 -43.406  1.00  0.00    -0.249 N
HETATM   15  N8  UNL     1      -8.529  32.900 -44.444  1.00  0.00    -0.126 N
ATOM     16  H7  UNL     1      -8.927  33.523 -42.605  1.00  0.00     0.191 HD
ATOM     17  H8  UNL     1      -7.896  32.952 -45.242  1.00  0.00     0.206 HD
BRANCH  15  18
HETATM   18  C15 UNL     1      -9.681  32.069 -44.498  1.00  0.00     0.748 A
HETATM   19  N9  UNL     1     -10.727  32.260 -43.658  1.00  0.00    -0.114 N
HETATM   20  N10 UNL     1     -11.609  31.327 -43.978  1.00  0.00    -0.116 N
ATOM     21  H9  UNL     1     -10.816  32.972 -42.934  1.00  0.00     0.206 HD
HETATM   22  C16 UNL     1     -11.164  30.558 -44.980  1.00  0.00     0.727 A
ATOM     23  H10 UNL     1     -12.513  31.209 -43.520  1.00  0.00     0.206 HD
HETATM   24  N12 UNL     1      -9.935  31.030 -45.312  1.00  0.00     0.087 N
BRANCH  22  25
HETATM   25  N11 UNL     1     -11.743  29.555 -45.557  1.00  0.00    -0.231 N
ATOM     26 2H11 UNL     1     -11.907  29.482 -46.561  1.00  0.00     0.174 HD
ATOM     27 1H11 UNL     1     -12.121  28.704 -45.139  1.00  0.00     0.174 HD
ENDBRANCH  22  25
BRANCH  24  28
HETATM   28  N13 UNL     1      -9.076  30.553 -46.303  1.00  0.00    -0.309 N
ATOM     29 2H13 UNL     1      -8.726  29.602 -46.420  1.00  0.00     0.178 HD
ATOM     30 1H13 UNL     1      -8.679  31.112 -47.058  1.00  0.00     0.178 HD
ENDBRANCH  24  28
ENDBRANCH  15  18
ENDBRANCH   8  12
BRANCH   5  31
HETATM   31  N5  UNL     1      -5.157  35.724 -47.485  1.00  0.00    -0.383 N
ATOM     32  H52 UNL     1      -4.821  36.431 -48.140  1.00  0.00     0.157 HD
ATOM     33  H51 UNL     1      -4.936  34.741 -47.645  1.00  0.00     0.157 HD
ENDBRANCH   5  31
BRANCH   1  34
HETATM   34  C6  UNL     1      -8.223  39.660 -44.385  1.00  0.00     0.405 C
HETATM   35  O3  UNL     1      -9.422  40.116 -44.931  1.00  0.00    -0.326 OA
HETATM   36  C5  UNL     1      -9.837  41.161 -44.110  1.00  0.00     0.243 C
HETATM   37  C18 UNL     1      -8.576  41.729 -43.612  1.00  0.00     0.293 C
HETATM   38  O7  UNL     1      -7.559  40.835 -43.920  1.00  0.00    -0.268 OA
HETATM   39  O8  UNL     1      -8.366  42.818 -43.007  1.00  0.00    -0.262 OA
BRANCH  36  40
HETATM   40  C4  UNL     1     -10.622  40.567 -42.968  1.00  0.00     0.165 C
BRANCH  40  41
HETATM   41  N1  UNL     1     -11.735  39.768 -43.450  1.00  0.00    -0.356 N
HETATM   42  C3  UNL     1     -12.820  39.390 -42.641  1.00  0.00     0.246 C
HETATM   43  O2  UNL     1     -12.836  39.760 -41.443  1.00  0.00    -0.271 OA
ATOM     44  H1  UNL     1     -11.729  39.465 -44.424  1.00  0.00     0.162 HD
BRANCH  42  45
HETATM   45  C2  UNL     1     -13.923  38.576 -43.183  1.00  0.00     0.205 C
HETATM   46  C1  UNL     1     -13.427  37.145 -43.329  1.00  0.00     0.049 C
BRANCH  45  47
HETATM   47  O1  UNL     1     -15.041  38.573 -42.384  1.00  0.00    -0.387 OA
ATOM     48  H1  UNL     1     -15.799  38.385 -42.926  1.00  0.00     0.210 HD
ENDBRANCH  45  47
ENDBRANCH  42  45
ENDBRANCH  40  41
ENDBRANCH  36  40
ENDBRANCH   1  34
BRANCH   3  49
HETATM   49  C8  UNL     1      -5.521  38.465 -48.338  1.00  0.00     0.150 C
BRANCH  49  50
HETATM   50  C9  UNL     1      -4.296  38.906 -48.433  1.00  0.00     0.083 C
BRANCH  50  51
HETATM   51  O4  UNL     1      -3.268  38.260 -47.798  1.00  0.00    -0.361 OA
ATOM     52  H4  UNL     1      -2.527  38.746 -47.454  1.00  0.00     0.217 HD
ENDBRANCH  50  51
BRANCH  50  53
HETATM   53  C10 UNL     1      -4.010  40.110 -49.232  1.00  0.00     0.229 C
BRANCH  53  54
HETATM   54  O5  UNL     1      -4.570  41.207 -48.582  1.00  0.00    -0.394 OA
ATOM     55  H5  UNL     1      -5.312  41.508 -49.093  1.00  0.00     0.209 HD
ENDBRANCH  53  54
ENDBRANCH  50  53
ENDBRANCH  49  50
ENDBRANCH   3  49
BRANCH   2  56
HETATM   56  N3  UNL     1      -6.996  40.593 -46.971  1.00  0.00    -0.234 N
ATOM     57  H32 UNL     1      -7.739  40.883 -47.606  1.00  0.00     0.174 HD
ATOM     58  H31 UNL     1      -6.383  41.391 -46.811  1.00  0.00     0.174 HD
ENDBRANCH   2  56
TORSDOF 16
ENDMDL