MODEL 2
REMARK VINA RESULT: -9.203041783      2.739      7.636
REMARK  16 active torsions:
REMARK  status: ('A' for Active; 'I' for Inactive)
REMARK    1  A    between atoms: C2_2  and  N2_7
REMARK    2  A    between atoms: N1_3  and  O1_5
REMARK    3  A    between atoms: N2_7  and  N8_43
REMARK    4  A    between atoms: N3_8  and  O2_10
REMARK    5  A    between atoms: O2_10  and  C3_11
REMARK    6  A    between atoms: C4_14  and  C5_15
REMARK    7  A    between atoms: N6_19  and  C7_21
REMARK    8  A    between atoms: C7_21  and  N7_22
REMARK    9  A    between atoms: C7_21  and  O3_26
REMARK   10  A    between atoms: C9_29  and  C10_30
REMARK   11  A    between atoms: C10_30  and  O4_31
REMARK   12  A    between atoms: C10_30  and  O5_33
REMARK   13  A    between atoms: C12_39  and  C13_40
REMARK   14  A    between atoms: N8_43  and  N9_45
REMARK   15  A    between atoms: N9_45  and  O11_46
REMARK   16  A    between atoms: N9_45  and  C14_48
ROOT
HETATM    1  C3  UNL     1      -6.873  36.059 -44.976  1.00  0.00     0.197 A
HETATM    2  N4  UNL     1      -7.734  35.149 -44.370  1.00  0.00    -0.311 N
ATOM      3  H4  UNL     1      -8.098  35.386 -43.446  1.00  0.00     0.170 HD
HETATM    4  C4  UNL     1      -8.114  34.004 -44.901  1.00  0.00     0.205 A
HETATM    5  O7  UNL     1      -7.640  33.714 -46.087  1.00  0.00    -0.253 OA
HETATM    6  C11 UNL     1      -6.829  34.501 -46.735  1.00  0.00     0.311 A
HETATM    7  O8  UNL     1      -6.395  34.171 -47.889  1.00  0.00    -0.258 OA
HETATM    8  C12 UNL     1      -6.385  35.730 -46.231  1.00  0.00     0.169 A
ENDROOT
BRANCH   1   9
HETATM    9  O2  UNL     1      -6.576  37.169 -44.331  1.00  0.00    -0.201 OA
BRANCH   9  10
HETATM   10  N3  UNL     1      -6.904  38.251 -43.797  1.00  0.00    -0.176 N
HETATM   11  N2  UNL     1      -7.179  39.402 -44.220  1.00  0.00    -0.150 N
ATOM     12  H3  UNL     1      -6.962  38.183 -42.781  1.00  0.00     0.218 HD
BRANCH  11  13
HETATM   13  C2  UNL     1      -7.146  39.668 -45.605  1.00  0.00     0.140 C
HETATM   14  C1  UNL     1      -6.039  40.454 -46.226  1.00  0.00     0.095 C
HETATM   15  N1  UNL     1      -8.111  39.208 -46.334  1.00  0.00    -0.254 N
ATOM     16  H1  UNL     1      -8.103  39.391 -47.338  1.00  0.00     0.195 HD
BRANCH  15  17
HETATM   17  O1  UNL     1      -9.142  38.484 -45.798  1.00  0.00    -0.288 OA
ATOM     18  H1  UNL     1     -10.025  38.531 -46.147  1.00  0.00     0.244 HD
ENDBRANCH  15  17
ENDBRANCH  11  13
BRANCH  11  19
HETATM   19  N8  UNL     1      -7.513  40.402 -43.319  1.00  0.00    -0.207 N
ATOM     20  H8  UNL     1      -7.026  40.433 -42.423  1.00  0.00     0.207 HD
BRANCH  19  21
HETATM   21  N9  UNL     1      -8.486  41.368 -43.583  1.00  0.00    -0.018 NA
BRANCH  21  22
HETATM   22  O11 UNL     1      -8.245  42.519 -42.902  1.00  0.00    -0.286 OA
ATOM     23  H11 UNL     1      -8.015  43.231 -43.489  1.00  0.00     0.239 HD
ENDBRANCH  21  22
BRANCH  21  24
HETATM   24  C14 UNL     1      -9.739  40.837 -43.175  1.00  0.00     0.223 A
HETATM   25  N10 UNL     1     -10.166  40.810 -41.901  1.00  0.00    -0.270 N
HETATM   26  N11 UNL     1     -11.345  40.259 -41.879  1.00  0.00    -0.271 N
ATOM     27  H10 UNL     1      -9.655  41.161 -41.091  1.00  0.00     0.189 HD
HETATM   28  C15 UNL     1     -11.706  39.920 -43.126  1.00  0.00     0.209 A
ATOM     29  H11 UNL     1     -11.909  40.109 -41.042  1.00  0.00     0.189 HD
HETATM   30  N12 UNL     1     -12.886  39.302 -43.595  1.00  0.00    -0.062 NA
HETATM   31  N13 UNL     1     -10.687  40.290 -43.923  1.00  0.00    -0.301 N
ATOM     32  H13 UNL     1     -10.650  40.170 -44.935  1.00  0.00     0.171 HD
ENDBRANCH  21  24
ENDBRANCH  19  21
ENDBRANCH  11  19
ENDBRANCH   9  10
ENDBRANCH   1   9
BRANCH   8  33
HETATM   33  C13 UNL     1      -5.484  36.549 -47.011  1.00  0.00     0.220 C
HETATM   34  O9  UNL     1      -4.254  36.636 -46.957  1.00  0.00    -0.644 OA
HETATM   35  O10 UNL     1      -6.073  37.384 -47.986  1.00  0.00    -0.644 OA
ENDBRANCH   8  33
BRANCH   4  36
HETATM   36  C5  UNL     1      -9.024  33.067 -44.233  1.00  0.00     0.202 A
HETATM   37  N5  UNL     1      -8.934  32.816 -42.916  1.00  0.00    -0.319 N
HETATM   38  C6  UNL     1      -9.727  31.982 -42.259  1.00  0.00     0.108 A
ATOM     39  H5  UNL     1      -8.207  33.298 -42.388  1.00  0.00     0.169 HD
HETATM   40  N6  UNL     1      -9.641  31.739 -40.999  1.00  0.00    -0.328 N
HETATM   41  C8  UNL     1     -10.710  31.330 -42.976  1.00  0.00     0.086 A
ATOM     42  H6  UNL     1      -8.913  32.220 -40.472  1.00  0.00     0.165 HD
HETATM   43  C9  UNL     1     -10.795  31.600 -44.342  1.00  0.00     0.113 A
HETATM   44  O6  UNL     1      -9.950  32.456 -44.913  1.00  0.00    -0.289 OA
BRANCH  40  45
HETATM   45  C7  UNL     1     -10.493  30.842 -40.286  1.00  0.00     0.425 C
BRANCH  45  46
HETATM   46  N7  UNL     1     -10.858  31.410 -39.018  1.00  0.00    -0.035 N
ATOM     47  H73 UNL     1     -10.253  31.082 -38.265  1.00  0.00     0.279 HD
ATOM     48  H72 UNL     1     -10.636  32.404 -38.966  1.00  0.00     0.279 HD
ATOM     49  H71 UNL     1     -11.842  31.229 -38.823  1.00  0.00     0.279 HD
ENDBRANCH  45  46
BRANCH  45  50
HETATM   50  O3  UNL     1      -9.756  29.673 -40.024  1.00  0.00    -0.355 OA
ATOM     51  H3  UNL     1     -10.375  28.982 -39.822  1.00  0.00     0.213 HD
ENDBRANCH  45  50
ENDBRANCH  40  45
BRANCH  43  52
HETATM   52  C10 UNL     1     -11.845  30.901 -45.101  1.00  0.00     0.312 C
BRANCH  52  53
HETATM   53  O4  UNL     1     -12.965  30.638 -44.319  1.00  0.00    -0.365 OA
ATOM     54  H4  UNL     1     -13.773  30.751 -44.806  1.00  0.00     0.213 HD
ENDBRANCH  52  53
BRANCH  52  55
HETATM   55  O5  UNL     1     -12.277  31.624 -46.206  1.00  0.00    -0.365 OA
ATOM     56  H5  UNL     1     -13.222  31.622 -46.298  1.00  0.00     0.213 HD
ENDBRANCH  52  55
ENDBRANCH  43  52
ENDBRANCH   4  36
TORSDOF 16
ENDMDL