MODEL 4
REMARK VINA RESULT: -8.136387497      2.240      4.102
REMARK  15 active torsions:
REMARK  status: ('A' for Active; 'I' for Inactive)
REMARK    1  A    between atoms: O1_2  and  C2_3
REMARK    2  A    between atoms: C2_3  and  C3_4
REMARK       I    between atoms: C3_4  and  N1_6
REMARK    3  A    between atoms: C4_7  and  O3_8
REMARK    4  A    between atoms: C5_10  and  C6_11
REMARK    5  A    between atoms: C6_11  and  O4_12
REMARK    6  A    between atoms: O4_12  and  S1_13
REMARK    7  A    between atoms: S1_13  and  N2_16
REMARK    8  A    between atoms: N2_16  and  O7_18
REMARK    9  A    between atoms: O7_18  and  C7_19
REMARK   10  A    between atoms: C8_22  and  C9_23
REMARK   11  A    between atoms: C11_29  and  N5_30
REMARK   12  A    between atoms: C12_35  and  N7_36
REMARK   13  A    between atoms: N9_42  and  O10_43
REMARK   14  A    between atoms: C15_47  and  N10_48
REMARK   15  A    between atoms: N10_48  and  O12_50
ROOT
HETATM    1  N2  UNL     1      -5.961  37.479 -48.587  1.00  0.00    -0.161 N
ATOM      2  H2  UNL     1      -6.555  37.263 -49.387  1.00  0.00     0.210 HD
ENDROOT
BRANCH   1   3
HETATM    3  S1  UNL     1      -5.830  38.916 -47.987  1.00  0.00     0.381 S
HETATM    4  O5  UNL     1      -5.037  38.673 -46.681  1.00  0.00    -0.174 OA
HETATM    5  O6  UNL     1      -4.847  39.827 -48.968  1.00  0.00    -0.174 OA
BRANCH   3   6
HETATM    6  O4  UNL     1      -7.248  39.685 -47.645  1.00  0.00    -0.252 OA
BRANCH   6   7
HETATM    7  C6  UNL     1      -8.041  38.980 -46.825  1.00  0.00     0.256 C
BRANCH   7   8
HETATM    8  C5  UNL     1      -8.539  39.560 -45.571  1.00  0.00     0.120 A
HETATM    9  C4  UNL     1      -9.853  39.199 -45.215  1.00  0.00     0.179 A
HETATM   10  N1  UNL     1     -10.470  39.694 -44.150  1.00  0.00    -0.237 N
HETATM   11  C3  UNL     1     -11.799  39.342 -43.778  1.00  0.00     0.255 C
HETATM   12  C15 UNL     1      -9.812  40.600 -43.347  1.00  0.00     0.208 A
HETATM   13  O2  UNL     1     -12.291  39.859 -42.727  1.00  0.00    -0.270 OA
HETATM   14  C14 UNL     1      -8.538  40.973 -43.665  1.00  0.00     0.318 A
HETATM   15  N9  UNL     1      -7.948  40.435 -44.774  1.00  0.00    -0.182 N
HETATM   16  O11 UNL     1      -7.874  41.806 -42.965  1.00  0.00    -0.261 OA
BRANCH   9  17
HETATM   17  O3  UNL     1     -10.477  38.276 -46.057  1.00  0.00    -0.344 OA
ATOM     18  H3  UNL     1      -9.977  37.728 -46.651  1.00  0.00     0.219 HD
ENDBRANCH   9  17
BRANCH  11  19
HETATM   19  C2  UNL     1     -12.646  38.416 -44.533  1.00  0.00     0.270 C
BRANCH  19  20
HETATM   20  O1  UNL     1     -12.460  37.081 -44.306  1.00  0.00    -0.387 OA
HETATM   21  C1  UNL     1     -13.197  36.461 -43.354  1.00  0.00     0.202 C
ENDBRANCH  19  20
ENDBRANCH  11  19
BRANCH  12  22
HETATM   22  N10 UNL     1     -10.407  41.081 -42.310  1.00  0.00    -0.248 N
ATOM     23  H10 UNL     1     -11.155  41.767 -42.405  1.00  0.00     0.196 HD
BRANCH  22  24
HETATM   24  O12 UNL     1     -10.005  40.642 -41.075  1.00  0.00    -0.288 OA
ATOM     25  H12 UNL     1     -10.543  39.995 -40.635  1.00  0.00     0.244 HD
ENDBRANCH  22  24
ENDBRANCH  12  22
BRANCH  15  26
HETATM   26  O10 UNL     1      -6.692  40.921 -45.118  1.00  0.00    -0.280 OA
ATOM     27  H10 UNL     1      -5.939  40.661 -44.601  1.00  0.00     0.245 HD
ENDBRANCH  15  26
ENDBRANCH   7   8
ENDBRANCH   6   7
ENDBRANCH   3   6
ENDBRANCH   1   3
BRANCH   1  28
HETATM   28  O7  UNL     1      -5.193  36.517 -47.929  1.00  0.00    -0.206 OA
BRANCH  28  29
HETATM   29  C7  UNL     1      -5.827  35.371 -47.457  1.00  0.00     0.202 A
HETATM   30  N3  UNL     1      -6.058  34.303 -48.231  1.00  0.00    -0.314 N
HETATM   31  C8  UNL     1      -6.661  33.187 -47.817  1.00  0.00     0.186 A
ATOM     32  H3  UNL     1      -5.754  34.346 -49.203  1.00  0.00     0.170 HD
HETATM   33  N4  UNL     1      -7.057  33.153 -46.530  1.00  0.00    -0.332 N
HETATM   34  C10 UNL     1      -6.859  34.192 -45.690  1.00  0.00     0.110 A
ATOM     35  H4  UNL     1      -7.522  32.315 -46.178  1.00  0.00     0.168 HD
HETATM   36  C11 UNL     1      -7.255  34.174 -44.376  1.00  0.00     0.144 A
HETATM   37  C13 UNL     1      -6.227  35.349 -46.140  1.00  0.00     0.133 A
HETATM   38  N6  UNL     1      -7.021  35.246 -43.604  1.00  0.00    -0.175 N
HETATM   39  C12 UNL     1      -6.408  36.365 -44.045  1.00  0.00     0.678 A
ATOM     40  H6  UNL     1      -7.323  35.213 -42.630  1.00  0.00     0.186 HD
HETATM   41  N8  UNL     1      -6.019  36.394 -45.318  1.00  0.00    -0.185 N
ATOM     42  H8  UNL     1      -5.553  37.226 -45.678  1.00  0.00     0.184 HD
BRANCH  31  43
HETATM   43  C9  UNL     1      -6.889  32.051 -48.719  1.00  0.00     0.245 C
HETATM   44  O8  UNL     1      -8.033  31.809 -49.125  1.00  0.00    -0.642 OA
HETATM   45  O9  UNL     1      -5.820  31.256 -49.109  1.00  0.00    -0.642 OA
ENDBRANCH  31  43
BRANCH  36  46
HETATM   46  N5  UNL     1      -7.846  33.123 -43.917  1.00  0.00    -0.383 N
ATOM     47  H52 UNL     1      -7.976  32.289 -44.489  1.00  0.00     0.157 HD
ATOM     48  H51 UNL     1      -8.190  33.130 -42.958  1.00  0.00     0.157 HD
ENDBRANCH  36  46
BRANCH  39  49
HETATM   49  N7  UNL     1      -6.193  37.376 -43.295  1.00  0.00    -0.234 N
ATOM     50  H72 UNL     1      -5.317  37.890 -43.381  1.00  0.00     0.174 HD
ATOM     51  H71 UNL     1      -6.866  37.701 -42.601  1.00  0.00     0.174 HD
ENDBRANCH  39  49
ENDBRANCH  28  29
ENDBRANCH   1  28
TORSDOF 15
ENDMDL