MODEL 2
REMARK VINA RESULT: -9.507316194      4.326     10.429
REMARK  18 active torsions:
REMARK  status: ('A' for Active; 'I' for Inactive)
REMARK    1  A    between atoms: C2_2  and  C3_3
REMARK    2  A    between atoms: C2_2  and  N1_6
REMARK    3  A    between atoms: C3_3  and  O1_4
REMARK    4  A    between atoms: C4_7  and  O2_8
REMARK    5  A    between atoms: C6_13  and  N3_14
REMARK    6  A    between atoms: N3_14  and  C7_15
REMARK    7  A    between atoms: C7_15  and  O3_16
REMARK    8  A    between atoms: C7_15  and  C8_18
REMARK    9  A    between atoms: C9_21  and  N5_22
REMARK   10  A    between atoms: N5_22  and  C10_24
REMARK   11  A    between atoms: C10_24  and  C11_25
REMARK   12  A    between atoms: C11_25  and  O4_26
REMARK   13  A    between atoms: O4_26  and  C12_27
REMARK   14  A    between atoms: C12_27  and  C13_29
REMARK   15  A    between atoms: N8_34  and  C14_35
REMARK   16  A    between atoms: C14_35  and  C15_36
REMARK   17  A    between atoms: N12_46  and  N13_47
REMARK   18  A    between atoms: C19_51  and  O8_52
ROOT
HETATM    1  C8  UNL     1      -7.025  34.607 -44.267  1.00  0.00     0.184 A
HETATM    2  N4  UNL     1      -6.414  35.711 -44.020  1.00  0.00    -0.172 N
ATOM      3  H4  UNL     1      -6.003  35.838 -43.095  1.00  0.00     0.186 HD
HETATM    4  C9  UNL     1      -6.278  36.770 -44.974  1.00  0.00     0.676 A
HETATM    5  N10 UNL     1      -6.777  36.613 -46.127  1.00  0.00    -0.210 N
ATOM      6  H10 UNL     1      -6.671  37.382 -46.788  1.00  0.00     0.179 HD
HETATM    7  C17 UNL     1      -7.478  35.450 -46.585  1.00  0.00     0.263 A
HETATM    8  N11 UNL     1      -7.604  34.473 -45.530  1.00  0.00    -0.355 N
ATOM      9  H11 UNL     1      -8.150  33.634 -45.718  1.00  0.00     0.163 HD
ENDROOT
BRANCH   1  10
HETATM   10  C7  UNL     1      -7.106  33.581 -43.187  1.00  0.00     0.263 C
BRANCH  10  11
HETATM   11  N3  UNL     1      -8.141  32.907 -42.764  1.00  0.00    -0.340 NA
BRANCH  11  12
HETATM   12  C6  UNL     1      -9.071  32.280 -42.386  1.00  0.00     0.284 A
HETATM   13  N2  UNL     1      -9.389  32.235 -41.039  1.00  0.00    -0.309 N
HETATM   14  C5  UNL     1     -10.423  31.451 -40.824  1.00  0.00     0.121 A
ATOM     15  H2  UNL     1      -8.888  32.743 -40.310  1.00  0.00     0.170 HD
HETATM   16  C4  UNL     1     -11.283  30.915 -39.871  1.00  0.00     0.174 A
HETATM   17  C18 UNL     1     -10.792  30.969 -42.051  1.00  0.00     0.142 A
HETATM   18  N1  UNL     1     -12.169  30.116 -40.459  1.00  0.00    -0.298 N
HETATM   19  C19 UNL     1     -11.872  30.147 -41.799  1.00  0.00     0.176 A
HETATM   20  N12 UNL     1      -9.982  31.465 -43.007  1.00  0.00    -0.213 N
BRANCH  16  21
HETATM   21  O2  UNL     1     -11.172  31.213 -38.517  1.00  0.00    -0.344 OA
ATOM     22  H2  UNL     1     -10.446  31.019 -37.935  1.00  0.00     0.219 HD
ENDBRANCH  16  21
BRANCH  18  23
HETATM   23  C2  UNL     1     -13.231  29.327 -39.820  1.00  0.00     0.114 C
HETATM   24  C1  UNL     1     -14.577  29.549 -40.521  1.00  0.00     0.035 C
BRANCH  23  25
HETATM   25  C3  UNL     1     -12.948  27.843 -40.025  1.00  0.00     0.189 C
BRANCH  25  26
HETATM   26  O1  UNL     1     -11.896  27.514 -39.188  1.00  0.00    -0.399 OA
ATOM     27  H1  UNL     1     -11.095  27.723 -39.654  1.00  0.00     0.209 HD
ENDBRANCH  25  26
ENDBRANCH  23  25
ENDBRANCH  18  23
BRANCH  19  28
HETATM   28  O8  UNL     1     -12.580  29.429 -42.769  1.00  0.00    -0.344 OA
ATOM     29  H8  UNL     1     -12.407  29.488 -43.702  1.00  0.00     0.219 HD
ENDBRANCH  19  28
BRANCH  20  30
HETATM   30  N13 UNL     1     -10.050  31.211 -44.349  1.00  0.00    -0.334 N
ATOM     31 2H13 UNL     1     -10.305  31.873 -45.083  1.00  0.00     0.177 HD
ATOM     32 1H13 UNL     1      -9.850  30.320 -44.802  1.00  0.00     0.177 HD
ENDBRANCH  20  30
ENDBRANCH  11  12
ENDBRANCH  10  11
BRANCH  10  33
HETATM   33  O3  UNL     1      -5.960  33.346 -42.586  1.00  0.00    -0.333 OA
ATOM     34  H3  UNL     1      -5.447  32.616 -42.914  1.00  0.00     0.220 HD
ENDBRANCH  10  33
ENDBRANCH   1  10
BRANCH   4  35
HETATM   35  N5  UNL     1      -5.658  37.979 -44.488  1.00  0.00    -0.224 N
ATOM     36  H5  UNL     1      -4.785  37.916 -43.963  1.00  0.00     0.177 HD
BRANCH  35  37
HETATM   37  C10 UNL     1      -6.236  39.253 -44.723  1.00  0.00     0.165 C
BRANCH  37  38
HETATM   38  C11 UNL     1      -7.488  39.564 -43.978  1.00  0.00     0.199 C
BRANCH  38  39
HETATM   39  O4  UNL     1      -7.635  40.991 -44.047  1.00  0.00    -0.315 OA
BRANCH  39  40
HETATM   40  C12 UNL     1      -8.606  41.689 -43.330  1.00  0.00     0.315 C
HETATM   41  O5  UNL     1      -8.411  42.857 -43.040  1.00  0.00    -0.257 OA
BRANCH  40  42
HETATM   42  C13 UNL     1      -9.825  40.995 -42.942  1.00  0.00     0.167 A
HETATM   43  N6  UNL     1     -10.101  40.531 -41.715  1.00  0.00    -0.278 N
HETATM   44  N7  UNL     1     -11.254  39.898 -41.776  1.00  0.00    -0.238 N
ATOM     45  H6  UNL     1      -9.522  40.649 -40.883  1.00  0.00     0.189 HD
HETATM   46  N8  UNL     1     -11.763  39.916 -42.984  1.00  0.00    -0.252 N
ATOM     47  H7  UNL     1     -11.700  39.446 -40.978  1.00  0.00     0.208 HD
HETATM   48  C16 UNL     1     -10.881  40.607 -43.750  1.00  0.00     0.169 A
HETATM   49  N9  UNL     1     -10.967  40.910 -45.123  1.00  0.00    -0.078 NA
BRANCH  46  50
HETATM   50  C14 UNL     1     -12.987  39.376 -43.536  1.00  0.00     0.265 C
BRANCH  50  51
HETATM   51  C15 UNL     1     -12.823  37.946 -43.857  1.00  0.00     0.193 C
HETATM   52  O6  UNL     1     -13.392  37.087 -43.108  1.00  0.00    -0.647 OA
HETATM   53  O7  UNL     1     -12.078  37.552 -44.934  1.00  0.00    -0.647 OA
ENDBRANCH  50  51
ENDBRANCH  46  50
ENDBRANCH  40  42
ENDBRANCH  39  40
ENDBRANCH  38  39
ENDBRANCH  37  38
ENDBRANCH  35  37
ENDBRANCH   4  35
TORSDOF 18
ENDMDL