MODEL 5
REMARK VINA RESULT: -4.368634412      2.531      4.533
REMARK  2 active torsions:
REMARK  status: ('A' for Active; 'I' for Inactive)
REMARK    1  A    between atoms: N1_2  and  N2_4
REMARK    2  A    between atoms: N3_7  and  N4_8
ROOT
HETATM    1  N2  UNL     1      29.255  17.893   6.983  1.00  0.00    -0.243 N
HETATM    2  C2  UNL     1      29.213  17.672   8.321  1.00  0.00     0.138 A
HETATM    3  C3  UNL     1      28.367  18.584   8.902  1.00  0.00     0.138 A
HETATM    4  N3  UNL     1      27.881  19.373   7.932  1.00  0.00    -0.245 N
HETATM    5  C4  UNL     1      28.432  18.934   6.787  1.00  0.00     0.217 A
HETATM    6  S1  UNL     1      28.141  19.588   5.312  1.00  0.00    -0.037 SA
ENDROOT
BRANCH   1   7
HETATM    7  N1  UNL     1      29.991  17.193   6.022  1.00  0.00    -0.332 N
HETATM    8  C1  UNL     1      31.379  17.505   5.812  1.00  0.00     0.168 C
ATOM      9  H1  UNL     1      29.543  16.461   5.469  1.00  0.00     0.180 HD
ENDBRANCH   1   7
BRANCH   4  10
HETATM   10  N4  UNL     1      26.979  20.444   8.060  1.00  0.00    -0.337 N
ATOM     11  H42 UNL     1      26.146  20.460   8.649  1.00  0.00     0.177 HD
ATOM     12  H41 UNL     1      27.014  21.352   7.597  1.00  0.00     0.177 HD
ENDBRANCH   4  10
TORSDOF 2
ENDMDL