MODEL 1
REMARK VINA RESULT: -6.068488015      0.000      0.000
REMARK  2 active torsions:
REMARK  status: ('A' for Active; 'I' for Inactive)
REMARK    1  A    between atoms: C2_2  and  N1_3
REMARK    2  A    between atoms: C5_12  and  C6_13
ROOT
HETATM    1  C1  UNL     1      27.802  16.510   7.522  1.00  0.00     0.073 C
HETATM    2  C2  UNL     1      28.575  17.514   8.337  1.00  0.00     0.218 C
HETATM    3  C4  UNL     1      29.366  18.505   7.483  1.00  0.00     0.101 C
HETATM    4  C5  UNL     1      28.315  19.542   7.841  1.00  0.00     0.230 C
HETATM    5  N6  UNL     1      27.840  18.609   8.863  1.00  0.00    -0.038 N
ATOM      6  H61 UNL     1      27.971  18.855   9.844  1.00  0.00     0.281 HD
ATOM      7  H62 UNL     1      26.834  18.500   8.992  1.00  0.00     0.281 HD
ENDROOT
BRANCH   2   8
HETATM    8  N1  UNL     1      29.485  16.839   9.231  1.00  0.00    -0.234 N
HETATM    9  C3  UNL     1      30.712  16.372   9.055  1.00  0.00     0.222 A
HETATM   10  N2  UNL     1      31.124  15.820  10.227  1.00  0.00    -0.279 N
HETATM   11  N3  UNL     1      30.136  15.969  11.076  1.00  0.00    -0.227 N
ATOM     12  H2  UNL     1      32.024  15.378  10.410  1.00  0.00     0.189 HD
HETATM   13  N4  UNL     1      29.148  16.578  10.491  1.00  0.00    -0.223 N
ATOM     14  H3  UNL     1      30.142  15.656  12.047  1.00  0.00     0.210 HD
ATOM     15  H4  UNL     1      28.258  16.816  10.928  1.00  0.00     0.210 HD
ENDBRANCH   2   8
BRANCH   4  16
HETATM   16  C6  UNL     1      27.380  19.708   6.703  1.00  0.00     0.086 C
HETATM   17  N5  UNL     1      26.524  20.646   6.697  1.00  0.00    -0.409 N
ATOM     18  H52 UNL     1      26.492  21.284   7.492  1.00  0.00     0.155 HD
ATOM     19  H51 UNL     1      25.881  20.761   5.913  1.00  0.00     0.155 HD
ENDBRANCH   4  16
TORSDOF 2
ENDMDL