MODEL 4
REMARK VINA RESULT: -4.392266809      2.668      3.351
REMARK  2 active torsions:
REMARK  status: ('A' for Active; 'I' for Inactive)
REMARK    1  A    between atoms: N1_2  and  C2_5
REMARK    2  A    between atoms: C3_8  and  S1_9
ROOT
HETATM    1  C2  UNL     1      27.928  19.717   7.071  1.00  0.00     0.454 C
HETATM    2  N2  UNL     1      26.791  19.921   6.226  1.00  0.00    -0.319 N
ATOM      3  H2  UNL     1      25.973  20.489   6.450  1.00  0.00     0.166 HD
HETATM    4  C3  UNL     1      26.977  19.270   5.141  1.00  0.00     0.163 C
HETATM    5  N3  UNL     1      28.227  18.619   5.234  1.00  0.00    -0.241 N
ATOM      6  H3  UNL     1      28.765  18.225   4.463  1.00  0.00     0.196 HD
HETATM    7  O1  UNL     1      28.577  18.621   6.558  1.00  0.00    -0.223 OA
ENDROOT
BRANCH   1   8
HETATM    8  N1  UNL     1      27.571  19.481   8.456  1.00  0.00    -0.033 N
HETATM    9  C1  UNL     1      28.233  18.348   9.022  1.00  0.00     0.272 C
ATOM     10  H12 UNL     1      26.560  19.401   8.563  1.00  0.00     0.281 HD
ATOM     11  H11 UNL     1      27.734  20.315   9.020  1.00  0.00     0.281 HD
ENDBRANCH   1   8
BRANCH   4  12
HETATM   12  S1  UNL     1      25.920  19.133   3.703  1.00  0.00    -0.097 SA
HETATM   13  C4  UNL     1      25.570  20.789   3.048  1.00  0.00     0.099 C
ENDBRANCH   4  12
TORSDOF 2
ENDMDL