MODEL 2
REMARK VINA RESULT: -4.603493500      1.689      3.394
REMARK  2 active torsions:
REMARK  status: ('A' for Active; 'I' for Inactive)
REMARK    1  A    between atoms: N1_1  and  C1_4
REMARK    2  A    between atoms: N2_8  and  N3_9
ROOT
HETATM    1  C1  UNL     1      28.218  19.112   7.985  1.00  0.00     0.163 A
HETATM    2  S1  UNL     1      29.097  18.369   6.730  1.00  0.00    -0.063 SA
HETATM    3  C2  UNL     1      28.526  19.315   5.424  1.00  0.00     0.072 A
HETATM    4  C3  UNL     1      27.670  20.168   6.058  1.00  0.00     0.126 A
HETATM    5  N2  UNL     1      27.521  20.056   7.348  1.00  0.00    -0.244 N
ENDROOT
BRANCH   5   6
HETATM    6  N3  UNL     1      26.655  20.885   8.140  1.00  0.00    -0.290 N
HETATM    7  C4  UNL     1      26.059  21.879   7.624  1.00  0.00     0.207 C
HETATM    8  N4  UNL     1      25.216  22.672   8.426  1.00  0.00    -0.095 NA
ATOM      9  H3  UNL     1      26.519  20.672   9.128  1.00  0.00     0.188 HD
ENDBRANCH   5   6
BRANCH   1  10
HETATM   10  N1  UNL     1      28.260  18.787   9.241  1.00  0.00    -0.378 N
ATOM     11  H12 UNL     1      27.901  19.263  10.069  1.00  0.00     0.158 HD
ATOM     12  H11 UNL     1      28.688  17.944   9.627  1.00  0.00     0.158 HD
ENDBRANCH   1  10
TORSDOF 2
ENDMDL