MODEL 5
REMARK VINA RESULT: -4.347657137      1.859      2.073
REMARK  3 active torsions:
REMARK  status: ('A' for Active; 'I' for Inactive)
REMARK    1  A    between atoms: C2_2  and  N1_3
REMARK    2  A    between atoms: C5_7  and  N2_8
REMARK    3  A    between atoms: N2_8  and  N3_10
ROOT
HETATM    1  N1  UNL     1      28.291  19.723   6.519  1.00  0.00    -0.336 N
HETATM    2  C3  UNL     1      27.880  19.757   7.765  1.00  0.00     0.100 A
HETATM    3  C4  UNL     1      28.254  18.727   8.584  1.00  0.00     0.070 A
HETATM    4  S1  UNL     1      29.183  17.750   7.539  1.00  0.00    -0.063 SA
HETATM    5  C5  UNL     1      29.044  18.697   6.129  1.00  0.00     0.164 A
ENDROOT
BRANCH   5   6
HETATM    6  N2  UNL     1      29.547  18.493   4.924  1.00  0.00    -0.286 N
ATOM      7  H2  UNL     1      28.990  18.595   4.076  1.00  0.00     0.188 HD
BRANCH   6   8
HETATM    8  N3  UNL     1      30.896  18.130   4.893  1.00  0.00    -0.343 N
ATOM      9  H32 UNL     1      31.249  17.452   4.217  1.00  0.00     0.176 HD
ATOM     10  H31 UNL     1      31.488  18.588   5.585  1.00  0.00     0.176 HD
ENDBRANCH   6   8
ENDBRANCH   5   6
BRANCH   1  11
HETATM   11  C2  UNL     1      27.934  20.798   5.553  1.00  0.00     0.126 C
HETATM   12  C1  UNL     1      27.276  21.952   6.270  1.00  0.00     0.027 C
ENDBRANCH   1  11
TORSDOF 3
ENDMDL