MODEL 4
REMARK VINA RESULT: -4.087255901      1.082      1.674
REMARK  2 active torsions:
REMARK  status: ('A' for Active; 'I' for Inactive)
REMARK    1  A    between atoms: N1_2  and  S1_4
REMARK    2  A    between atoms: S1_4  and  C3_5
ROOT
HETATM    1  C3  UNL     1      27.845  19.950   7.487  1.00  0.00     0.156 C
HETATM    2  N2  UNL     1      27.804  20.137   6.209  1.00  0.00    -0.368 N
ATOM      3  H2  UNL     1      28.475  19.753   5.544  1.00  0.00     0.161 HD
HETATM    4  C4  UNL     1      26.674  20.966   5.852  1.00  0.00     0.141 C
HETATM    5  C5  UNL     1      26.363  21.645   7.166  1.00  0.00     0.141 C
HETATM    6  N3  UNL     1      26.765  20.626   8.116  1.00  0.00    -0.368 N
ATOM      7  H3  UNL     1      26.361  20.436   9.034  1.00  0.00     0.161 HD
ENDROOT
BRANCH   1   8
HETATM    8  S1  UNL     1      29.070  18.992   8.359  1.00  0.00     0.019 SA
BRANCH   8   9
HETATM    9  N1  UNL     1      28.491  17.528   8.984  1.00  0.00    -0.358 N
HETATM   10  C1  UNL     1      29.202  16.908  10.037  1.00  0.00     0.157 C
HETATM   11  C2  UNL     1      27.684  16.709   8.167  1.00  0.00     0.157 C
ENDBRANCH   8   9
ENDBRANCH   1   8
TORSDOF 2
ENDMDL