MODEL 4
REMARK VINA RESULT: -4.139568391      3.179      3.430
REMARK  1 active torsions:
REMARK  status: ('A' for Active; 'I' for Inactive)
REMARK    1  A    between atoms: N2_3  and  C2_5
ROOT
HETATM    1  N1  UNL     1      25.213  21.227   2.804  1.00  0.00    -0.172 NA
HETATM    2  C1  UNL     1      26.255  20.837   3.152  1.00  0.00     0.179 C
HETATM    3  N2  UNL     1      27.503  20.350   3.556  1.00  0.00    -0.291 N
ATOM      4  H2  UNL     1      28.325  20.490   2.966  1.00  0.00     0.174 HD
ENDROOT
BRANCH   3   5
HETATM    5  C2  UNL     1      27.618  19.665   4.786  1.00  0.00     0.368 C
HETATM    6  N3  UNL     1      28.872  18.893   4.832  1.00  0.00    -0.035 N
HETATM    7  C3  UNL     1      28.977  18.406   6.217  1.00  0.00     0.321 C
ATOM      8  H32 UNL     1      28.926  18.153   4.131  1.00  0.00     0.281 HD
ATOM      9  H31 UNL     1      29.689  19.415   4.517  1.00  0.00     0.281 HD
HETATM   10  S1  UNL     1      27.604  17.173   6.307  1.00  0.00    -0.066 SA
HETATM   11  S2  UNL     1      26.356  18.328   4.958  1.00  0.00    -0.041 SA
ENDBRANCH   3   5
TORSDOF 1
ENDMDL