MODEL 5
REMARK VINA RESULT: -5.662629394      2.035      4.671
REMARK  1 active torsions:
REMARK  status: ('A' for Active; 'I' for Inactive)
REMARK    1  A    between atoms: C3_6  and  C4_7
ROOT
HETATM    1  C4  UNL     1      29.303  18.632   7.286  1.00  0.00     0.267 C
HETATM    2  C5  UNL     1      30.344  17.657   6.924  1.00  0.00     0.086 C
HETATM    3  N3  UNL     1      31.155  16.886   6.622  1.00  0.00    -0.195 NA
HETATM    4  C6  UNL     1      28.483  18.188   8.393  1.00  0.00     0.086 C
HETATM    5  N4  UNL     1      27.841  17.826   9.288  1.00  0.00    -0.195 NA
ENDROOT
BRANCH   1   6
HETATM    6  C3  UNL     1      28.444  18.808   6.060  1.00  0.00     0.122 C
HETATM    7  N2  UNL     1      28.771  18.731   4.832  1.00  0.00    -0.289 N
HETATM    8  N1  UNL     1      27.656  18.964   4.027  1.00  0.00    -0.115 NA
ATOM      9  H2  UNL     1      29.710  18.528   4.487  1.00  0.00     0.183 HD
HETATM   10  C2  UNL     1      26.652  19.544   4.871  1.00  0.00     0.193 C
HETATM   11  C1  UNL     1      25.285  18.939   4.623  1.00  0.00     0.053 C
HETATM   12  N5  UNL     1      27.052  19.107   6.199  1.00  0.00    -0.357 N
ATOM     13  H5  UNL     1      26.474  19.031   7.036  1.00  0.00     0.162 HD
ENDBRANCH   1   6
TORSDOF 1
ENDMDL