MODEL 5
REMARK VINA RESULT: -4.539204374      2.340      3.079
REMARK  3 active torsions:
REMARK  status: ('A' for Active; 'I' for Inactive)
REMARK    1  A    between atoms: N1_1  and  S1_4
REMARK    2  A    between atoms: S1_4  and  N2_5
REMARK    3  A    between atoms: N2_5  and  C1_7
ROOT
HETATM    1  C1  UNL     1      27.820  19.607   7.973  1.00  0.00     0.681 C
HETATM    2  N3  UNL     1      28.429  19.510   6.817  1.00  0.00    -0.226 N
ATOM      3  H3  UNL     1      29.209  18.860   6.726  1.00  0.00     0.177 HD
HETATM    4  C2  UNL     1      28.040  20.282   5.678  1.00  0.00     0.139 C
HETATM    5  C3  UNL     1      27.488  21.628   5.983  1.00  0.00     0.040 C
HETATM    6  C4  UNL     1      26.787  21.735   7.292  1.00  0.00     0.139 C
HETATM    7  N4  UNL     1      26.739  20.525   8.048  1.00  0.00    -0.226 N
ATOM      8  H4  UNL     1      25.932  20.321   8.638  1.00  0.00     0.177 HD
ENDROOT
BRANCH   1   9
HETATM    9  N2  UNL     1      28.248  18.821   9.062  1.00  0.00    -0.146 N
ATOM     10  H2  UNL     1      28.562  19.265   9.925  1.00  0.00     0.194 HD
BRANCH   9  11
HETATM   11  S1  UNL     1      28.237  17.081   8.921  1.00  0.00     0.074 SA
BRANCH  11  12
HETATM   12  N1  UNL     1      29.027  16.427  10.378  1.00  0.00    -0.356 N
ATOM     13  H12 UNL     1      29.107  15.439  10.617  1.00  0.00     0.165 HD
ATOM     14  H11 UNL     1      29.378  17.221  10.914  1.00  0.00     0.165 HD
ENDBRANCH  11  12
ENDBRANCH   9  11
ENDBRANCH   1   9
TORSDOF 3
ENDMDL