MODEL 3
REMARK VINA RESULT: -4.331491260      2.881      3.267
REMARK  3 active torsions:
REMARK  status: ('A' for Active; 'I' for Inactive)
REMARK    1  A    between atoms: N1_1  and  N2_4
REMARK    2  A    between atoms: N3_7  and  C3_8
REMARK    3  A    between atoms: C3_8  and  O1_9
ROOT
HETATM    1  N2  UNL     1      30.417  17.560   6.198  1.00  0.00    -0.247 N
HETATM    2  C1  UNL     1      29.468  18.419   5.760  1.00  0.00     0.136 A
HETATM    3  C2  UNL     1      28.692  18.808   6.813  1.00  0.00     0.115 A
HETATM    4  N3  UNL     1      29.176  18.178   7.901  1.00  0.00    -0.309 N
HETATM    5  C4  UNL     1      30.233  17.413   7.528  1.00  0.00     0.200 A
HETATM    6  S1  UNL     1      31.098  16.489   8.564  1.00  0.00    -0.038 SA
ENDROOT
BRANCH   1   7
HETATM    7  N1  UNL     1      31.419  16.919   5.465  1.00  0.00    -0.337 N
ATOM      8  H12 UNL     1      31.295  16.553   4.521  1.00  0.00     0.177 HD
ATOM      9  H11 UNL     1      32.382  16.722   5.738  1.00  0.00     0.177 HD
ENDBRANCH   1   7
BRANCH   4  10
HETATM   10  C3  UNL     1      28.647  18.304   9.252  1.00  0.00     0.297 C
BRANCH  10  11
HETATM   11  O1  UNL     1      27.426  18.944   9.292  1.00  0.00    -0.382 OA
ATOM     12  H1  UNL     1      26.817  18.540   9.900  1.00  0.00     0.211 HD
ENDBRANCH  10  11
ENDBRANCH   4  10
TORSDOF 3
ENDMDL