MODEL 1
REMARK VINA RESULT: -8.168910238      0.000      0.000
REMARK  10 active torsions:
REMARK  status: ('A' for Active; 'I' for Inactive)
REMARK    1  A    between atoms: C2_2  and  C4_4
REMARK    2  A    between atoms: C2_2  and  C5_7
REMARK    3  A    between atoms: C4_4  and  O1_5
REMARK    4  A    between atoms: C6_8  and  O2_9
REMARK    5  A    between atoms: C24_28  and  O3_29
REMARK    6  A    between atoms: O3_29  and  S1_30
REMARK    7  A    between atoms: S1_30  and  N1_33
REMARK    8  A    between atoms: N1_33  and  C25_35
REMARK    9  A    between atoms: C25_35  and  C26_36
REMARK   10  A    between atoms: C26_36  and  N2_37
ROOT
HETATM    1  C5  UNL     1       2.720  27.506  25.631  1.00  0.00     0.029 C
HETATM    2  C6  UNL     1       3.561  27.870  24.472  1.00  0.00     0.123 C
HETATM    3  C7  UNL     1       4.177  29.233  24.516  1.00  0.00     0.033 C
HETATM    4  C8  UNL     1       3.652  30.182  25.518  1.00  0.00     0.012 C
HETATM    5  C9  UNL     1       2.290  29.970  26.076  1.00  0.00    -0.035 C
HETATM    6  C10 UNL     1       2.442  30.495  27.536  1.00  0.00     0.016 C
HETATM    7  C11 UNL     1       1.863  28.553  26.231  1.00  0.00     0.001 C
HETATM    8  C12 UNL     1       0.395  28.445  25.811  1.00  0.00     0.007 C
HETATM    9  C13 UNL     1       0.116  29.042  24.477  1.00  0.00     0.011 C
HETATM   10  C14 UNL     1       0.465  30.497  24.349  1.00  0.00    -0.032 C
HETATM   11  C15 UNL     1       1.263  30.690  23.106  1.00  0.00     0.016 C
HETATM   12  C16 UNL     1       1.211  30.891  25.578  1.00  0.00     0.003 C
HETATM   13  C17 UNL     1       1.625  32.323  25.588  1.00  0.00     0.006 C
HETATM   14  C18 UNL     1       0.397  33.218  25.419  1.00  0.00     0.006 C
HETATM   15  C19 UNL     1      -0.297  32.788  24.161  1.00  0.00     0.003 C
HETATM   16  C20 UNL     1      -1.290  33.789  23.641  1.00  0.00    -0.035 C
HETATM   17  C21 UNL     1      -2.292  34.232  24.661  1.00  0.00     0.016 C
HETATM   18  C22 UNL     1      -0.530  35.035  23.192  1.00  0.00     0.012 C
HETATM   19  C23 UNL     1      -1.431  36.090  22.636  1.00  0.00     0.035 C
HETATM   20  C24 UNL     1      -2.747  35.584  22.103  1.00  0.00     0.152 C
HETATM   21  C31 UNL     1      -2.695  34.188  21.580  1.00  0.00    -0.016 C
HETATM   22  C32 UNL     1      -2.181  34.280  20.145  1.00  0.00     0.018 C
HETATM   23  C33 UNL     1      -4.149  33.740  21.449  1.00  0.00     0.018 C
HETATM   24  C34 UNL     1      -1.884  33.240  22.381  1.00  0.00     0.004 C
HETATM   25  C35 UNL     1      -2.653  32.005  22.719  1.00  0.00     0.007 C
HETATM   26  C36 UNL     1      -1.672  30.945  23.131  1.00  0.00     0.011 C
HETATM   27  C37 UNL     1      -0.781  31.387  24.285  1.00  0.00    -0.032 C
HETATM   28  C38 UNL     1      -1.696  31.163  25.473  1.00  0.00     0.016 C
ENDROOT
BRANCH  20  29
HETATM   29  O3  UNL     1      -3.059  36.423  21.036  1.00  0.00    -0.253 OA
BRANCH  29  30
HETATM   30  S1  UNL     1      -3.644  37.956  21.632  1.00  0.00     0.358 S
HETATM   31  O4  UNL     1      -3.767  37.811  23.133  1.00  0.00    -0.176 OA
HETATM   32  O5  UNL     1      -4.951  38.279  21.063  1.00  0.00    -0.176 OA
BRANCH  30  33
HETATM   33  N1  UNL     1      -2.356  39.065  21.252  1.00  0.00    -0.295 N
ATOM     34  H1  UNL     1      -2.026  39.317  20.320  1.00  0.00     0.174 HD
BRANCH  33  35
HETATM   35  C25 UNL     1      -1.832  39.570  22.532  1.00  0.00     0.164 C
BRANCH  35  36
HETATM   36  C26 UNL     1      -0.603  40.418  22.188  1.00  0.00     0.293 C
BRANCH  36  37
HETATM   37  N2  UNL     1       0.436  39.430  21.813  1.00  0.00     0.094 N
HETATM   38  C27 UNL     1       0.767  38.607  22.933  1.00  0.00     0.298 C
HETATM   39  C28 UNL     1       1.568  39.404  23.958  1.00  0.00     0.198 C
HETATM   40  O6  UNL     1       2.541  40.194  23.353  1.00  0.00    -0.388 OA
HETATM   41  C29 UNL     1       2.786  39.819  22.036  1.00  0.00     0.198 C
HETATM   42  C30 UNL     1       1.569  40.065  21.185  1.00  0.00     0.298 C
ENDBRANCH  36  37
ENDBRANCH  35  36
ENDBRANCH  33  35
ENDBRANCH  30  33
ENDBRANCH  29  30
ENDBRANCH  20  29
BRANCH   1  43
HETATM   43  C2  UNL     1       3.367  26.555  26.654  1.00  0.00    -0.020 C
HETATM   44  C1  UNL     1       2.269  26.054  27.602  1.00  0.00     0.017 C
HETATM   45  C3  UNL     1       4.391  27.232  27.481  1.00  0.00     0.017 C
BRANCH  43  46
HETATM   46  C4  UNL     1       3.982  25.333  26.055  1.00  0.00     0.173 C
BRANCH  46  47
HETATM   47  O1  UNL     1       5.341  25.194  26.385  1.00  0.00    -0.400 OA
ATOM     48  H1  UNL     1       5.676  24.326  26.196  1.00  0.00     0.209 HD
ENDBRANCH  46  47
ENDBRANCH  43  46
ENDBRANCH   1  43
BRANCH   2  49
HETATM   49  O2  UNL     1       4.569  26.915  24.312  1.00  0.00    -0.395 OA
ATOM     50  H2  UNL     1       5.175  27.205  23.640  1.00  0.00     0.210 HD
ENDBRANCH   2  49
TORSDOF 10
ENDMDL