MODEL 1
REMARK VINA RESULT: -7.987576883      0.000      0.000
REMARK  8 active torsions:
REMARK  status: ('A' for Active; 'I' for Inactive)
REMARK    1  A    between atoms: C5_5  and  O1_6
REMARK    2  A    between atoms: O1_6  and  C6_7
REMARK    3  A    between atoms: C6_7  and  C7_8
REMARK    4  A    between atoms: C7_8  and  C8_9
REMARK    5  A    between atoms: C8_9  and  N1_10
REMARK    6  A    between atoms: C14_19  and  O2_20
REMARK    7  A    between atoms: C26_33  and  O3_34
REMARK    8  A    between atoms: O3_34  and  C27_35
ROOT
HETATM    1  C1  UNL     1      -5.221  34.339  21.747  1.00  0.00     0.015 C
HETATM    2  C2  UNL     1      -4.149  33.556  21.079  1.00  0.00    -0.045 C
HETATM    3  C3  UNL     1      -4.872  32.799  19.943  1.00  0.00     0.015 C
HETATM    4  C4  UNL     1      -3.214  34.498  20.364  1.00  0.00     0.041 C
HETATM    5  C5  UNL     1      -2.532  35.320  21.429  1.00  0.00     0.129 C
HETATM    6  C13 UNL     1      -1.667  34.433  22.329  1.00  0.00     0.051 C
HETATM    7  C14 UNL     1      -1.496  34.977  23.701  1.00  0.00     0.126 C
HETATM    8  C15 UNL     1      -1.130  34.089  24.818  1.00  0.00     0.046 C
HETATM    9  C16 UNL     1      -1.413  32.617  24.691  1.00  0.00    -0.011 C
HETATM   10  C17 UNL     1      -2.833  32.445  25.205  1.00  0.00     0.021 C
HETATM   11  C18 UNL     1      -1.225  32.284  23.273  1.00  0.00    -0.070 C
HETATM   12  C19 UNL     1      -0.312  31.391  22.903  1.00  0.00    -0.022 C
HETATM   13  C20 UNL     1       0.599  30.652  23.812  1.00  0.00     0.033 C
HETATM   14  C21 UNL     1       0.776  31.527  25.040  1.00  0.00     0.007 C
HETATM   15  C22 UNL     1       1.928  31.226  25.901  1.00  0.00    -0.035 C
HETATM   16  C23 UNL     1       2.961  32.370  25.779  1.00  0.00     0.016 C
HETATM   17  C24 UNL     1       2.708  29.970  25.550  1.00  0.00     0.012 C
HETATM   18  C25 UNL     1       2.747  28.947  26.638  1.00  0.00     0.033 C
HETATM   19  C26 UNL     1       3.431  29.578  27.854  1.00  0.00     0.130 C
HETATM   20  C34 UNL     1       2.644  30.791  28.310  1.00  0.00    -0.017 C
HETATM   21  C35 UNL     1       3.503  31.935  28.728  1.00  0.00     0.018 C
HETATM   22  C36 UNL     1       1.912  30.340  29.598  1.00  0.00     0.018 C
HETATM   23  C37 UNL     1       1.563  31.093  27.349  1.00  0.00     0.004 C
HETATM   24  C38 UNL     1       0.681  32.222  27.742  1.00  0.00     0.007 C
HETATM   25  C39 UNL     1      -0.643  32.208  27.012  1.00  0.00     0.011 C
HETATM   26  C40 UNL     1      -0.588  31.716  25.602  1.00  0.00    -0.028 C
HETATM   27  C41 UNL     1      -1.364  30.375  25.581  1.00  0.00     0.016 C
HETATM   28  C42 UNL     1      -1.975  32.981  22.189  1.00  0.00     0.024 C
HETATM   29  C43 UNL     1      -3.382  32.605  21.966  1.00  0.00     0.018 C
ENDROOT
BRANCH   5  30
HETATM   30  O1  UNL     1      -1.806  36.362  20.907  1.00  0.00    -0.385 OA
BRANCH  30  31
HETATM   31  C6  UNL     1      -2.275  37.624  21.064  1.00  0.00     0.170 C
BRANCH  31  32
HETATM   32  C7  UNL     1      -1.172  38.647  21.273  1.00  0.00     0.056 C
BRANCH  32  33
HETATM   33  C8  UNL     1      -0.283  38.247  22.407  1.00  0.00     0.276 C
BRANCH  33  34
HETATM   34  N1  UNL     1       0.043  39.302  23.312  1.00  0.00     0.114 N
HETATM   35  C9  UNL     1      -1.089  39.444  24.229  1.00  0.00     0.276 C
HETATM   36  C10 UNL     1      -1.126  38.329  25.248  1.00  0.00     0.058 C
HETATM   37  C11 UNL     1       0.240  38.253  25.937  1.00  0.00     0.236 C
HETATM   38  N2  UNL     1       1.194  37.944  24.874  1.00  0.00    -0.049 N
HETATM   39  C12 UNL     1       1.279  39.083  24.011  1.00  0.00     0.502 C
ATOM     40  H22 UNL     1       2.104  37.652  25.232  1.00  0.00     0.279 HD
ATOM     41  H21 UNL     1       0.963  37.086  24.373  1.00  0.00     0.279 HD
ENDBRANCH  33  34
ENDBRANCH  32  33
ENDBRANCH  31  32
ENDBRANCH  30  31
ENDBRANCH   5  30
BRANCH   7  42
HETATM   42  O2  UNL     1      -2.742  35.589  24.041  1.00  0.00    -0.395 OA
ATOM     43  H2  UNL     1      -3.107  35.067  24.746  1.00  0.00     0.210 HD
ENDBRANCH   7  42
BRANCH  19  44
HETATM   44  O3  UNL     1       4.676  29.957  27.486  1.00  0.00    -0.380 OA
BRANCH  44  45
HETATM   45  C27 UNL     1       5.754  29.318  28.028  1.00  0.00     0.123 C
HETATM   46  C28 UNL     1       5.407  28.215  28.991  1.00  0.00     0.037 C
HETATM   47  C29 UNL     1       6.767  27.550  29.175  1.00  0.00     0.006 A
HETATM   48  C30 UNL     1       7.697  28.422  29.952  1.00  0.00     0.084 A
HETATM   49  C32 UNL     1       7.550  27.809  27.940  1.00  0.00     0.062 A
HETATM   50  C31 UNL     1       8.546  28.569  28.743  1.00  0.00     0.132 A
HETATM   51  O4  UNL     1       9.627  29.118  28.565  1.00  0.00    -0.298 OA
HETATM   52  C33 UNL     1       6.649  28.638  27.063  1.00  0.00     0.044 C
ENDBRANCH  44  45
ENDBRANCH  19  44
TORSDOF 8
ENDMDL