MODEL 3
REMARK VINA RESULT: -8.077643234      1.393      1.773
REMARK  9 active torsions:
REMARK  status: ('A' for Active; 'I' for Inactive)
REMARK    1  A    between atoms: C18_18  and  O1_19
REMARK    2  A    between atoms: O1_19  and  C19_20
REMARK    3  A    between atoms: C22_23  and  N1_24
REMARK    4  A    between atoms: C23_28  and  C24_29
REMARK    5  A    between atoms: C24_29  and  O2_30
REMARK    6  A    between atoms: O2_30  and  C25_31
REMARK    7  A    between atoms: C25_31  and  C26_32
REMARK    8  A    between atoms: C26_32  and  C27_33
REMARK    9  A    between atoms: C38_47  and  O6_48
ROOT
HETATM    1  C1  UNL     1       2.841  32.594  28.400  1.00  0.00     0.011 C
HETATM    2  C2  UNL     1       3.121  32.337  26.915  1.00  0.00    -0.006 C
HETATM    3  C3  UNL     1       1.980  32.724  26.033  1.00  0.00     0.015 C
HETATM    4  C4  UNL     1       1.401  31.564  25.230  1.00  0.00    -0.032 C
HETATM    5  C5  UNL     1       2.321  31.398  24.063  1.00  0.00     0.016 C
HETATM    6  C6  UNL     1       1.372  30.457  26.213  1.00  0.00     0.003 C
HETATM    7  C7  UNL     1       0.353  29.395  26.027  1.00  0.00     0.006 C
HETATM    8  C8  UNL     1      -0.975  29.979  25.766  1.00  0.00     0.006 C
HETATM    9  C9  UNL     1      -0.999  31.509  25.649  1.00  0.00     0.003 C
HETATM   10  C10 UNL     1      -2.367  31.865  25.921  1.00  0.00    -0.035 C
HETATM   11  C11 UNL     1      -2.631  31.360  27.400  1.00  0.00     0.016 C
HETATM   12  C12 UNL     1      -3.497  31.224  25.130  1.00  0.00     0.010 C
HETATM   13  C13 UNL     1      -4.072  32.574  24.759  1.00  0.00     0.007 C
HETATM   14  C14 UNL     1      -3.047  33.115  25.687  1.00  0.00     0.004 C
HETATM   15  C15 UNL     1      -2.480  34.433  25.500  1.00  0.00    -0.016 C
HETATM   16  C16 UNL     1      -3.726  35.385  25.657  1.00  0.00     0.018 C
HETATM   17  C17 UNL     1      -1.725  34.834  26.777  1.00  0.00     0.018 C
HETATM   18  C18 UNL     1      -1.889  34.972  24.268  1.00  0.00     0.140 C
HETATM   19  C28 UNL     1      -0.819  34.181  23.547  1.00  0.00    -0.020 C
HETATM   20  C29 UNL     1       0.069  35.287  22.938  1.00  0.00     0.017 C
HETATM   21  C30 UNL     1      -1.376  33.591  22.246  1.00  0.00     0.017 C
HETATM   22  C31 UNL     1       0.069  33.352  24.302  1.00  0.00     0.021 C
HETATM   23  C32 UNL     1      -0.015  31.918  24.662  1.00  0.00    -0.031 C
HETATM   24  C33 UNL     1      -0.136  31.005  23.462  1.00  0.00     0.016 C
HETATM   25  C34 UNL     1       2.631  29.872  26.674  1.00  0.00    -0.029 C
HETATM   26  C35 UNL     1       2.329  29.215  28.041  1.00  0.00     0.016 C
HETATM   27  C36 UNL     1       3.336  28.781  25.953  1.00  0.00     0.013 C
HETATM   28  C37 UNL     1       4.368  28.196  26.940  1.00  0.00     0.040 C
HETATM   29  C38 UNL     1       5.336  29.243  27.448  1.00  0.00     0.188 C
HETATM   30  C39 UNL     1       4.649  30.529  27.760  1.00  0.00     0.160 C
HETATM   31  O7  UNL     1       4.944  31.108  28.770  1.00  0.00    -0.295 OA
HETATM   32  C40 UNL     1       3.652  30.971  26.771  1.00  0.00     0.070 C
ENDROOT
BRANCH  18  33
HETATM   33  O1  UNL     1      -2.774  35.531  23.341  1.00  0.00    -0.354 OA
BRANCH  33  34
HETATM   34  C19 UNL     1      -2.382  36.518  22.521  1.00  0.00     0.261 C
HETATM   35  C20 UNL     1      -3.369  36.887  21.405  1.00  0.00     0.063 C
HETATM   36  C21 UNL     1      -3.834  38.331  21.501  1.00  0.00     0.040 C
HETATM   37  C22 UNL     1      -2.653  39.293  21.438  1.00  0.00     0.214 C
HETATM   38  C23 UNL     1      -1.479  38.503  22.005  1.00  0.00     0.178 C
HETATM   39  O5  UNL     1      -2.041  37.756  23.070  1.00  0.00    -0.352 OA
BRANCH  37  40
HETATM   40  N1  UNL     1      -2.924  40.351  22.407  1.00  0.00    -0.072 N
ATOM     41  H13 UNL     1      -3.788  40.859  22.219  1.00  0.00     0.274 HD
ATOM     42  H12 UNL     1      -3.182  39.997  23.329  1.00  0.00     0.274 HD
ATOM     43  H11 UNL     1      -2.099  40.951  22.423  1.00  0.00     0.274 HD
ENDBRANCH  37  40
BRANCH  38  44
HETATM   44  C24 UNL     1      -0.422  39.376  22.585  1.00  0.00     0.201 C
BRANCH  44  45
HETATM   45  O2  UNL     1       0.066  40.320  21.726  1.00  0.00    -0.388 OA
BRANCH  45  46
HETATM   46  C25 UNL     1       1.414  40.194  21.470  1.00  0.00     0.178 C
BRANCH  46  47
HETATM   47  C26 UNL     1       2.174  39.811  22.749  1.00  0.00     0.139 C
BRANCH  47  48
HETATM   48  C27 UNL     1       3.639  39.819  22.491  1.00  0.00     0.174 C
HETATM   49  O3  UNL     1       4.060  40.155  21.375  1.00  0.00    -0.648 OA
HETATM   50  O4  UNL     1       4.471  39.444  23.532  1.00  0.00    -0.648 OA
ENDBRANCH  47  48
ENDBRANCH  46  47
ENDBRANCH  45  46
ENDBRANCH  44  45
ENDBRANCH  38  44
ENDBRANCH  33  34
ENDBRANCH  18  33
BRANCH  29  51
HETATM   51  O6  UNL     1       6.372  29.402  26.532  1.00  0.00    -0.388 OA
ATOM     52  H6  UNL     1       6.451  30.320  26.300  1.00  0.00     0.210 HD
ENDBRANCH  29  51
TORSDOF 9
ENDMDL