MODEL 3
REMARK VINA RESULT: -6.905101402      1.620      2.309
REMARK  10 active torsions:
REMARK  status: ('A' for Active; 'I' for Inactive)
REMARK    1  A    between atoms: C18_20  and  O2_21
REMARK    2  A    between atoms: C30_34  and  O3_35
REMARK    3  A    between atoms: O3_35  and  C31_36
REMARK    4  A    between atoms: C31_36  and  C32_38
REMARK    5  A    between atoms: C32_38  and  C33_39
REMARK    6  A    between atoms: C33_39  and  C34_40
REMARK    7  A    between atoms: C34_40  and  C35_41
REMARK    8  A    between atoms: C35_41  and  C36_42
REMARK    9  A    between atoms: C36_42  and  N2_43
REMARK       I    between atoms: N2_43  and  C37_45
REMARK       I    between atoms: C37_45  and  N3_47
REMARK   10  A    between atoms: N3_47  and  C38_49
ROOT
HETATM    1  C1  UNL     1      -4.492  31.556  20.759  1.00  0.00     0.013 C
HETATM    2  C2  UNL     1      -4.510  32.734  21.739  1.00  0.00     0.017 C
HETATM    3  C3  UNL     1      -3.121  33.301  21.965  1.00  0.00     0.002 C
HETATM    4  C4  UNL     1      -2.708  32.905  23.323  1.00  0.00    -0.001 C
HETATM    5  C5  UNL     1      -3.441  33.724  24.311  1.00  0.00     0.012 C
HETATM    6  C6  UNL     1      -3.047  35.211  24.251  1.00  0.00     0.006 C
HETATM    7  C7  UNL     1      -3.965  35.903  25.123  1.00  0.00    -0.007 C
HETATM    8  C8  UNL     1      -3.965  35.027  26.423  1.00  0.00     0.018 C
HETATM    9  C9  UNL     1      -5.415  35.996  24.856  1.00  0.00     0.282 C
HETATM   10  N1  UNL     1      -5.900  36.499  26.157  1.00  0.00     0.089 N
HETATM   11  C10 UNL     1      -7.277  36.912  26.055  1.00  0.00     0.310 C
HETATM   12  C11 UNL     1      -5.019  37.639  26.313  1.00  0.00     0.223 C
HETATM   13  C12 UNL     1      -4.912  38.159  27.706  1.00  0.00     0.043 C
HETATM   14  C13 UNL     1      -3.675  37.240  25.706  1.00  0.00     0.031 C
HETATM   15  C14 UNL     1      -3.307  38.317  24.760  1.00  0.00     0.040 C
HETATM   16  C15 UNL     1      -2.157  37.797  23.941  1.00  0.00     0.129 C
HETATM   17  O1  UNL     1      -1.397  38.953  23.645  1.00  0.00    -0.385 OA
HETATM   18  C16 UNL     1      -2.122  39.801  22.781  1.00  0.00     0.170 C
HETATM   19  C17 UNL     1      -2.377  39.136  21.443  1.00  0.00     0.058 C
HETATM   20  C18 UNL     1      -1.817  37.693  21.624  1.00  0.00     0.127 C
HETATM   21  C19 UNL     1      -2.648  37.088  22.667  1.00  0.00     0.053 C
HETATM   22  C20 UNL     1      -2.648  35.594  22.868  1.00  0.00    -0.023 C
HETATM   23  C21 UNL     1      -1.108  35.334  22.872  1.00  0.00     0.012 C
HETATM   24  C22 UNL     1      -0.697  33.947  22.552  1.00  0.00     0.011 C
HETATM   25  C23 UNL     1      -1.237  32.904  23.491  1.00  0.00    -0.036 A
HETATM   26  C24 UNL     1      -0.576  32.620  24.785  1.00  0.00     0.011 A
HETATM   27  C25 UNL     1      -0.498  31.623  23.689  1.00  0.00     0.011 A
HETATM   28  C26 UNL     1      -3.169  34.800  21.720  1.00  0.00     0.010 C
HETATM   29  C27 UNL     1      -4.344  34.937  20.941  1.00  0.00    -0.016 C
HETATM   30  C28 UNL     1      -5.190  36.140  20.852  1.00  0.00     0.018 C
HETATM   31  C29 UNL     1      -4.020  34.672  19.431  1.00  0.00     0.018 C
HETATM   32  C30 UNL     1      -5.353  33.793  21.189  1.00  0.00     0.144 C
ENDROOT
BRANCH  32  33
HETATM   33  O3  UNL     1      -6.397  34.266  21.953  1.00  0.00    -0.315 OA
BRANCH  33  34
HETATM   34  C31 UNL     1      -7.743  33.888  21.886  1.00  0.00     0.262 C
HETATM   35  O4  UNL     1      -8.114  33.071  22.734  1.00  0.00    -0.265 OA
BRANCH  34  36
HETATM   36  C32 UNL     1      -8.642  34.427  20.871  1.00  0.00     0.138 C
BRANCH  36  37
HETATM   37  C33 UNL     1      -8.642  33.723  19.579  1.00  0.00    -0.021 C
BRANCH  37  38
HETATM   38  C34 UNL     1      -7.996  34.252  18.386  1.00  0.00    -0.029 C
BRANCH  38  39
HETATM   39  C35 UNL     1      -8.556  34.136  17.034  1.00  0.00     0.046 C
BRANCH  39  40
HETATM   40  C36 UNL     1     -10.041  34.623  17.048  1.00  0.00     0.128 C
BRANCH  40  41
HETATM   41  N2  UNL     1     -10.021  36.073  17.021  1.00  0.00    -0.343 N
HETATM   42  C37 UNL     1     -10.603  36.843  18.061  1.00  0.00     0.316 C
HETATM   43  O5  UNL     1     -11.141  36.213  19.012  1.00  0.00    -0.247 OA
HETATM   44  N3  UNL     1     -10.620  38.242  18.107  1.00  0.00    -0.335 N
ATOM     45  H3  UNL     1     -10.189  38.759  17.341  1.00  0.00     0.165 HD
ATOM     46  H2  UNL     1      -9.579  36.550  16.235  1.00  0.00     0.164 HD
BRANCH  44  47
HETATM   47  C38 UNL     1     -11.222  38.992  19.194  1.00  0.00     0.023 C
HETATM   48  C39 UNL     1     -10.488  38.839  20.485  1.00  0.00     0.037 C
HETATM   49  C40 UNL     1     -11.175  40.478  18.812  1.00  0.00     0.037 C
HETATM   50  C41 UNL     1     -12.666  38.634  19.400  1.00  0.00     0.037 C
ENDBRANCH  44  47
ENDBRANCH  40  41
ENDBRANCH  39  40
ENDBRANCH  38  39
ENDBRANCH  37  38
ENDBRANCH  36  37
ENDBRANCH  34  36
ENDBRANCH  33  34
ENDBRANCH  32  33
BRANCH  20  51
HETATM   51  O2  UNL     1      -1.685  37.218  20.390  1.00  0.00    -0.395 OA
ATOM     52  H2  UNL     1      -2.053  36.343  20.424  1.00  0.00     0.210 HD
ENDBRANCH  20  51
TORSDOF 10
ENDMDL