MODEL 3
REMARK VINA RESULT: -7.849491466      2.109      3.784
REMARK  10 active torsions:
REMARK  status: ('A' for Active; 'I' for Inactive)
REMARK    1  A    between atoms: C2_2  and  C3_3
REMARK    2  A    between atoms: C3_3  and  O1_4
REMARK    3  A    between atoms: O1_4  and  C4_5
REMARK    4  A    between atoms: C5_6  and  O2_7
REMARK    5  A    between atoms: C6_9  and  C7_10
REMARK    6  A    between atoms: C14_17  and  O3_18
REMARK    7  A    between atoms: C15_20  and  O4_21
REMARK    8  A    between atoms: C23_30  and  O5_31
REMARK    9  A    between atoms: O5_31  and  C24_32
REMARK   10  A    between atoms: C30_39  and  N2_40
ROOT
HETATM    1  C24 UNL     1       0.896  32.157  24.701  1.00  0.00     0.122 C
HETATM    2  C25 UNL     1       0.186  31.091  25.511  1.00  0.00     0.032 C
HETATM    3  C26 UNL     1       0.790  29.770  25.301  1.00  0.00     0.009 C
HETATM    4  C27 UNL     1       2.108  29.452  25.883  1.00  0.00     0.013 C
HETATM    5  C28 UNL     1       2.179  29.821  27.343  1.00  0.00     0.128 C
HETATM    6  C29 UNL     1       1.365  28.873  28.133  1.00  0.00     0.066 C
HETATM    7  N1  UNL     1       0.695  28.121  28.742  1.00  0.00    -0.197 NA
HETATM    8  C30 UNL     1       3.511  29.967  27.921  1.00  0.00     0.208 C
HETATM    9  C35 UNL     1       4.572  29.223  27.095  1.00  0.00     0.036 C
HETATM   10  C36 UNL     1       4.605  29.862  25.728  1.00  0.00     0.011 C
HETATM   11  C37 UNL     1       3.295  29.808  25.052  1.00  0.00    -0.039 C
HETATM   12  C38 UNL     1       3.431  28.676  24.004  1.00  0.00     0.015 C
HETATM   13  C39 UNL     1       2.978  31.012  24.210  1.00  0.00     0.012 C
HETATM   14  C40 UNL     1       2.373  32.174  24.894  1.00  0.00     0.033 C
ENDROOT
BRANCH   8  15
HETATM   15  N2  UNL     1       3.699  29.605  29.276  1.00  0.00    -0.065 N
HETATM   16  C31 UNL     1       4.016  28.185  29.499  1.00  0.00     0.273 C
HETATM   17  C32 UNL     1       4.819  30.358  29.885  1.00  0.00     0.239 A
HETATM   18  C33 UNL     1       3.972  30.810  31.021  1.00  0.00     0.056 A
HETATM   19  C34 UNL     1       2.854  30.102  30.293  1.00  0.00     0.239 A
ENDBRANCH   8  15
BRANCH   1  20
HETATM   20  O5  UNL     1       0.233  33.327  24.824  1.00  0.00    -0.380 OA
BRANCH  20  21
HETATM   21  C23 UNL     1      -1.087  33.374  24.354  1.00  0.00     0.127 C
HETATM   22  C22 UNL     1      -1.008  32.939  22.933  1.00  0.00     0.033 C
HETATM   23  C21 UNL     1      -2.107  33.479  22.135  1.00  0.00     0.009 C
HETATM   24  C20 UNL     1      -2.553  34.915  22.297  1.00  0.00     0.008 C
HETATM   25  C10 UNL     1      -2.746  35.275  23.712  1.00  0.00     0.001 C
HETATM   26  C18 UNL     1      -3.737  35.001  21.352  1.00  0.00    -0.033 C
HETATM   27  C6  UNL     1      -2.788  36.643  24.239  1.00  0.00    -0.011 C
HETATM   28  C11 UNL     1      -3.846  34.371  24.198  1.00  0.00     0.016 C
HETATM   29  C41 UNL     1      -1.424  34.779  24.362  1.00  0.00     0.034 C
HETATM   30  C5  UNL     1      -1.637  37.458  23.764  1.00  0.00     0.102 C
HETATM   31  C4  UNL     1      -0.460  36.938  23.570  1.00  0.00     0.080 C
HETATM   32  C42 UNL     1      -0.230  35.529  23.808  1.00  0.00     0.075 C
HETATM   33  C12 UNL     1      -5.044  34.223  23.375  1.00  0.00     0.009 C
HETATM   34  C13 UNL     1      -5.057  34.756  21.978  1.00  0.00     0.025 C
HETATM   35  C14 UNL     1      -6.027  33.916  21.204  1.00  0.00     0.151 C
HETATM   36  C15 UNL     1      -6.099  34.142  19.740  1.00  0.00     0.147 C
HETATM   37  C16 UNL     1      -4.730  34.259  19.180  1.00  0.00     0.035 C
HETATM   38  C17 UNL     1      -3.628  33.984  20.209  1.00  0.00     0.012 C
HETATM   39  C19 UNL     1      -3.667  36.278  20.510  1.00  0.00     0.016 C
BRANCH  27  40
HETATM   40  C7  UNL     1      -3.933  37.501  24.524  1.00  0.00    -0.078 C
HETATM   41  C8  UNL     1      -4.993  37.877  23.612  1.00  0.00     0.043 C
HETATM   42  C9  UNL     1      -4.445  37.537  25.952  1.00  0.00     0.043 C
ENDBRANCH  27  40
BRANCH  30  43
HETATM   43  O2  UNL     1      -1.805  38.833  23.515  1.00  0.00    -0.358 OA
ATOM     44  H2  UNL     1      -1.074  39.414  23.694  1.00  0.00     0.217 HD
ENDBRANCH  30  43
BRANCH  31  45
HETATM   45  O1  UNL     1       0.576  37.737  23.135  1.00  0.00    -0.353 OA
BRANCH  45  46
HETATM   46  C3  UNL     1       1.293  38.437  24.144  1.00  0.00     0.175 C
BRANCH  46  47
HETATM   47  C2  UNL     1       2.160  39.462  23.443  1.00  0.00     0.022 C
HETATM   48  C1  UNL     1       1.410  39.837  22.166  1.00  0.00     0.007 C
ENDBRANCH  46  47
ENDBRANCH  45  46
ENDBRANCH  31  45
BRANCH  35  49
HETATM   49  O3  UNL     1      -5.914  32.541  21.527  1.00  0.00    -0.393 OA
ATOM     50  H3  UNL     1      -5.801  32.003  20.753  1.00  0.00     0.210 HD
ENDBRANCH  35  49
BRANCH  36  51
HETATM   51  O4  UNL     1      -6.959  35.201  19.376  1.00  0.00    -0.393 OA
ATOM     52  H4  UNL     1      -7.877  35.012  19.527  1.00  0.00     0.210 HD
ENDBRANCH  36  51
ENDBRANCH  20  21
ENDBRANCH   1  20
TORSDOF 10
ENDMDL