MODEL 2
REMARK VINA RESULT: -7.124872943      6.549     12.413
REMARK  10 active torsions:
REMARK  status: ('A' for Active; 'I' for Inactive)
REMARK    1  A    between atoms: C4_4  and  O1_5
REMARK    2  A    between atoms: O1_5  and  C5_6
REMARK       I    between atoms: C5_6  and  N1_8
REMARK    3  A    between atoms: N1_8  and  C6_10
REMARK    4  A    between atoms: C6_10  and  C7_11
REMARK    5  A    between atoms: C7_11  and  C8_12
REMARK    6  A    between atoms: C8_12  and  N2_13
REMARK    7  A    between atoms: N2_13  and  C9_15
REMARK    8  A    between atoms: C9_15  and  N3_17
REMARK    9  A    between atoms: N3_17  and  C10_19
REMARK   10  A    between atoms: C10_19  and  C11_20
ROOT
HETATM    1  C1  UNL     1      -5.588  38.327  23.322  1.00  0.00     0.010 C
HETATM    2  C2  UNL     1      -4.518  37.365  23.858  1.00  0.00    -0.012 C
HETATM    3  C3  UNL     1      -3.291  38.163  24.090  1.00  0.00     0.038 C
HETATM    4  C4  UNL     1      -2.644  38.419  22.753  1.00  0.00     0.142 C
HETATM    5  C15 UNL     1      -2.300  37.169  22.002  1.00  0.00    -0.012 C
HETATM    6  C16 UNL     1      -1.996  37.701  20.579  1.00  0.00     0.018 C
HETATM    7  C17 UNL     1      -0.929  36.728  22.477  1.00  0.00     0.012 C
HETATM    8  C18 UNL     1      -1.091  35.625  23.434  1.00  0.00     0.007 C
HETATM    9  C19 UNL     1      -1.516  34.396  22.611  1.00  0.00    -0.002 C
HETATM   10  C20 UNL     1      -1.521  33.255  23.600  1.00  0.00    -0.005 C
HETATM   11  C21 UNL     1      -0.087  32.981  23.956  1.00  0.00     0.006 C
HETATM   12  C22 UNL     1       0.390  31.590  23.873  1.00  0.00     0.007 C
HETATM   13  C23 UNL     1      -0.450  30.645  23.090  1.00  0.00     0.009 C
HETATM   14  C24 UNL     1       0.122  29.271  23.001  1.00  0.00     0.017 C
HETATM   15  C25 UNL     1       0.259  28.532  24.275  1.00  0.00     0.023 C
HETATM   16  C26 UNL     1       1.496  29.382  22.336  1.00  0.00     0.023 C
HETATM   17  C27 UNL     1      -0.747  28.487  22.080  1.00  0.00     0.135 C
HETATM   18  O4  UNL     1      -0.464  27.384  21.655  1.00  0.00    -0.297 OA
HETATM   19  C28 UNL     1      -2.024  29.103  21.667  1.00  0.00     0.080 C
HETATM   20  C29 UNL     1      -2.675  29.667  22.917  1.00  0.00     0.017 C
HETATM   21  C30 UNL     1      -1.847  30.736  23.570  1.00  0.00    -0.035 C
HETATM   22  C31 UNL     1      -1.997  30.543  25.078  1.00  0.00     0.016 C
HETATM   23  C32 UNL     1      -2.374  32.100  23.297  1.00  0.00    -0.002 C
HETATM   24  C33 UNL     1      -2.863  32.292  21.849  1.00  0.00     0.006 C
HETATM   25  C34 UNL     1      -3.697  33.589  21.956  1.00  0.00     0.010 C
HETATM   26  C35 UNL     1      -2.703  34.694  21.818  1.00  0.00    -0.035 C
HETATM   27  C36 UNL     1      -2.302  34.642  20.323  1.00  0.00     0.016 C
HETATM   28  C37 UNL     1      -3.312  36.089  22.007  1.00  0.00     0.009 C
HETATM   29  C38 UNL     1      -4.380  36.133  23.042  1.00  0.00    -0.009 C
HETATM   30  C39 UNL     1      -5.788  35.908  22.463  1.00  0.00     0.011 C
ENDROOT
BRANCH   4  31
HETATM   31  O1  UNL     1      -3.469  39.281  22.000  1.00  0.00    -0.298 OA
BRANCH  31  32
HETATM   32  C5  UNL     1      -3.330  40.675  21.924  1.00  0.00     0.360 C
HETATM   33  O2  UNL     1      -2.166  41.128  21.803  1.00  0.00    -0.239 OA
HETATM   34  N1  UNL     1      -4.504  41.458  21.989  1.00  0.00    -0.337 N
ATOM     35  H1  UNL     1      -5.411  41.002  22.087  1.00  0.00     0.164 HD
BRANCH  34  36
HETATM   36  C6  UNL     1      -4.430  42.895  21.918  1.00  0.00     0.126 C
BRANCH  36  37
HETATM   37  C7  UNL     1      -5.634  43.509  22.542  1.00  0.00     0.039 C
BRANCH  37  38
HETATM   38  C8  UNL     1      -5.268  44.894  23.097  1.00  0.00     0.123 C
BRANCH  38  39
HETATM   39  N2  UNL     1      -5.754  45.041  24.425  1.00  0.00    -0.367 N
ATOM     40  H2  UNL     1      -5.050  45.313  25.112  1.00  0.00     0.161 HD
BRANCH  39  41
HETATM   41  C9  UNL     1      -7.033  44.873  24.938  1.00  0.00     0.167 C
HETATM   42  S1  UNL     1      -8.165  46.046  24.462  1.00  0.00    -0.041 SA
BRANCH  41  43
HETATM   43  N3  UNL     1      -7.527  43.901  25.775  1.00  0.00    -0.365 N
ATOM     44  H3  UNL     1      -7.060  43.888  26.682  1.00  0.00     0.161 HD
BRANCH  43  45
HETATM   45  C10 UNL     1      -8.535  42.916  25.665  1.00  0.00     0.154 C
BRANCH  45  46
HETATM   46  C11 UNL     1      -8.611  42.177  24.366  1.00  0.00     0.139 C
HETATM   47  C12 UNL     1     -10.029  41.596  24.276  1.00  0.00     0.035 C
HETATM   48  C13 UNL     1      -9.904  40.405  25.229  1.00  0.00     0.029 C
HETATM   49  C14 UNL     1      -8.421  40.212  25.372  1.00  0.00     0.168 C
HETATM   50  O3  UNL     1      -7.820  41.016  24.419  1.00  0.00    -0.384 OA
ENDBRANCH  45  46
ENDBRANCH  43  45
ENDBRANCH  41  43
ENDBRANCH  39  41
ENDBRANCH  38  39
ENDBRANCH  37  38
ENDBRANCH  36  37
ENDBRANCH  34  36
ENDBRANCH  31  32
ENDBRANCH   4  31
TORSDOF 10
ENDMDL