MODEL 2
REMARK VINA RESULT: -8.043539772      1.119      1.767
REMARK  9 active torsions:
REMARK  status: ('A' for Active; 'I' for Inactive)
REMARK    1  A    between atoms: C2_2  and  C3_3
REMARK    2  A    between atoms: C2_2  and  C7_12
REMARK       I    between atoms: C3_3  and  N1_5
REMARK    3  A    between atoms: N1_5  and  C4_7
REMARK    4  A    between atoms: C4_7  and  C5_8
REMARK    5  A    between atoms: C5_8  and  C6_9
REMARK    6  A    between atoms: C6_9  and  O2_10
REMARK    7  A    between atoms: C17_22  and  O3_23
REMARK    8  A    between atoms: O3_23  and  C18_24
REMARK    9  A    between atoms: C30_37  and  O5_38
ROOT
HETATM    1  C18 UNL     1      -4.115  33.701  21.283  1.00  0.00     0.156 C
HETATM    2  C19 UNL     1      -4.984  32.477  21.399  1.00  0.00     0.201 C
HETATM    3  O4  UNL     1      -6.197  32.552  20.767  1.00  0.00    -0.377 OA
HETATM    4  C20 UNL     1      -7.010  33.588  21.172  1.00  0.00     0.069 C
HETATM    5  C21 UNL     1      -7.274  33.437  22.658  1.00  0.00     0.047 C
HETATM    6  C22 UNL     1      -6.275  34.863  20.871  1.00  0.00     0.031 C
HETATM    7  C23 UNL     1      -7.045  35.837  20.067  1.00  0.00     0.009 C
HETATM    8  C24 UNL     1      -7.777  35.275  18.890  1.00  0.00     0.007 C
HETATM    9  C25 UNL     1      -8.315  33.904  19.113  1.00  0.00     0.005 C
HETATM   10  C26 UNL     1      -9.570  33.723  18.282  1.00  0.00    -0.035 C
HETATM   11  C27 UNL     1      -9.020  33.928  16.841  1.00  0.00     0.016 C
HETATM   12  C28 UNL     1     -10.552  34.831  18.454  1.00  0.00     0.012 C
HETATM   13  C29 UNL     1     -11.985  34.471  18.266  1.00  0.00     0.033 C
HETATM   14  C30 UNL     1     -12.378  33.087  18.623  1.00  0.00     0.126 C
HETATM   15  C31 UNL     1     -11.485  32.106  17.960  1.00  0.00    -0.017 C
HETATM   16  C32 UNL     1     -11.683  32.032  16.461  1.00  0.00     0.018 C
HETATM   17  C33 UNL     1     -11.909  30.714  18.462  1.00  0.00     0.018 C
HETATM   18  C34 UNL     1     -10.054  32.339  18.368  1.00  0.00     0.004 C
HETATM   19  C35 UNL     1      -9.858  31.630  19.686  1.00  0.00     0.007 C
HETATM   20  C36 UNL     1      -8.559  31.899  20.369  1.00  0.00     0.013 C
HETATM   21  C37 UNL     1      -8.351  33.428  20.500  1.00  0.00    -0.008 C
HETATM   22  C38 UNL     1      -9.426  33.862  21.413  1.00  0.00     0.019 C
HETATM   23  C39 UNL     1      -4.854  34.682  20.414  1.00  0.00    -0.013 C
HETATM   24  C40 UNL     1      -4.665  34.231  18.995  1.00  0.00     0.018 C
HETATM   25  C41 UNL     1      -4.163  36.029  20.502  1.00  0.00     0.018 C
ENDROOT
BRANCH   1  26
HETATM   26  O3  UNL     1      -3.757  34.282  22.440  1.00  0.00    -0.352 OA
BRANCH  26  27
HETATM   27  C17 UNL     1      -2.455  34.474  22.758  1.00  0.00     0.269 C
HETATM   28  C14 UNL     1      -2.266  34.110  24.210  1.00  0.00     0.006 C
HETATM   29  C11 UNL     1      -1.041  34.724  24.828  1.00  0.00     0.001 C
HETATM   30  C15 UNL     1      -2.106  32.609  24.349  1.00  0.00     0.020 C
HETATM   31  C16 UNL     1      -3.445  34.499  25.067  1.00  0.00     0.020 C
HETATM   32  C10 UNL     1      -0.110  35.116  23.662  1.00  0.00     0.044 C
HETATM   33  C12 UNL     1      -1.261  36.080  25.448  1.00  0.00     0.013 C
HETATM   34  C9  UNL     1      -0.967  36.207  23.093  1.00  0.00     0.069 C
HETATM   35  C8  UNL     1      -0.264  37.436  22.634  1.00  0.00     0.044 C
HETATM   36  C13 UNL     1      -1.506  36.979  24.302  1.00  0.00     0.026 C
HETATM   37  O6  UNL     1      -1.996  35.692  22.397  1.00  0.00    -0.349 OA
HETATM   38  C7  UNL     1      -0.560  38.056  23.953  1.00  0.00     0.008 C
BRANCH  38  39
HETATM   39  C2  UNL     1       0.567  38.372  24.895  1.00  0.00     0.078 C
HETATM   40  C1  UNL     1      -0.054  39.319  25.940  1.00  0.00     0.020 C
BRANCH  39  41
HETATM   41  C3  UNL     1       1.576  39.201  24.175  1.00  0.00     0.221 C
HETATM   42  O1  UNL     1       1.208  40.161  23.407  1.00  0.00    -0.273 OA
HETATM   43  N1  UNL     1       2.973  39.027  24.255  1.00  0.00    -0.361 N
ATOM     44  H1  UNL     1       3.320  38.280  24.856  1.00  0.00     0.162 HD
BRANCH  43  45
HETATM   45  C4  UNL     1       3.938  39.814  23.560  1.00  0.00     0.124 C
BRANCH  45  46
HETATM   46  C5  UNL     1       5.268  39.140  23.340  1.00  0.00     0.046 C
BRANCH  46  47
HETATM   47  C6  UNL     1       6.136  39.456  24.540  1.00  0.00     0.165 C
BRANCH  47  48
HETATM   48  O2  UNL     1       6.475  38.323  25.267  1.00  0.00    -0.401 OA
ATOM     49  H2  UNL     1       6.933  38.530  26.074  1.00  0.00     0.209 HD
ENDBRANCH  47  48
ENDBRANCH  46  47
ENDBRANCH  45  46
ENDBRANCH  43  45
ENDBRANCH  39  41
ENDBRANCH  38  39
ENDBRANCH  26  27
ENDBRANCH   1  26
BRANCH  14  50
HETATM   50  O5  UNL     1     -13.711  32.908  18.259  1.00  0.00    -0.395 OA
ATOM     51  H5  UNL     1     -13.971  32.030  18.512  1.00  0.00     0.210 HD
ENDBRANCH  14  50
TORSDOF 9
ENDMDL