MODEL 2
REMARK VINA RESULT: -8.397473282      3.280      4.635
REMARK  12 active torsions:
REMARK  status: ('A' for Active; 'I' for Inactive)
REMARK    1  A    between atoms: C2_2  and  C3_3
REMARK    2  A    between atoms: C3_3  and  C4_4
REMARK    3  A    between atoms: C4_4  and  C5_5
REMARK    4  A    between atoms: C5_5  and  O1_6
REMARK    5  A    between atoms: O1_6  and  C6_7
REMARK    6  A    between atoms: C7_9  and  C8_10
REMARK    7  A    between atoms: C10_12  and  C11_13
REMARK    8  A    between atoms: C15_17  and  C17_19
REMARK    9  A    between atoms: C27_31  and  C29_33
REMARK   10  A    between atoms: C40_44  and  O4_45
REMARK   11  A    between atoms: C41_47  and  O5_48
REMARK   12  A    between atoms: C42_50  and  O6_51
ROOT
HETATM    1  C11 UNL     1      -2.171  34.256  27.854  1.00  0.00    -0.031 C
HETATM    2  C12 UNL     1      -3.577  33.680  28.208  1.00  0.00     0.016 C
HETATM    3  C13 UNL     1      -1.198  33.452  28.649  1.00  0.00     0.011 C
HETATM    4  C14 UNL     1      -0.287  32.830  27.591  1.00  0.00     0.011 C
HETATM    5  C15 UNL     1      -1.309  32.538  26.491  1.00  0.00    -0.030 C
HETATM    6  C16 UNL     1      -2.134  31.418  27.011  1.00  0.00     0.016 C
HETATM    7  C29 UNL     1      -1.634  35.027  22.692  1.00  0.00    -0.019 C
HETATM    8  C30 UNL     1      -2.860  34.710  21.841  1.00  0.00     0.018 C
HETATM    9  C31 UNL     1      -1.465  36.509  22.575  1.00  0.00    -0.004 C
HETATM   10  C32 UNL     1      -1.807  37.182  21.292  1.00  0.00     0.011 C
HETATM   11  C33 UNL     1      -2.659  36.471  23.575  1.00  0.00    -0.004 C
HETATM   12  C34 UNL     1      -2.714  37.645  24.503  1.00  0.00     0.011 C
HETATM   13  C35 UNL     1      -1.833  35.267  24.093  1.00  0.00    -0.019 A
HETATM   14  C36 UNL     1      -0.985  35.623  25.171  1.00  0.00     0.022 A
HETATM   15  C37 UNL     1      -1.938  34.570  25.215  1.00  0.00    -0.021 A
HETATM   16  C38 UNL     1      -3.206  34.173  25.663  1.00  0.00     0.023 A
HETATM   17  C39 UNL     1      -1.991  33.902  26.395  1.00  0.00    -0.016 A
ENDROOT
BRANCH   1  18
HETATM   18  C10 UNL     1      -2.288  35.663  28.260  1.00  0.00     0.002 A
HETATM   19  C8  UNL     1      -2.858  36.252  29.473  1.00  0.00     0.022 A
HETATM   20  C9  UNL     1      -3.712  36.205  28.219  1.00  0.00     0.013 A
BRANCH  19  21
HETATM   21  C7  UNL     1      -2.591  37.729  29.773  1.00  0.00     0.160 C
HETATM   22  O2  UNL     1      -1.955  38.258  28.581  1.00  0.00    -0.350 OA
HETATM   23  C6  UNL     1      -1.133  39.285  29.059  1.00  0.00     0.291 C
HETATM   24  C42 UNL     1      -1.812  40.138  30.073  1.00  0.00     0.204 C
HETATM   25  C41 UNL     1      -3.299  40.006  30.147  1.00  0.00     0.183 C
HETATM   26  C40 UNL     1      -3.801  38.590  29.878  1.00  0.00     0.178 C
BRANCH  23  27
HETATM   27  O1  UNL     1      -0.720  40.071  28.001  1.00  0.00    -0.359 OA
BRANCH  27  28
HETATM   28  C5  UNL     1      -0.829  39.509  26.762  1.00  0.00     0.171 C
BRANCH  28  29
HETATM   29  C4  UNL     1       0.436  39.046  26.129  1.00  0.00     0.026 C
BRANCH  29  30
HETATM   30  C3  UNL     1       0.356  39.444  24.645  1.00  0.00     0.002 C
BRANCH  30  31
HETATM   31  C2  UNL     1       1.409  38.632  23.926  1.00  0.00    -0.004 C
HETATM   32  C1  UNL     1       2.646  39.445  23.649  1.00  0.00     0.005 C
ENDBRANCH  30  31
ENDBRANCH  29  30
ENDBRANCH  28  29
ENDBRANCH  27  28
ENDBRANCH  23  27
BRANCH  24  33
HETATM   33  O6  UNL     1      -1.430  41.485  29.911  1.00  0.00    -0.388 OA
ATOM     34  H6  UNL     1      -0.587  41.638  30.320  1.00  0.00     0.210 HD
ENDBRANCH  24  33
BRANCH  25  35
HETATM   35  O5  UNL     1      -3.900  40.944  29.311  1.00  0.00    -0.390 OA
ATOM     36  H5  UNL     1      -3.295  41.287  28.664  1.00  0.00     0.210 HD
ENDBRANCH  25  35
BRANCH  26  37
HETATM   37  O4  UNL     1      -4.726  38.302  30.828  1.00  0.00    -0.390 OA
ATOM     38  H4  UNL     1      -5.042  37.409  30.901  1.00  0.00     0.210 HD
ENDBRANCH  26  37
ENDBRANCH  19  21
ENDBRANCH   1  18
BRANCH   5  39
HETATM   39  C17 UNL     1      -0.664  32.111  25.240  1.00  0.00     0.003 C
HETATM   40  C18 UNL     1       0.555  32.964  25.020  1.00  0.00     0.011 C
HETATM   41  C19 UNL     1       1.818  32.156  24.924  1.00  0.00     0.054 C
HETATM   42  C20 UNL     1       1.810  30.810  24.391  1.00  0.00     0.005 C
HETATM   43  N1  UNL     1       0.816  30.755  23.310  1.00  0.00    -0.303 N
HETATM   44  C27 UNL     1       1.796  29.505  25.029  1.00  0.00     0.004 C
HETATM   45  C21 UNL     1      -0.312  31.490  22.919  1.00  0.00     0.077 C
HETATM   46  C24 UNL     1       1.189  29.630  22.466  1.00  0.00     0.227 C
HETATM   47  C22 UNL     1      -1.326  31.943  23.948  1.00  0.00     0.025 C
HETATM   48  C23 UNL     1      -2.486  31.020  23.829  1.00  0.00     0.016 C
HETATM   49  O3  UNL     1       0.384  29.325  21.556  1.00  0.00    -0.273 OA
HETATM   50  C25 UNL     1       2.473  28.944  22.744  1.00  0.00     0.105 C
HETATM   51  C26 UNL     1       2.867  28.723  24.211  1.00  0.00     0.025 C
HETATM   52  C28 UNL     1       0.690  28.492  24.823  1.00  0.00     0.022 C
ENDBRANCH   5  39
TORSDOF 12
ENDMDL