MODEL 2
REMARK VINA RESULT: -9.015998812      1.677      2.049
REMARK  10 active torsions:
REMARK  status: ('A' for Active; 'I' for Inactive)
REMARK    1  A    between atoms: O1_2  and  C2_3
REMARK    2  A    between atoms: C4_5  and  O2_6
REMARK    3  A    between atoms: C23_26  and  C24_27
REMARK       I    between atoms: C24_27  and  N1_29
REMARK    4  A    between atoms: N1_29  and  C25_31
REMARK    5  A    between atoms: C25_31  and  C26_32
REMARK    6  A    between atoms: C26_32  and  C28_34
REMARK    7  A    between atoms: C28_34  and  N2_35
REMARK    8  A    between atoms: C30_37  and  N3_38
REMARK    9  A    between atoms: N3_38  and  N4_40
REMARK   10  A    between atoms: C32_46  and  O4_47
ROOT
HETATM    1  C2  UNL     1       0.710  28.925  21.556  1.00  0.00     0.131 C
HETATM    2  C3  UNL     1      -0.700  28.716  21.077  1.00  0.00     0.065 C
HETATM    3  C4  UNL     1      -1.783  29.315  21.871  1.00  0.00     0.129 C
HETATM    4  C5  UNL     1      -1.565  29.530  23.330  1.00  0.00    -0.009 C
HETATM    5  C6  UNL     1      -2.205  28.339  24.046  1.00  0.00     0.018 C
HETATM    6  C7  UNL     1      -0.117  29.527  23.743  1.00  0.00     0.007 C
HETATM    7  C8  UNL     1       0.549  30.849  23.700  1.00  0.00     0.007 C
HETATM    8  C9  UNL     1      -0.300  31.926  23.003  1.00  0.00     0.011 C
HETATM    9  C10 UNL     1      -1.633  32.064  23.735  1.00  0.00    -0.032 C
HETATM   10  C11 UNL     1      -1.141  32.425  25.161  1.00  0.00     0.016 C
HETATM   11  C12 UNL     1      -2.313  30.773  23.833  1.00  0.00     0.005 C
HETATM   12  C13 UNL     1      -3.732  30.684  23.352  1.00  0.00     0.007 C
HETATM   13  C14 UNL     1      -4.356  32.042  23.703  1.00  0.00     0.006 C
HETATM   14  C15 UNL     1      -3.746  32.973  22.710  1.00  0.00    -0.000 C
HETATM   15  C16 UNL     1      -4.543  34.145  22.293  1.00  0.00     0.009 C
HETATM   16  C17 UNL     1      -5.951  33.850  21.896  1.00  0.00     0.015 C
HETATM   17  C18 UNL     1      -6.174  33.204  20.574  1.00  0.00    -0.047 C
HETATM   18  C19 UNL     1      -7.502  33.701  19.970  1.00  0.00     0.015 C
HETATM   19  C20 UNL     1      -6.423  31.695  20.763  1.00  0.00     0.015 C
HETATM   20  C21 UNL     1      -5.108  33.346  19.563  1.00  0.00     0.010 C
HETATM   21  C22 UNL     1      -3.957  34.216  19.859  1.00  0.00     0.020 C
HETATM   22  C23 UNL     1      -3.839  34.853  21.185  1.00  0.00     0.045 C
HETATM   23  C33 UNL     1      -2.369  35.087  21.470  1.00  0.00     0.020 C
HETATM   24  C34 UNL     1      -1.653  33.911  22.041  1.00  0.00     0.011 C
HETATM   25  C35 UNL     1      -2.365  33.271  23.214  1.00  0.00    -0.032 C
HETATM   26  C36 UNL     1      -2.464  34.357  24.276  1.00  0.00     0.016 C
HETATM   27  C37 UNL     1       0.745  28.562  22.999  1.00  0.00    -0.017 C
HETATM   28  C38 UNL     1       2.161  28.717  23.514  1.00  0.00     0.018 C
HETATM   29  C39 UNL     1       0.426  27.104  23.202  1.00  0.00     0.018 C
ENDROOT
BRANCH  22  30
HETATM   30  C24 UNL     1      -4.400  36.257  21.118  1.00  0.00     0.230 C
HETATM   31  O3  UNL     1      -5.374  36.433  20.307  1.00  0.00    -0.272 OA
HETATM   32  N1  UNL     1      -3.953  37.347  21.852  1.00  0.00    -0.336 N
ATOM     33  H1  UNL     1      -3.187  37.105  22.482  1.00  0.00     0.168 HD
BRANCH  32  34
HETATM   34  C25 UNL     1      -4.302  38.694  21.931  1.00  0.00     0.099 C
BRANCH  34  35
HETATM   35  C26 UNL     1      -3.284  39.786  21.954  1.00  0.00    -0.031 C
HETATM   36  C27 UNL     1      -3.681  41.106  21.437  1.00  0.00     0.051 C
BRANCH  35  37
HETATM   37  C28 UNL     1      -1.934  39.302  21.515  1.00  0.00     0.096 C
BRANCH  37  38
HETATM   38  N2  UNL     1      -0.956  39.173  22.461  1.00  0.00    -0.361 N
HETATM   39  C29 UNL     1      -0.746  38.178  23.383  1.00  0.00     0.151 C
HETATM   40  C30 UNL     1       0.784  38.010  23.547  1.00  0.00     0.122 C
HETATM   41  C31 UNL     1       1.344  39.297  23.001  1.00  0.00     0.082 C
HETATM   42  C32 UNL     1       0.179  40.066  22.413  1.00  0.00     0.221 C
BRANCH  40  43
HETATM   43  N3  UNL     1       1.085  37.828  24.949  1.00  0.00    -0.316 N
ATOM     44  H3  UNL     1       1.790  38.391  25.425  1.00  0.00     0.182 HD
BRANCH  43  45
HETATM   45  N4  UNL     1       0.444  36.951  25.541  1.00  0.00    -0.253 N
HETATM   46  N5  UNL     1       0.113  35.815  25.936  1.00  0.00    -0.331 N
ATOM     47  H52 UNL     1       0.846  35.291  25.457  1.00  0.00     0.178 HD
ATOM     48  H51 UNL     1      -0.417  35.092  26.424  1.00  0.00     0.178 HD
ATOM     49  H4  UNL     1      -0.269  37.520  25.997  1.00  0.00     0.207 HD
ENDBRANCH  43  45
ENDBRANCH  40  43
BRANCH  42  50
HETATM   50  O4  UNL     1       0.481  40.308  21.076  1.00  0.00    -0.377 OA
ATOM     51  H4  UNL     1       0.709  39.479  20.672  1.00  0.00     0.212 HD
ENDBRANCH  42  50
ENDBRANCH  37  38
ENDBRANCH  35  37
ENDBRANCH  34  35
ENDBRANCH  32  34
ENDBRANCH  22  30
BRANCH   3  52
HETATM   52  O2  UNL     1      -2.903  28.465  21.639  1.00  0.00    -0.395 OA
ATOM     53  H2  UNL     1      -3.363  28.451  22.470  1.00  0.00     0.210 HD
ENDBRANCH   3  52
BRANCH   1  54
HETATM   54  O1  UNL     1       1.488  28.000  20.849  1.00  0.00    -0.390 OA
HETATM   55  C1  UNL     1       1.191  27.907  19.516  1.00  0.00     0.202 C
ENDBRANCH   1  54
TORSDOF 10
ENDMDL