MODEL 4
REMARK VINA RESULT: -8.189875321      2.307      3.319
REMARK  9 active torsions:
REMARK  status: ('A' for Active; 'I' for Inactive)
REMARK    1  A    between atoms: C2_2  and  C4_4
REMARK       I    between atoms: C4_4  and  N1_6
REMARK    2  A    between atoms: C6_8  and  O2_9
REMARK    3  A    between atoms: O2_9  and  C7_10
REMARK    4  A    between atoms: C7_10  and  C8_11
REMARK    5  A    between atoms: C8_11  and  O3_12
REMARK    6  A    between atoms: C8_11  and  C9_14
REMARK    7  A    between atoms: C9_14  and  O4_15
REMARK    8  A    between atoms: O4_15  and  C10_16
REMARK    9  A    between atoms: C30_39  and  O5_40
ROOT
HETATM    1  C4  UNL     1      10.869  70.152   2.907  1.00  0.00     0.224 C
HETATM    2  O1  UNL     1      10.362  71.016   2.176  1.00  0.00    -0.273 OA
HETATM    3  N1  UNL     1      10.909  70.423   4.294  1.00  0.00    -0.340 N
HETATM    4  C5  UNL     1      11.488  69.344   5.073  1.00  0.00     0.158 C
HETATM    5  C6  UNL     1      10.560  69.204   6.270  1.00  0.00     0.140 C
HETATM    6  C16 UNL     1      10.950  70.443   7.081  1.00  0.00     0.045 C
HETATM    7  C17 UNL     1      10.479  71.714   6.370  1.00  0.00    -0.012 C
HETATM    8  C18 UNL     1       9.063  71.875   6.977  1.00  0.00     0.018 C
HETATM    9  C19 UNL     1      11.272  72.814   7.033  1.00  0.00     0.005 C
HETATM   10  C20 UNL     1      12.788  72.515   7.092  1.00  0.00     0.007 C
HETATM   11  C21 UNL     1      13.452  73.863   7.157  1.00  0.00     0.012 C
HETATM   12  C22 UNL     1      12.325  74.909   7.227  1.00  0.00    -0.021 C
HETATM   13  C23 UNL     1      12.459  75.992   6.188  1.00  0.00    -0.004 C
HETATM   14  C24 UNL     1      12.841  77.364   6.675  1.00  0.00     0.006 C
HETATM   15  C25 UNL     1      13.758  77.120   7.786  1.00  0.00     0.007 C
HETATM   16  C26 UNL     1      12.935  76.587   8.949  1.00  0.00     0.005 C
HETATM   17  C27 UNL     1      12.295  77.630   9.780  1.00  0.00    -0.017 C
HETATM   18  C28 UNL     1      12.463  77.395  11.294  1.00  0.00     0.018 C
HETATM   19  C29 UNL     1      13.115  78.919   9.575  1.00  0.00     0.018 C
HETATM   20  C30 UNL     1      10.899  77.992   9.533  1.00  0.00     0.126 C
HETATM   21  C31 UNL     1      10.097  76.840   9.100  1.00  0.00     0.033 C
HETATM   22  C32 UNL     1      10.731  75.506   9.129  1.00  0.00     0.013 C
HETATM   23  C33 UNL     1      12.137  75.333   8.607  1.00  0.00    -0.031 C
HETATM   24  C34 UNL     1      12.739  74.385   9.676  1.00  0.00     0.016 C
HETATM   25  C35 UNL     1      11.100  76.199   5.557  1.00  0.00     0.006 C
HETATM   26  C36 UNL     1      10.263  74.966   5.958  1.00  0.00     0.011 C
HETATM   27  C37 UNL     1      11.333  74.112   6.422  1.00  0.00    -0.027 C
HETATM   28  C38 UNL     1      11.961  73.739   5.055  1.00  0.00     0.013 C
HETATM   29  C39 UNL     1      11.099  72.848   4.246  1.00  0.00     0.032 C
HETATM   30  C40 UNL     1      10.429  71.672   4.909  1.00  0.00     0.039 C
HETATM   31  C41 UNL     1       8.974  71.729   4.418  1.00  0.00     0.039 C
ENDROOT
BRANCH   5  32
HETATM   32  O2  UNL     1      10.975  68.107   6.978  1.00  0.00    -0.382 OA
BRANCH  32  33
HETATM   33  C7  UNL     1       9.988  67.492   7.742  1.00  0.00     0.202 C
BRANCH  33  34
HETATM   34  C8  UNL     1       9.389  66.366   6.930  1.00  0.00     0.165 C
BRANCH  34  35
HETATM   35  O3  UNL     1      10.220  65.244   6.908  1.00  0.00    -0.391 OA
ATOM     36  H3  UNL     1       9.758  64.458   7.178  1.00  0.00     0.210 HD
ENDBRANCH  34  35
BRANCH  34  37
HETATM   37  C9  UNL     1       8.017  65.977   7.455  1.00  0.00     0.202 C
BRANCH  37  38
HETATM   38  O4  UNL     1       7.224  65.455   6.440  1.00  0.00    -0.383 OA
BRANCH  38  39
HETATM   39  C10 UNL     1       6.372  64.451   6.821  1.00  0.00     0.123 C
HETATM   40  C11 UNL     1       5.609  64.007   5.604  1.00  0.00     0.034 C
HETATM   41  C12 UNL     1       4.400  64.829   5.313  1.00  0.00     0.030 C
HETATM   42  C13 UNL     1       3.128  64.305   5.952  1.00  0.00     0.232 C
HETATM   43  N2  UNL     1       3.115  64.683   7.353  1.00  0.00    -0.075 N
HETATM   44  C14 UNL     1       4.239  63.998   7.987  1.00  0.00     0.235 C
ATOM     45  H22 UNL     1       3.128  65.693   7.496  1.00  0.00     0.277 HD
ATOM     46  H21 UNL     1       2.222  64.498   7.809  1.00  0.00     0.277 HD
HETATM   47  C15 UNL     1       5.462  64.853   7.961  1.00  0.00     0.059 C
ENDBRANCH  38  39
ENDBRANCH  37  38
ENDBRANCH  34  37
ENDBRANCH  33  34
ENDBRANCH  32  33
ENDBRANCH   5  32
BRANCH   1  48
HETATM   48  C2  UNL     1      11.379  68.936   2.248  1.00  0.00     0.070 C
HETATM   49  C1  UNL     1      12.868  68.778   2.350  1.00  0.00     0.019 C
HETATM   50  C3  UNL     1      11.035  68.982   0.774  1.00  0.00     0.019 C
ENDBRANCH   1  48
BRANCH  20  51
HETATM   51  O5  UNL     1      10.369  78.578  10.713  1.00  0.00    -0.395 OA
ATOM     52  H5  UNL     1      10.751  78.141  11.465  1.00  0.00     0.210 HD
ENDBRANCH  20  51
TORSDOF 9
ENDMDL