MODEL 4
REMARK VINA RESULT: -8.547675432      3.914      6.718
REMARK  8 active torsions:
REMARK  status: ('A' for Active; 'I' for Inactive)
REMARK    1  A    between atoms: C2_2  and  C3_3
REMARK    2  A    between atoms: C3_3  and  C4_4
REMARK    3  A    between atoms: C4_4  and  N1_5
REMARK       I    between atoms: N1_5  and  C5_7
REMARK    4  A    between atoms: C5_7  and  C6_9
REMARK    5  A    between atoms: C17_21  and  C19_23
REMARK    6  A    between atoms: C24_30  and  O5_31
REMARK    7  A    between atoms: O5_31  and  C25_32
REMARK    8  A    between atoms: C35_43  and  O7_44
ROOT
HETATM    1  C6  UNL     1      10.130  71.199   2.635  1.00  0.00     0.086 C
HETATM    2  C7  UNL     1      11.154  72.344   2.555  1.00  0.00     0.015 C
HETATM    3  C8  UNL     1      10.490  73.469   3.345  1.00  0.00     0.010 C
HETATM    4  C9  UNL     1      10.346  73.085   4.822  1.00  0.00    -0.039 C
HETATM    5  C10 UNL     1       8.954  73.431   5.217  1.00  0.00     0.015 C
HETATM    6  C11 UNL     1      11.312  73.992   5.540  1.00  0.00     0.015 C
HETATM    7  C12 UNL     1      11.418  73.780   7.023  1.00  0.00     0.003 C
HETATM    8  C13 UNL     1      12.301  72.598   7.279  1.00  0.00     0.019 C
HETATM    9  C14 UNL     1      13.247  72.737   8.431  1.00  0.00     0.010 C
HETATM   10  C15 UNL     1      13.941  74.111   8.324  1.00  0.00     0.033 C
HETATM   11  C16 UNL     1      12.808  75.053   8.725  1.00  0.00     0.132 C
HETATM   12  O2  UNL     1      13.243  76.343   8.982  1.00  0.00    -0.363 OA
HETATM   13  C17 UNL     1      12.246  77.002   9.660  1.00  0.00     0.145 C
HETATM   14  C18 UNL     1      12.608  78.498   9.554  1.00  0.00     0.058 C
HETATM   15  C20 UNL     1      10.872  76.847   9.132  1.00  0.00     0.050 C
HETATM   16  C21 UNL     1      10.612  75.820   8.117  1.00  0.00     0.015 C
HETATM   17  C22 UNL     1      11.848  75.087   7.600  1.00  0.00    -0.014 C
HETATM   18  C23 UNL     1      12.451  76.035   6.551  1.00  0.00     0.018 C
HETATM   19  C24 UNL     1      11.596  71.287   7.404  1.00  0.00     0.126 C
HETATM   20  C36 UNL     1      10.433  71.158   6.391  1.00  0.00     0.038 C
HETATM   21  C37 UNL     1      10.755  71.676   5.039  1.00  0.00     0.005 C
HETATM   22  C38 UNL     1      10.233  70.678   4.021  1.00  0.00    -0.031 C
HETATM   23  C39 UNL     1       8.877  70.112   4.440  1.00  0.00     0.016 C
HETATM   24  C40 UNL     1      11.230  69.540   4.026  1.00  0.00     0.016 C
ENDROOT
BRANCH  19  25
HETATM   25  O5  UNL     1      10.982  71.089   8.620  1.00  0.00    -0.380 OA
BRANCH  25  26
HETATM   26  C25 UNL     1       9.800  70.405   8.618  1.00  0.00     0.122 C
HETATM   27  C26 UNL     1      10.040  68.937   8.444  1.00  0.00     0.032 C
HETATM   28  C27 UNL     1       8.922  68.238   7.714  1.00  0.00     0.013 C
HETATM   29  C28 UNL     1       7.597  68.289   8.323  1.00  0.00     0.060 C
HETATM   30  C29 UNL     1       7.159  67.201   9.263  1.00  0.00     0.093 C
HETATM   31  C31 UNL     1       7.457  68.888   9.676  1.00  0.00     0.100 C
HETATM   32  C30 UNL     1       6.947  65.875   8.988  1.00  0.00     0.049 C
HETATM   33  O6  UNL     1       8.022  67.761  10.200  1.00  0.00    -0.363 OA
HETATM   34  C35 UNL     1       6.130  68.181   9.784  1.00  0.00     0.188 C
HETATM   35  C32 UNL     1       7.694  70.213   9.957  1.00  0.00     0.022 C
HETATM   36  C33 UNL     1       7.091  71.133   8.887  1.00  0.00     0.013 C
HETATM   37  C34 UNL     1       9.170  70.548  10.029  1.00  0.00     0.039 C
BRANCH  34  38
HETATM   38  O7  UNL     1       5.681  67.931  11.064  1.00  0.00    -0.389 OA
ATOM     39  H7  UNL     1       5.118  68.601  11.431  1.00  0.00     0.210 HD
ENDBRANCH  34  38
ENDBRANCH  25  26
ENDBRANCH  19  25
BRANCH   1  40
HETATM   40  C5  UNL     1      10.381  70.270   1.539  1.00  0.00     0.222 C
HETATM   41  N1  UNL     1      11.514  70.266   0.685  1.00  0.00    -0.361 N
ATOM     42  H1  UNL     1      12.227  70.983   0.823  1.00  0.00     0.162 HD
HETATM   43  O1  UNL     1       9.516  69.361   1.309  1.00  0.00    -0.273 OA
BRANCH  41  44
HETATM   44  C4  UNL     1      11.703  69.306  -0.358  1.00  0.00     0.122 C
BRANCH  44  45
HETATM   45  C3  UNL     1      13.039  68.667  -0.467  1.00  0.00     0.019 C
BRANCH  45  46
HETATM   46  C2  UNL     1      13.450  67.834   0.719  1.00  0.00    -0.003 C
HETATM   47  C1  UNL     1      14.837  67.269   0.381  1.00  0.00     0.005 C
ENDBRANCH  45  46
ENDBRANCH  44  45
ENDBRANCH  41  44
ENDBRANCH   1  40
BRANCH  13  48
HETATM   48  C19 UNL     1      12.366  76.687  11.102  1.00  0.00     0.208 C
HETATM   49  O3  UNL     1      12.797  75.589  11.535  1.00  0.00    -0.646 OA
HETATM   50  O4  UNL     1      11.992  77.634  12.037  1.00  0.00    -0.646 OA
ENDBRANCH  13  48
TORSDOF 8
ENDMDL