MODEL 1
REMARK VINA RESULT: -6.489220101      0.000      0.000
REMARK  11 active torsions:
REMARK  status: ('A' for Active; 'I' for Inactive)
REMARK    1  A    between atoms: C3_3  and  C4_4
REMARK    2  A    between atoms: C4_4  and  O1_5
REMARK    3  A    between atoms: C5_7  and  O2_8
REMARK    4  A    between atoms: O2_8  and  S1_9
REMARK    5  A    between atoms: S1_9  and  C6_12
REMARK    6  A    between atoms: C23_29  and  C24_30
REMARK       I    between atoms: C24_30  and  N1_32
REMARK    7  A    between atoms: N1_32  and  C25_34
REMARK    8  A    between atoms: C25_34  and  C26_35
REMARK    9  A    between atoms: C26_35  and  C27_36
REMARK   10  A    between atoms: C27_36  and  C28_37
REMARK   11  A    between atoms: C36_45  and  O6_46
ROOT
HETATM    1  C1  UNL     1       8.112  77.605   0.443  1.00  0.00     0.112 C
HETATM    2  C2  UNL     1       9.404  77.807   1.101  1.00  0.00    -0.108 C
HETATM    3  C3  UNL     1      10.483  77.966   1.629  1.00  0.00    -0.065 C
ENDROOT
BRANCH   3   4
HETATM    4  C4  UNL     1      11.805  78.190   2.277  1.00  0.00     0.156 C
HETATM    5  C5  UNL     1      12.879  77.834   1.312  1.00  0.00     0.190 C
HETATM    6  C10 UNL     1      14.178  77.997   2.123  1.00  0.00     0.038 C
HETATM    7  C11 UNL     1      14.164  76.766   2.995  1.00  0.00     0.013 C
HETATM    8  C12 UNL     1      13.052  76.820   4.047  1.00  0.00    -0.028 C
HETATM    9  C13 UNL     1      13.756  77.652   5.123  1.00  0.00     0.016 C
HETATM   10  C14 UNL     1      12.848  75.385   4.479  1.00  0.00     0.006 C
HETATM   11  C38 UNL     1      11.846  77.562   3.634  1.00  0.00     0.011 C
HETATM   12  C15 UNL     1      12.745  74.467   3.321  1.00  0.00     0.007 C
HETATM   13  C34 UNL     1      11.788  75.186   5.527  1.00  0.00    -0.006 C
HETATM   14  C16 UNL     1      11.767  73.340   3.418  1.00  0.00     0.006 C
HETATM   15  C17 UNL     1      11.860  72.745   4.778  1.00  0.00     0.000 C
HETATM   16  C18 UNL     1      11.014  71.509   4.791  1.00  0.00     0.012 C
HETATM   17  C32 UNL     1      11.660  73.694   5.895  1.00  0.00    -0.030 C
HETATM   18  C19 UNL     1      11.546  70.406   5.669  1.00  0.00    -0.013 C
HETATM   19  C23 UNL     1       9.591  71.662   5.138  1.00  0.00     0.045 C
HETATM   20  C20 UNL     1      12.768  69.734   5.087  1.00  0.00     0.010 C
HETATM   21  C21 UNL     1      10.416  69.397   5.539  1.00  0.00     0.006 C
HETATM   22  C22 UNL     1       9.212  70.265   5.648  1.00  0.00     0.020 C
HETATM   23  C30 UNL     1       9.301  72.706   6.165  1.00  0.00     0.020 C
HETATM   24  C31 UNL     1      10.439  73.444   6.733  1.00  0.00     0.011 C
HETATM   25  C33 UNL     1      12.851  73.431   6.854  1.00  0.00     0.016 C
HETATM   26  C35 UNL     1      12.100  75.816   6.859  1.00  0.00     0.019 C
HETATM   27  C36 UNL     1      10.558  75.829   5.011  1.00  0.00     0.128 C
HETATM   28  C37 UNL     1      10.636  76.680   3.799  1.00  0.00     0.046 C
HETATM   29  C39 UNL     1      11.574  78.777   4.552  1.00  0.00     0.020 C
BRANCH   4  30
HETATM   30  O1  UNL     1      11.924  79.614   2.328  1.00  0.00    -0.374 OA
ATOM     31  H1  UNL     1      12.862  79.761   2.365  1.00  0.00     0.212 HD
ENDBRANCH   4  30
BRANCH   5  32
HETATM   32  O2  UNL     1      12.910  78.769   0.290  1.00  0.00    -0.266 OA
BRANCH  32  33
HETATM   33  S1  UNL     1      13.130  78.105  -1.221  1.00  0.00     0.273 S
HETATM   34  O3  UNL     1      13.226  76.613  -1.080  1.00  0.00    -0.198 OA
HETATM   35  O4  UNL     1      14.370  78.598  -1.904  1.00  0.00    -0.198 OA
BRANCH  33  36
HETATM   36  C6  UNL     1      11.751  78.437  -2.293  1.00  0.00     0.078 C
HETATM   37  C7  UNL     1      10.764  77.276  -2.287  1.00  0.00     0.033 C
HETATM   38  C8  UNL     1      12.180  78.727  -3.708  1.00  0.00     0.033 C
HETATM   39  C9  UNL     1      10.994  79.641  -1.782  1.00  0.00     0.033 C
ENDBRANCH  33  36
ENDBRANCH  32  33
ENDBRANCH   5  32
BRANCH  19  40
HETATM   40  C24 UNL     1       8.738  71.880   3.936  1.00  0.00     0.226 C
HETATM   41  O5  UNL     1       8.516  73.042   3.510  1.00  0.00    -0.273 OA
HETATM   42  N1  UNL     1       8.125  70.830   3.198  1.00  0.00    -0.360 N
ATOM     43  H1  UNL     1       8.282  69.873   3.513  1.00  0.00     0.162 HD
BRANCH  42  44
HETATM   44  C25 UNL     1       7.307  71.026   2.050  1.00  0.00     0.122 C
BRANCH  44  45
HETATM   45  C26 UNL     1       8.023  70.495   0.829  1.00  0.00     0.020 C
BRANCH  45  46
HETATM   46  C27 UNL     1       9.272  69.726   1.192  1.00  0.00     0.001 C
BRANCH  46  47
HETATM   47  C28 UNL     1      10.451  70.625   0.817  1.00  0.00    -0.004 C
HETATM   48  C29 UNL     1      11.709  70.100   1.466  1.00  0.00     0.005 C
ENDBRANCH  46  47
ENDBRANCH  45  46
ENDBRANCH  44  45
ENDBRANCH  42  44
ENDBRANCH  19  40
BRANCH  27  49
HETATM   49  O6  UNL     1       9.833  76.550   5.996  1.00  0.00    -0.395 OA
ATOM     50  H6  UNL     1       9.334  75.998   6.587  1.00  0.00     0.210 HD
ENDBRANCH  27  49
ENDBRANCH   3   4
TORSDOF 11
ENDMDL