MODEL 1
REMARK VINA RESULT: -7.398564943      0.000      0.000
REMARK  9 active torsions:
REMARK  status: ('A' for Active; 'I' for Inactive)
REMARK    1  A    between atoms: C2_2  and  C3_3
REMARK    2  A    between atoms: C2_2  and  N1_41
REMARK    3  A    between atoms: C3_3  and  O1_4
REMARK    4  A    between atoms: O1_4  and  C4_5
REMARK    5  A    between atoms: C36_38  and  O3_39
REMARK    6  A    between atoms: N1_41  and  C37_43
REMARK    7  A    between atoms: C37_43  and  C38_44
REMARK    8  A    between atoms: C38_44  and  S1_45
REMARK    9  A    between atoms: S1_45  and  N2_46
ROOT
HETATM    1  C4  UNL     1       8.394  69.409  12.074  1.00  0.00     0.221 C
HETATM    2  C5  UNL     1       6.955  69.176  12.054  1.00  0.00     0.166 C
HETATM    3  O2  UNL     1       6.317  68.409  12.748  1.00  0.00    -0.294 OA
HETATM    4  C6  UNL     1       6.117  69.960  11.067  1.00  0.00     0.020 C
HETATM    5  C7  UNL     1       5.516  71.088  11.911  1.00  0.00     0.023 C
HETATM    6  C8  UNL     1       4.995  69.171  10.522  1.00  0.00     0.023 C
HETATM    7  C9  UNL     1       7.067  70.549  10.112  1.00  0.00     0.012 C
HETATM    8  C10 UNL     1       6.449  71.213   8.893  1.00  0.00     0.007 C
HETATM    9  C11 UNL     1       7.514  72.228   8.444  1.00  0.00     0.011 C
HETATM   10  C12 UNL     1       8.789  71.589   7.968  1.00  0.00    -0.032 C
HETATM   11  C13 UNL     1       9.823  72.377   8.745  1.00  0.00     0.016 C
HETATM   12  C14 UNL     1       8.766  70.158   8.335  1.00  0.00     0.005 C
HETATM   13  C15 UNL     1      10.223  69.758   8.173  1.00  0.00     0.007 C
HETATM   14  C16 UNL     1      10.775  70.130   6.827  1.00  0.00     0.007 C
HETATM   15  C17 UNL     1       9.795  70.626   5.841  1.00  0.00     0.004 C
HETATM   16  C18 UNL     1       8.983  71.723   6.440  1.00  0.00    -0.032 C
HETATM   17  C19 UNL     1       9.529  73.109   6.363  1.00  0.00     0.016 C
HETATM   18  C20 UNL     1       7.628  71.671   5.769  1.00  0.00     0.010 C
HETATM   19  C21 UNL     1       7.501  72.580   4.591  1.00  0.00     0.001 C
HETATM   20  C22 UNL     1       8.425  72.304   3.472  1.00  0.00     0.006 C
HETATM   21  C23 UNL     1       9.126  70.982   3.489  1.00  0.00     0.003 C
HETATM   22  C24 UNL     1       9.243  70.627   2.042  1.00  0.00    -0.043 C
HETATM   23  C25 UNL     1       9.837  71.718   1.192  1.00  0.00     0.015 C
HETATM   24  C26 UNL     1       7.815  70.434   1.509  1.00  0.00     0.015 C
HETATM   25  C27 UNL     1       9.942  69.353   1.746  1.00  0.00     0.010 C
HETATM   26  C28 UNL     1      11.211  69.571   2.440  1.00  0.00     0.010 C
HETATM   27  C29 UNL     1      11.063  69.565   3.980  1.00  0.00    -0.040 C
HETATM   28  C30 UNL     1      12.516  69.561   4.352  1.00  0.00     0.015 C
HETATM   29  C31 UNL     1      10.339  68.285   4.202  1.00  0.00     0.015 C
HETATM   30  C32 UNL     1      10.276  70.820   4.430  1.00  0.00    -0.028 C
HETATM   31  C33 UNL     1      11.328  71.908   4.285  1.00  0.00     0.016 C
HETATM   32  C34 UNL     1       8.141  69.643   9.558  1.00  0.00    -0.006 C
HETATM   33  C35 UNL     1       7.528  68.267   9.191  1.00  0.00     0.019 C
HETATM   34  C36 UNL     1       9.056  69.299  10.711  1.00  0.00     0.163 C
ENDROOT
BRANCH   1  35
HETATM   35  O1  UNL     1       8.684  70.619  12.685  1.00  0.00    -0.374 OA
BRANCH  35  36
HETATM   36  C3  UNL     1       9.981  70.825  13.036  1.00  0.00     0.193 C
BRANCH  36  37
HETATM   37  C2  UNL     1      10.545  72.200  12.793  1.00  0.00     0.100 C
HETATM   38  C1  UNL     1       9.516  73.114  12.157  1.00  0.00     0.034 C
BRANCH  37  39
HETATM   39  N1  UNL     1      11.692  72.020  11.933  1.00  0.00    -0.395 N
ATOM     40  H1  UNL     1      11.662  71.410  11.115  1.00  0.00     0.159 HD
BRANCH  39  41
HETATM   41  C37 UNL     1      12.850  72.731  12.285  1.00  0.00     0.072 C
BRANCH  41  42
HETATM   42  C38 UNL     1      13.141  74.026  11.632  1.00  0.00     0.206 C
BRANCH  42  43
HETATM   43  S1  UNL     1      13.715  73.953   9.968  1.00  0.00     0.229 S
HETATM   44  O4  UNL     1      13.132  72.728   9.262  1.00  0.00    -0.206 OA
HETATM   45  O5  UNL     1      13.209  75.126   9.163  1.00  0.00    -0.206 OA
BRANCH  43  46
HETATM   46  N2  UNL     1      15.408  73.852   9.819  1.00  0.00    -0.328 N
ATOM     47  H22 UNL     1      15.882  72.970   9.624  1.00  0.00     0.168 HD
ATOM     48  H21 UNL     1      15.892  74.742   9.940  1.00  0.00     0.168 HD
ENDBRANCH  43  46
ENDBRANCH  42  43
ENDBRANCH  41  42
ENDBRANCH  39  41
ENDBRANCH  37  39
ENDBRANCH  36  37
ENDBRANCH  35  36
ENDBRANCH   1  35
BRANCH  34  49
HETATM   49  O3  UNL     1       9.501  67.955  10.638  1.00  0.00    -0.392 OA
ATOM     50  H3  UNL     1       9.365  67.707   9.731  1.00  0.00     0.210 HD
ENDBRANCH  34  49
TORSDOF 9
ENDMDL