MODEL 3
REMARK VINA RESULT: -8.886429356      3.315      8.322
REMARK  9 active torsions:
REMARK  status: ('A' for Active; 'I' for Inactive)
REMARK    1  A    between atoms: C3_3  and  C4_4
REMARK    2  A    between atoms: C6_6  and  O1_7
REMARK    3  A    between atoms: O1_7  and  C7_8
REMARK    4  A    between atoms: C11_12  and  C12_13
REMARK       I    between atoms: C12_13  and  N1_15
REMARK    5  A    between atoms: N1_15  and  C13_17
REMARK    6  A    between atoms: C13_17  and  C14_18
REMARK    7  A    between atoms: C36_44  and  C37_45
REMARK    8  A    between atoms: C37_45  and  C38_47
REMARK    9  A    between atoms: C38_47  and  O5_48
ROOT
HETATM    1  C4  UNL     1      10.143  76.163   5.741  1.00  0.00     0.004 C
HETATM    2  C5  UNL     1       9.214  75.096   5.157  1.00  0.00     0.022 C
HETATM    3  C6  UNL     1      11.387  76.144   4.912  1.00  0.00     0.137 C
HETATM    4  C19 UNL     1      12.248  77.277   5.452  1.00  0.00     0.034 C
HETATM    5  C20 UNL     1      12.750  76.825   6.787  1.00  0.00     0.012 C
HETATM    6  C21 UNL     1      11.638  76.501   7.763  1.00  0.00    -0.035 C
HETATM    7  C22 UNL     1      11.232  77.937   8.195  1.00  0.00     0.016 C
HETATM    8  C23 UNL     1      10.424  75.882   7.204  1.00  0.00     0.008 C
HETATM    9  C24 UNL     1      10.307  74.400   7.392  1.00  0.00     0.007 C
HETATM   10  C25 UNL     1      10.796  73.903   8.738  1.00  0.00     0.011 C
HETATM   11  C26 UNL     1      12.172  74.384   9.067  1.00  0.00    -0.032 C
HETATM   12  C27 UNL     1      13.076  73.790   7.972  1.00  0.00     0.016 C
HETATM   13  C28 UNL     1      12.159  75.879   9.010  1.00  0.00     0.003 C
HETATM   14  C29 UNL     1      11.465  76.352  10.271  1.00  0.00     0.006 C
HETATM   15  C30 UNL     1      12.491  76.128  11.392  1.00  0.00     0.006 C
HETATM   16  C31 UNL     1      12.526  74.648  11.596  1.00  0.00    -0.000 C
HETATM   17  C32 UNL     1      11.361  74.240  12.404  1.00  0.00     0.006 C
HETATM   18  C33 UNL     1      10.984  75.037  13.564  1.00  0.00     0.006 C
HETATM   19  C34 UNL     1      10.061  74.133  14.333  1.00  0.00     0.002 C
HETATM   20  C35 UNL     1      10.159  72.754  13.665  1.00  0.00     0.018 C
HETATM   21  C36 UNL     1      11.461  72.827  12.890  1.00  0.00     0.027 C
HETATM   22  C39 UNL     1      11.395  72.036  11.601  1.00  0.00     0.018 C
HETATM   23  C40 UNL     1      12.420  72.410  10.612  1.00  0.00     0.011 C
HETATM   24  C41 UNL     1      12.722  73.837  10.350  1.00  0.00    -0.032 C
HETATM   25  C42 UNL     1      14.268  73.913  10.155  1.00  0.00     0.016 C
ENDROOT
BRANCH   3  26
HETATM   26  O1  UNL     1      11.098  76.294   3.587  1.00  0.00    -0.355 OA
BRANCH  26  27
HETATM   27  C7  UNL     1      11.771  75.415   2.743  1.00  0.00     0.261 C
HETATM   28  C8  UNL     1      12.754  74.534   3.418  1.00  0.00     0.068 C
HETATM   29  C9  UNL     1      12.204  73.156   3.266  1.00  0.00     0.024 C
HETATM   30  C10 UNL     1      12.259  72.373   4.546  1.00  0.00     0.013 C
HETATM   31  C11 UNL     1      10.788  73.393   2.796  1.00  0.00     0.220 C
HETATM   32  O3  UNL     1      10.780  74.619   2.171  1.00  0.00    -0.346 OA
BRANCH  31  33
HETATM   33  C12 UNL     1      10.266  72.312   1.953  1.00  0.00     0.247 C
HETATM   34  O2  UNL     1       9.008  72.205   1.833  1.00  0.00    -0.271 OA
HETATM   35  N1  UNL     1      11.103  71.389   1.274  1.00  0.00    -0.358 N
ATOM     36  H1  UNL     1      12.114  71.477   1.374  1.00  0.00     0.162 HD
BRANCH  35  37
HETATM   37  C13 UNL     1      10.577  70.331   0.448  1.00  0.00     0.127 C
BRANCH  37  38
HETATM   38  C14 UNL     1      11.206  68.999   0.757  1.00  0.00     0.006 C
HETATM   39  C15 UNL     1      11.260  68.748   2.231  1.00  0.00     0.034 C
HETATM   40  C16 UNL     1      12.671  68.495   2.720  1.00  0.00     0.232 C
HETATM   41  N2  UNL     1      13.242  67.421   1.963  1.00  0.00    -0.075 N
HETATM   42  C17 UNL     1      13.287  67.672   0.556  1.00  0.00     0.232 C
ATOM     43  H22 UNL     1      14.168  67.184   2.317  1.00  0.00     0.277 HD
ATOM     44  H21 UNL     1      12.755  66.546   2.157  1.00  0.00     0.277 HD
HETATM   45  C18 UNL     1      12.572  68.904   0.106  1.00  0.00     0.034 C
ENDBRANCH  37  38
ENDBRANCH  35  37
ENDBRANCH  31  33
ENDBRANCH  26  27
ENDBRANCH   3  26
BRANCH   1  46
HETATM   46  C3  UNL     1       9.342  77.412   5.604  1.00  0.00    -0.019 C
HETATM   47  C2  UNL     1       8.139  77.605   6.075  1.00  0.00    -0.034 C
HETATM   48  C1  UNL     1       7.433  78.921   5.867  1.00  0.00     0.036 C
ENDBRANCH   1  46
BRANCH  21  49
HETATM   49  C37 UNL     1      12.612  72.423  13.667  1.00  0.00     0.159 C
HETATM   50  O4  UNL     1      13.682  72.950  13.412  1.00  0.00    -0.295 OA
BRANCH  49  51
HETATM   51  C38 UNL     1      12.654  71.416  14.765  1.00  0.00     0.243 C
BRANCH  51  52
HETATM   52  O5  UNL     1      13.941  70.861  14.912  1.00  0.00    -0.394 OA
ATOM     53  H5  UNL     1      14.196  70.805  15.826  1.00  0.00     0.209 HD
ENDBRANCH  51  52
ENDBRANCH  49  51
ENDBRANCH  21  49
TORSDOF 9
ENDMDL