MODEL 5
REMARK VINA RESULT: -7.229241471      5.190      6.879
REMARK  8 active torsions:
REMARK  status: ('A' for Active; 'I' for Inactive)
REMARK    1  A    between atoms: O1_2  and  C2_3
REMARK    2  A    between atoms: C2_3  and  C3_4
REMARK    3  A    between atoms: C7_8  and  C9_10
REMARK    4  A    between atoms: C15_16  and  C16_17
REMARK    5  A    between atoms: C25_26  and  C26_27
REMARK    6  A    between atoms: C26_27  and  C27_28
REMARK    7  A    between atoms: C35_38  and  O3_39
REMARK    8  A    between atoms: C38_43  and  O4_44
ROOT
HETATM    1  C9  UNL     1      10.034  72.316   3.229  1.00  0.00     0.058 C
HETATM    2  C10 UNL     1       8.650  72.728   3.704  1.00  0.00     0.021 C
HETATM    3  C11 UNL     1       8.044  73.833   2.954  1.00  0.00     0.008 C
HETATM    4  C12 UNL     1       8.747  75.183   3.005  1.00  0.00     0.016 C
HETATM    5  C13 UNL     1       8.836  75.722   4.376  1.00  0.00     0.007 C
HETATM    6  C14 UNL     1      10.169  76.233   4.840  1.00  0.00     0.007 C
HETATM    7  C15 UNL     1      11.034  76.700   3.664  1.00  0.00     0.009 C
HETATM    8  C36 UNL     1      11.272  75.502   2.862  1.00  0.00     0.013 C
HETATM    9  C37 UNL     1      12.179  75.748   1.620  1.00  0.00     0.021 C
HETATM   10  C38 UNL     1      11.739  74.211   3.329  1.00  0.00     0.130 C
HETATM   11  C39 UNL     1      11.019  73.165   4.054  1.00  0.00     0.053 C
HETATM   12  C40 UNL     1       9.933  75.246   2.113  1.00  0.00     0.147 C
HETATM   13  O5  UNL     1      10.045  74.038   1.379  1.00  0.00    -0.314 OA
HETATM   14  C41 UNL     1      10.084  72.721   1.804  1.00  0.00     0.269 C
HETATM   15  O6  UNL     1      10.167  71.899   0.879  1.00  0.00    -0.264 OA
ENDROOT
BRANCH   7  16
HETATM   16  C16 UNL     1      11.997  77.758   4.046  1.00  0.00    -0.013 C
HETATM   17  C17 UNL     1      11.379  78.335   5.365  1.00  0.00     0.018 C
HETATM   18  C18 UNL     1      13.376  77.438   4.419  1.00  0.00     0.012 C
HETATM   19  C19 UNL     1      14.458  77.871   3.491  1.00  0.00     0.006 C
HETATM   20  C20 UNL     1      14.606  79.312   3.188  1.00  0.00    -0.010 C
HETATM   21  C21 UNL     1      16.090  79.543   3.004  1.00  0.00     0.006 C
HETATM   22  C33 UNL     1      13.927  80.242   4.131  1.00  0.00     0.001 C
HETATM   23  C22 UNL     1      16.353  80.977   2.766  1.00  0.00     0.011 C
HETATM   24  C23 UNL     1      15.917  81.824   3.900  1.00  0.00    -0.032 C
HETATM   25  C24 UNL     1      16.126  83.262   3.364  1.00  0.00     0.016 C
HETATM   26  C25 UNL     1      16.652  81.750   5.180  1.00  0.00     0.006 C
HETATM   27  C31 UNL     1      14.464  81.614   4.264  1.00  0.00    -0.032 C
HETATM   28  C28 UNL     1      15.727  82.199   6.268  1.00  0.00    -0.013 C
HETATM   29  C29 UNL     1      15.911  83.573   6.790  1.00  0.00     0.010 C
HETATM   30  C30 UNL     1      14.340  82.047   5.717  1.00  0.00     0.015 C
HETATM   31  C32 UNL     1      13.674  82.665   3.483  1.00  0.00     0.016 C
HETATM   32  C34 UNL     1      12.487  80.267   3.708  1.00  0.00     0.038 C
HETATM   33  C35 UNL     1      11.885  79.017   3.191  1.00  0.00     0.127 C
BRANCH  26  34
HETATM   34  C26 UNL     1      18.012  82.316   5.269  1.00  0.00     0.105 C
BRANCH  34  35
HETATM   35  C27 UNL     1      19.127  81.551   4.687  1.00  0.00     0.231 C
HETATM   36  N1  UNL     1      19.236  80.143   4.859  1.00  0.00    -0.062 NA
HETATM   37  O2  UNL     1      20.014  82.134   4.021  1.00  0.00    -0.277 OA
ENDBRANCH  34  35
ENDBRANCH  26  34
BRANCH  33  38
HETATM   38  O3  UNL     1      10.489  79.295   3.222  1.00  0.00    -0.395 OA
ATOM     39  H3  UNL     1      10.416  80.064   2.670  1.00  0.00     0.210 HD
ENDBRANCH  33  38
ENDBRANCH   7  16
BRANCH  10  40
HETATM   40  O4  UNL     1      13.087  74.229   3.804  1.00  0.00    -0.395 OA
ATOM     41  H4  UNL     1      13.313  73.474   4.334  1.00  0.00     0.210 HD
ENDBRANCH  10  40
BRANCH   1  42
HETATM   42  C7  UNL     1      10.194  70.854   3.457  1.00  0.00    -0.027 C
HETATM   43  C6  UNL     1      11.414  70.207   2.965  1.00  0.00     0.010 C
HETATM   44  C5  UNL     1      11.157  68.687   2.952  1.00  0.00     0.001 C
HETATM   45  C4  UNL     1      11.031  68.243   4.370  1.00  0.00     0.007 C
HETATM   46  C3  UNL     1      10.883  69.355   5.369  1.00  0.00     0.010 C
HETATM   47  C42 UNL     1       9.997  70.470   4.920  1.00  0.00     0.017 C
HETATM   48  C8  UNL     1       9.015  70.169   2.728  1.00  0.00     0.016 C
BRANCH  46  49
HETATM   49  C2  UNL     1      10.241  68.772   6.629  1.00  0.00     0.171 C
BRANCH  49  50
HETATM   50  O1  UNL     1      10.897  67.630   7.031  1.00  0.00    -0.396 OA
HETATM   51  C1  UNL     1      10.051  66.810   7.746  1.00  0.00     0.201 C
ENDBRANCH  49  50
ENDBRANCH  46  49
ENDBRANCH   1  42
TORSDOF 8
ENDMDL