MODEL 2
REMARK VINA RESULT: -8.238510750      2.612      5.846
REMARK  9 active torsions:
REMARK  status: ('A' for Active; 'I' for Inactive)
REMARK    1  A    between atoms: S1_2  and  C2_3
REMARK    2  A    between atoms: C2_3  and  C3_4
REMARK    3  A    between atoms: C3_4  and  N1_5
REMARK    4  A    between atoms: N1_5  and  C4_7
REMARK    5  A    between atoms: C4_7  and  C5_8
REMARK    6  A    between atoms: C5_8  and  C7_10
REMARK    7  A    between atoms: C5_8  and  C9_14
REMARK    8  A    between atoms: C7_10  and  C8_11
REMARK    9  A    between atoms: C26_32  and  O3_33
ROOT
HETATM    1  C9  UNL     1       9.923  69.830   2.838  1.00  0.00     0.008 C
HETATM    2  C10 UNL     1       8.685  70.459   3.463  1.00  0.00     0.007 C
HETATM    3  C11 UNL     1       8.718  69.829   4.838  1.00  0.00     0.019 C
HETATM    4  C12 UNL     1      10.179  69.856   5.266  1.00  0.00     0.032 C
HETATM    5  C13 UNL     1      10.389  68.655   6.175  1.00  0.00     0.137 C
HETATM    6  O2  UNL     1      11.522  68.764   6.650  1.00  0.00    -0.297 OA
HETATM    7  C14 UNL     1       9.701  67.445   6.657  1.00  0.00     0.085 C
HETATM    8  C15 UNL     1       8.585  67.943   7.519  1.00  0.00     0.005 A
HETATM    9  C16 UNL     1       9.311  69.000   8.388  1.00  0.00    -0.001 A
HETATM   10  C17 UNL     1       8.768  70.313   8.014  1.00  0.00     0.011 C
HETATM   11  C18 UNL     1       9.487  71.261   7.225  1.00  0.00    -0.004 C
HETATM   12  C19 UNL     1      10.161  72.275   8.175  1.00  0.00    -0.001 C
HETATM   13  C20 UNL     1      11.543  71.910   8.554  1.00  0.00     0.006 C
HETATM   14  C21 UNL     1      11.825  72.733   9.806  1.00  0.00     0.007 C
HETATM   15  C22 UNL     1      11.842  74.173   9.433  1.00  0.00     0.005 C
HETATM   16  C23 UNL     1      11.609  74.923  10.725  1.00  0.00    -0.017 C
HETATM   17  C24 UNL     1      10.393  74.551  11.486  1.00  0.00     0.018 C
HETATM   18  C25 UNL     1      12.793  74.525  11.635  1.00  0.00     0.018 C
HETATM   19  C26 UNL     1      11.771  76.416  10.559  1.00  0.00     0.126 C
HETATM   20  C27 UNL     1      11.193  76.935   9.299  1.00  0.00     0.033 C
HETATM   21  C28 UNL     1      10.316  75.912   8.640  1.00  0.00     0.013 C
HETATM   22  C29 UNL     1      11.063  74.617   8.264  1.00  0.00    -0.032 C
HETATM   23  C30 UNL     1      12.060  75.187   7.230  1.00  0.00     0.016 C
HETATM   24  C31 UNL     1      10.078  73.670   7.650  1.00  0.00    -0.032 C
HETATM   25  C32 UNL     1       8.650  74.156   7.990  1.00  0.00     0.016 C
HETATM   26  C33 UNL     1      10.087  73.534   6.164  1.00  0.00     0.011 C
HETATM   27  C34 UNL     1      10.783  72.335   5.595  1.00  0.00     0.007 C
HETATM   28  C35 UNL     1      10.480  70.995   6.149  1.00  0.00     0.007 C
HETATM   29  C36 UNL     1       8.428  67.904   8.939  1.00  0.00    -0.039 A
HETATM   30  C37 UNL     1       9.042  66.795   9.767  1.00  0.00     0.015 C
HETATM   31  C38 UNL     1       7.064  68.320   9.498  1.00  0.00     0.015 C
HETATM   32  C39 UNL     1      10.872  69.591   3.974  1.00  0.00    -0.028 C
HETATM   33  C40 UNL     1      11.135  68.051   3.847  1.00  0.00     0.016 C
HETATM   34  C41 UNL     1      12.264  70.090   3.876  1.00  0.00     0.016 C
ENDROOT
BRANCH   1  35
HETATM   35  C5  UNL     1      10.207  70.467   1.568  1.00  0.00    -0.000 C
HETATM   36  C6  UNL     1       8.736  70.965   1.167  1.00  0.00     0.021 C
BRANCH  35  37
HETATM   37  C4  UNL     1      10.882  71.807   1.548  1.00  0.00     0.065 C
BRANCH  37  38
HETATM   38  N1  UNL     1      10.213  73.001   1.421  1.00  0.00    -0.401 N
ATOM     39  H1  UNL     1       9.605  73.102   0.608  1.00  0.00     0.158 HD
BRANCH  38  40
HETATM   40  C3  UNL     1      10.280  74.084   2.288  1.00  0.00     0.129 C
BRANCH  40  41
HETATM   41  C2  UNL     1      10.728  75.374   1.580  1.00  0.00     0.093 C
BRANCH  41  42
HETATM   42  S1  UNL     1      12.373  75.800   2.197  1.00  0.00    -0.172 SA
HETATM   43  C1  UNL     1      12.866  74.707   3.542  1.00  0.00     0.089 C
ENDBRANCH  41  42
ENDBRANCH  40  41
ENDBRANCH  38  40
ENDBRANCH  37  38
ENDBRANCH  35  37
BRANCH  35  44
HETATM   44  C7  UNL     1      10.549  69.695   0.358  1.00  0.00     0.114 C
BRANCH  44  45
HETATM   45  C8  UNL     1      11.951  69.355   0.080  1.00  0.00     0.232 C
HETATM   46  N2  UNL     1      12.455  69.392  -1.238  1.00  0.00    -0.062 NA
HETATM   47  O1  UNL     1      12.801  69.012   0.970  1.00  0.00    -0.277 OA
ENDBRANCH  44  45
ENDBRANCH  35  44
ENDBRANCH   1  35
BRANCH  19  48
HETATM   48  O3  UNL     1      13.105  76.822  10.633  1.00  0.00    -0.395 OA
ATOM     49  H3  UNL     1      13.470  77.031   9.781  1.00  0.00     0.210 HD
ENDBRANCH  19  48
TORSDOF 9
ENDMDL