MODEL 1
REMARK VINA RESULT: -8.005457579      0.000      0.000
REMARK  8 active torsions:
REMARK  status: ('A' for Active; 'I' for Inactive)
REMARK    1  A    between atoms: C2_2  and  C3_3
REMARK    2  A    between atoms: C3_3  and  N1_4
REMARK       I    between atoms: N1_4  and  C4_6
REMARK    3  A    between atoms: C4_6  and  C5_8
REMARK    4  A    between atoms: C8_11  and  C9_12
REMARK    5  A    between atoms: C25_29  and  O3_30
REMARK    6  A    between atoms: C26_32  and  C27_33
REMARK    7  A    between atoms: C27_33  and  O4_34
REMARK    8  A    between atoms: O4_34  and  S1_35
ROOT
HETATM    1  C5  UNL     1       9.620  72.075   2.247  1.00  0.00     0.048 C
HETATM    2  C6  UNL     1       8.108  71.786   2.369  1.00  0.00     0.020 C
HETATM    3  C7  UNL     1       8.126  70.432   3.048  1.00  0.00     0.011 C
HETATM    4  C8  UNL     1       9.566  70.233   3.584  1.00  0.00     0.021 C
HETATM    5  C12 UNL     1       9.950  71.654   3.687  1.00  0.00     0.041 C
HETATM    6  C13 UNL     1      11.331  72.026   4.041  1.00  0.00     0.136 C
HETATM    7  O2  UNL     1      11.879  71.341   5.118  1.00  0.00    -0.384 OA
HETATM    8  C14 UNL     1      11.657  71.904   6.343  1.00  0.00     0.178 C
HETATM    9  C15 UNL     1      12.449  73.204   6.420  1.00  0.00    -0.007 C
HETATM   10  C16 UNL     1      13.836  72.877   5.910  1.00  0.00     0.019 C
HETATM   11  C17 UNL     1      12.560  73.580   7.838  1.00  0.00    -0.030 C
HETATM   12  C18 UNL     1      13.381  72.565   8.573  1.00  0.00     0.016 C
HETATM   13  C19 UNL     1      13.350  74.855   8.115  1.00  0.00     0.011 C
HETATM   14  C20 UNL     1      13.500  75.016   9.636  1.00  0.00     0.011 C
HETATM   15  C21 UNL     1      12.169  75.275  10.265  1.00  0.00    -0.034 C
HETATM   16  C22 UNL     1      11.770  76.704   9.963  1.00  0.00     0.016 C
HETATM   17  C23 UNL     1      12.248  75.205  11.775  1.00  0.00     0.019 C
HETATM   18  C24 UNL     1      13.111  74.109  12.309  1.00  0.00     0.013 C
HETATM   19  C25 UNL     1      10.908  75.284  12.438  1.00  0.00     0.128 C
HETATM   20  C26 UNL     1       9.813  74.498  11.834  1.00  0.00     0.040 C
HETATM   21  C28 UNL     1       9.781  74.540  10.313  1.00  0.00     0.015 C
HETATM   22  C29 UNL     1      11.168  74.246   9.841  1.00  0.00    -0.001 C
HETATM   23  C30 UNL     1      11.203  73.833   8.413  1.00  0.00    -0.001 C
HETATM   24  C31 UNL     1      10.475  74.830   7.570  1.00  0.00     0.006 C
HETATM   25  C32 UNL     1      10.354  74.447   6.119  1.00  0.00     0.011 C
HETATM   26  C33 UNL     1      11.680  74.108   5.497  1.00  0.00    -0.024 C
HETATM   27  C34 UNL     1      12.351  75.458   5.234  1.00  0.00     0.017 C
HETATM   28  C35 UNL     1      11.500  73.504   4.121  1.00  0.00    -0.009 C
HETATM   29  C36 UNL     1      12.665  73.899   3.205  1.00  0.00     0.018 C
HETATM   30  C37 UNL     1      10.281  74.142   3.456  1.00  0.00     0.014 C
HETATM   31  C38 UNL     1       9.949  73.501   2.133  1.00  0.00     0.020 C
ENDROOT
BRANCH   1  32
HETATM   32  C4  UNL     1      10.114  71.194   1.205  1.00  0.00     0.227 C
HETATM   33  N1  UNL     1      11.406  70.629   1.078  1.00  0.00    -0.357 N
ATOM     34  H1  UNL     1      12.099  70.858   1.790  1.00  0.00     0.162 HD
HETATM   35  O1  UNL     1       9.342  70.829   0.238  1.00  0.00    -0.273 OA
BRANCH  33  36
HETATM   36  C3  UNL     1      11.807  69.749   0.003  1.00  0.00     0.149 C
BRANCH  36  37
HETATM   37  C2  UNL     1      12.397  68.473   0.520  1.00  0.00    -0.018 C
HETATM   38  C1  UNL     1      12.460  68.213   1.793  1.00  0.00     0.008 C
ENDBRANCH  36  37
ENDBRANCH  33  36
ENDBRANCH   1  32
BRANCH   4  39
HETATM   39  C9  UNL     1       9.421  69.499   4.870  1.00  0.00    -0.088 C
HETATM   40  C10 UNL     1       8.696  69.979   5.875  1.00  0.00     0.014 C
HETATM   41  C11 UNL     1      10.114  68.188   5.091  1.00  0.00     0.043 C
ENDBRANCH   4  39
BRANCH  20  42
HETATM   42  C27 UNL     1       9.719  73.069  12.329  1.00  0.00     0.200 C
BRANCH  42  43
HETATM   43  O4  UNL     1       8.792  72.359  11.604  1.00  0.00    -0.257 OA
BRANCH  43  44
HETATM   44  S1  UNL     1       9.378  70.812  11.315  1.00  0.00     0.251 S
HETATM   45  O5  UNL     1       9.692  70.169  12.652  1.00  0.00    -0.572 OA
HETATM   46  O6  UNL     1      10.594  70.840  10.437  1.00  0.00    -0.572 OA
HETATM   47  O7  UNL     1       8.231  69.837  10.570  1.00  0.00    -0.572 OA
ENDBRANCH  43  44
ENDBRANCH  42  43
ENDBRANCH  20  42
BRANCH  19  48
HETATM   48  O3  UNL     1      11.081  74.840  13.763  1.00  0.00    -0.395 OA
ATOM     49  H3  UNL     1      10.578  74.039  13.853  1.00  0.00     0.210 HD
ENDBRANCH  19  48
TORSDOF 8
ENDMDL