MODEL 1
REMARK VINA RESULT: -7.410903708      0.000      0.000
REMARK  11 active torsions:
REMARK  status: ('A' for Active; 'I' for Inactive)
REMARK    1  A    between atoms: C2_2  and  N1_3
REMARK    2  A    between atoms: N1_3  and  C3_4
REMARK    3  A    between atoms: N1_3  and  C5_6
REMARK    4  A    between atoms: C5_6  and  C6_7
REMARK    5  A    between atoms: C6_7  and  O2_9
REMARK    6  A    between atoms: O2_9  and  C7_10
REMARK    7  A    between atoms: C21_24  and  O3_25
REMARK    8  A    between atoms: C22_27  and  O4_28
REMARK    9  A    between atoms: C23_30  and  O5_31
REMARK   10  A    between atoms: C33_41  and  C34_42
REMARK   11  A    between atoms: C34_42  and  O6_43
ROOT
HETATM    1  C7  UNL     1      12.070  71.973   4.372  1.00  0.00     0.140 C
HETATM    2  C8  UNL     1      11.827  72.505   2.983  1.00  0.00     0.034 C
HETATM    3  C9  UNL     1      10.579  73.321   2.960  1.00  0.00     0.013 C
HETATM    4  C10 UNL     1      10.517  74.520   3.868  1.00  0.00    -0.032 C
HETATM    5  C11 UNL     1       9.028  74.533   4.339  1.00  0.00     0.016 C
HETATM    6  C12 UNL     1      11.300  74.294   5.117  1.00  0.00     0.005 C
HETATM    7  C13 UNL     1      12.302  75.428   5.409  1.00  0.00     0.007 C
HETATM    8  C14 UNL     1      11.439  76.656   5.357  1.00  0.00     0.006 C
HETATM    9  C15 UNL     1      11.129  77.008   3.899  1.00  0.00    -0.001 C
HETATM   10  C16 UNL     1      12.358  77.605   3.383  1.00  0.00     0.002 C
HETATM   11  C17 UNL     1      13.178  78.555   4.153  1.00  0.00     0.016 C
HETATM   12  C18 UNL     1      14.404  78.624   3.257  1.00  0.00    -0.029 C
HETATM   13  C19 UNL     1      15.231  77.370   3.568  1.00  0.00     0.016 C
HETATM   14  C20 UNL     1      15.257  79.767   3.634  1.00  0.00     0.031 C
HETATM   15  C21 UNL     1      14.710  80.872   4.459  1.00  0.00     0.154 C
HETATM   16  C22 UNL     1      15.931  81.615   5.080  1.00  0.00     0.176 C
HETATM   17  C23 UNL     1      16.522  82.318   3.850  1.00  0.00     0.160 C
HETATM   18  C25 UNL     1      17.066  81.348   2.867  1.00  0.00    -0.015 C
HETATM   19  C26 UNL     1      18.402  80.847   3.443  1.00  0.00     0.018 C
HETATM   20  C27 UNL     1      17.453  82.128   1.613  1.00  0.00     0.018 C
HETATM   21  C28 UNL     1      16.159  80.217   2.498  1.00  0.00     0.003 C
HETATM   22  C29 UNL     1      15.451  80.364   1.203  1.00  0.00     0.007 C
HETATM   23  C30 UNL     1      14.040  79.875   1.132  1.00  0.00     0.011 C
HETATM   24  C31 UNL     1      13.816  78.571   1.871  1.00  0.00    -0.026 C
HETATM   25  C32 UNL     1      14.568  77.612   0.957  1.00  0.00     0.017 C
HETATM   26  C33 UNL     1      12.375  78.173   1.998  1.00  0.00    -0.007 C
HETATM   27  C35 UNL     1      11.935  76.972   1.196  1.00  0.00     0.013 C
HETATM   28  C36 UNL     1      11.661  75.710   1.935  1.00  0.00     0.011 C
HETATM   29  C37 UNL     1      10.721  75.787   3.109  1.00  0.00    -0.032 C
HETATM   30  C38 UNL     1       9.345  76.057   2.459  1.00  0.00     0.016 C
HETATM   31  C39 UNL     1      11.800  72.956   5.453  1.00  0.00    -0.017 C
HETATM   32  C40 UNL     1      13.112  73.134   6.245  1.00  0.00     0.018 C
HETATM   33  C41 UNL     1      10.913  72.223   6.490  1.00  0.00     0.018 C
ENDROOT
BRANCH   1  34
HETATM   34  O2  UNL     1      11.243  70.818   4.495  1.00  0.00    -0.314 OA
BRANCH  34  35
HETATM   35  C6  UNL     1      11.668  69.526   4.362  1.00  0.00     0.287 C
HETATM   36  O1  UNL     1      12.306  69.029   5.328  1.00  0.00    -0.263 OA
BRANCH  35  37
HETATM   37  C5  UNL     1      11.440  68.667   3.182  1.00  0.00     0.382 C
BRANCH  37  38
HETATM   38  N1  UNL     1      12.441  68.885   2.146  1.00  0.00     0.097 N
BRANCH  38  39
HETATM   39  C2  UNL     1      11.676  69.058   0.900  1.00  0.00     0.268 C
HETATM   40  C1  UNL     1      10.255  69.477   1.164  1.00  0.00     0.037 C
ENDBRANCH  38  39
BRANCH  38  41
HETATM   41  C3  UNL     1      13.188  67.632   1.916  1.00  0.00     0.268 C
HETATM   42  C4  UNL     1      13.625  67.567   0.478  1.00  0.00     0.037 C
ENDBRANCH  38  41
ENDBRANCH  37  38
ENDBRANCH  35  37
ENDBRANCH  34  35
ENDBRANCH   1  34
BRANCH  26  43
HETATM   43  C34 UNL     1      11.369  79.244   1.754  1.00  0.00     0.174 C
BRANCH  43  44
HETATM   44  O6  UNL     1      10.431  79.028   0.783  1.00  0.00    -0.400 OA
ATOM     45  H6  UNL     1       9.892  79.764   0.515  1.00  0.00     0.209 HD
ENDBRANCH  43  44
ENDBRANCH  26  43
BRANCH  15  46
HETATM   46  O3  UNL     1      14.068  81.906   3.855  1.00  0.00    -0.392 OA
ATOM     47  H3  UNL     1      13.742  82.627   4.381  1.00  0.00     0.210 HD
ENDBRANCH  15  46
BRANCH  16  48
HETATM   48  O4  UNL     1      16.829  80.734   5.632  1.00  0.00    -0.390 OA
ATOM     49  H4  UNL     1      17.547  80.550   5.037  1.00  0.00     0.210 HD
ENDBRANCH  16  48
BRANCH  17  50
HETATM   50  O5  UNL     1      17.568  83.126   4.283  1.00  0.00    -0.387 OA
HETATM   51  C24 UNL     1      17.144  84.258   4.948  1.00  0.00     0.202 C
ENDBRANCH  17  50
TORSDOF 11
ENDMDL