MODEL 3
REMARK VINA RESULT: -7.638966110      1.020      1.262
REMARK  10 active torsions:
REMARK  status: ('A' for Active; 'I' for Inactive)
REMARK    1  A    between atoms: N1_6  and  C5_7
REMARK    2  A    between atoms: C5_7  and  C6_8
REMARK    3  A    between atoms: C6_8  and  C7_9
REMARK    4  A    between atoms: C7_9  and  C8_10
REMARK       I    between atoms: C8_10  and  N2_12
REMARK    5  A    between atoms: N2_12  and  C9_14
REMARK    6  A    between atoms: C9_14  and  C10_15
REMARK    7  A    between atoms: C10_15  and  C11_16
REMARK    8  A    between atoms: C12_18  and  C14_20
REMARK       I    between atoms: C14_20  and  N3_22
REMARK    9  A    between atoms: N3_22  and  C15_24
REMARK   10  A    between atoms: C15_24  and  C16_25
ROOT
HETATM    1  C1  UNL     1      15.486 -17.640  19.838  1.00  0.00     0.026 C
HETATM    2  C2  UNL     1      15.114 -16.392  20.609  1.00  0.00     0.043 C
HETATM    3  C3  UNL     1      14.347 -16.863  21.828  1.00  0.00     0.026 C
HETATM    4  C4  UNL     1      16.302 -15.664  21.106  1.00  0.00     0.229 C
HETATM    5  O1  UNL     1      17.090 -16.180  21.966  1.00  0.00    -0.272 OA
HETATM    6  N1  UNL     1      16.367 -14.406  20.488  1.00  0.00    -0.333 N
HETATM    7  C12 UNL     1      15.007 -14.055  20.149  1.00  0.00     0.120 C
HETATM    8  C13 UNL     1      15.062 -13.135  18.945  1.00  0.00     0.050 C
HETATM    9  C17 UNL     1      14.393 -15.387  19.781  1.00  0.00     0.002 C
HETATM   10  C18 UNL     1      14.658 -15.652  18.290  1.00  0.00     0.019 C
HETATM   11  C19 UNL     1      12.925 -15.498  19.971  1.00  0.00     0.019 C
ENDROOT
BRANCH   6  12
HETATM   12  C5  UNL     1      17.578 -13.663  20.252  1.00  0.00     0.128 C
BRANCH  12  13
HETATM   13  C6  UNL     1      18.335 -13.311  21.481  1.00  0.00     0.029 C
BRANCH  13  14
HETATM   14  C7  UNL     1      19.725 -13.862  21.432  1.00  0.00     0.104 C
BRANCH  14  15
HETATM   15  C8  UNL     1      20.232 -14.437  22.698  1.00  0.00     0.217 C
HETATM   16  O2  UNL     1      21.439 -14.348  22.995  1.00  0.00    -0.274 OA
HETATM   17  N2  UNL     1      19.378 -15.107  23.612  1.00  0.00    -0.361 N
ATOM     18  H2  UNL     1      18.391 -15.187  23.371  1.00  0.00     0.162 HD
BRANCH  17  19
HETATM   19  C9  UNL     1      19.812 -15.674  24.845  1.00  0.00     0.125 C
BRANCH  19  20
HETATM   20  C10 UNL     1      19.544 -14.802  26.032  1.00  0.00     0.051 C
BRANCH  20  21
HETATM   21  C11 UNL     1      20.852 -14.200  26.517  1.00  0.00     0.224 C
HETATM   22  F1  UNL     1      20.800 -12.828  26.332  1.00  0.00    -0.255 F
ENDBRANCH  20  21
ENDBRANCH  19  20
ENDBRANCH  17  19
ENDBRANCH  14  15
ENDBRANCH  13  14
ENDBRANCH  12  13
ENDBRANCH   6  12
BRANCH   7  23
HETATM   23  C14 UNL     1      14.307 -13.342  21.228  1.00  0.00     0.247 C
HETATM   24  O3  UNL     1      14.613 -13.473  22.461  1.00  0.00    -0.271 OA
HETATM   25  N3  UNL     1      13.232 -12.446  20.968  1.00  0.00    -0.349 N
ATOM     26  H3  UNL     1      12.944 -12.312  19.998  1.00  0.00     0.163 HD
BRANCH  25  27
HETATM   27  C15 UNL     1      12.536 -11.727  21.977  1.00  0.00     0.235 C
BRANCH  27  28
HETATM   28  C16 UNL     1      13.071 -10.411  22.340  1.00  0.00     0.191 C
HETATM   29  O4  UNL     1      12.895  -9.790  23.408  1.00  0.00    -0.647 OA
HETATM   30  O5  UNL     1      13.871  -9.774  21.377  1.00  0.00    -0.647 OA
ENDBRANCH  27  28
ENDBRANCH  25  27
ENDBRANCH   7  23
TORSDOF 10
ENDMDL