MODEL 5
REMARK VINA RESULT: -7.513500703      1.513      2.303
REMARK  11 active torsions:
REMARK  status: ('A' for Active; 'I' for Inactive)
REMARK    1  A    between atoms: C3_3  and  C4_4
REMARK    2  A    between atoms: C4_4  and  C6_6
REMARK    3  A    between atoms: C6_6  and  C7_7
REMARK    4  A    between atoms: C6_6  and  N1_11
REMARK    5  A    between atoms: C7_7  and  C8_8
REMARK       I    between atoms: N1_11  and  C10_13
REMARK    6  A    between atoms: C10_13  and  C11_15
REMARK    7  A    between atoms: C11_15  and  N2_16
REMARK    8  A    between atoms: N2_16  and  S1_18
REMARK    9  A    between atoms: S1_18  and  N3_21
REMARK   10  A    between atoms: N3_21  and  C12_23
REMARK   11  A    between atoms: C12_23  and  C13_24
ROOT
HETATM    1  C1  UNL     1      21.684 -18.872  26.273  1.00  0.00     0.112 C
HETATM    2  C2  UNL     1      20.697 -18.159  25.449  1.00  0.00    -0.111 C
HETATM    3  C3  UNL     1      19.900 -17.574  24.756  1.00  0.00    -0.101 C
ENDROOT
BRANCH   3   4
HETATM    4  C4  UNL     1      18.947 -16.851  23.898  1.00  0.00     0.083 C
HETATM    5  C5  UNL     1      17.578 -17.009  24.471  1.00  0.00     0.025 C
BRANCH   4   6
HETATM    6  C6  UNL     1      19.413 -15.422  23.821  1.00  0.00     0.101 C
BRANCH   6   7
HETATM    7  C7  UNL     1      19.320 -14.736  25.169  1.00  0.00     0.046 C
BRANCH   7   8
HETATM    8  C8  UNL     1      20.529 -13.858  25.361  1.00  0.00     0.080 C
HETATM    9  C9  UNL     1      21.736 -14.527  24.706  1.00  0.00     0.026 C
HETATM   10 CL1  UNL     1      20.835 -13.588  27.098  1.00  0.00    -0.125 Cl
ENDBRANCH   7   8
ENDBRANCH   6   7
BRANCH   6  11
HETATM   11  N1  UNL     1      18.758 -14.671  22.811  1.00  0.00    -0.354 N
HETATM   12  C10 UNL     1      19.291 -13.990  21.709  1.00  0.00     0.236 C
HETATM   13  O1  UNL     1      20.512 -13.944  21.451  1.00  0.00    -0.272 OA
ATOM     14  H1  UNL     1      17.744 -14.618  22.901  1.00  0.00     0.163 HD
BRANCH  12  15
HETATM   15  C11 UNL     1      18.389 -13.275  20.776  1.00  0.00     0.236 C
BRANCH  15  16
HETATM   16  N2  UNL     1      17.437 -12.443  21.451  1.00  0.00    -0.294 N
ATOM     17  H2  UNL     1      17.590 -11.923  22.315  1.00  0.00     0.174 HD
BRANCH  16  18
HETATM   18  S1  UNL     1      15.966 -12.489  20.512  1.00  0.00     0.315 S
HETATM   19  O2  UNL     1      15.369 -13.844  20.480  1.00  0.00    -0.183 OA
HETATM   20  O3  UNL     1      16.382 -12.138  19.092  1.00  0.00    -0.183 OA
BRANCH  18  21
HETATM   21  N3  UNL     1      14.924 -11.283  21.074  1.00  0.00    -0.299 N
ATOM     22  H3  UNL     1      15.262 -10.402  21.463  1.00  0.00     0.174 HD
BRANCH  21  23
HETATM   23  C12 UNL     1      13.534 -11.589  20.963  1.00  0.00     0.172 C
BRANCH  23  24
HETATM   24  C13 UNL     1      12.744 -11.352  22.160  1.00  0.00    -0.040 A
HETATM   25  C14 UNL     1      12.724 -10.171  22.873  1.00  0.00     0.009 A
HETATM   26  C15 UNL     1      11.949 -10.032  23.993  1.00  0.00     0.001 A
HETATM   27  C16 UNL     1      11.151 -11.052  24.468  1.00  0.00     0.000 A
HETATM   28  C17 UNL     1      11.166 -12.235  23.759  1.00  0.00     0.001 A
HETATM   29  C18 UNL     1      11.943 -12.383  22.630  1.00  0.00     0.009 A
ENDBRANCH  23  24
ENDBRANCH  21  23
ENDBRANCH  18  21
ENDBRANCH  16  18
ENDBRANCH  15  16
ENDBRANCH  12  15
ENDBRANCH   6  11
ENDBRANCH   4   6
ENDBRANCH   3   4
TORSDOF 11
ENDMDL