MODEL 3
REMARK VINA RESULT: -7.216287716      2.313      3.491
REMARK  13 active torsions:
REMARK  status: ('A' for Active; 'I' for Inactive)
REMARK    1  A    between atoms: C1_4  and  C2_5
REMARK    2  A    between atoms: C1_4  and  N2_13
REMARK    3  A    between atoms: C2_5  and  C3_6
REMARK    4  A    between atoms: N2_13  and  C9_15
REMARK    5  A    between atoms: C9_15  and  O1_16
REMARK    6  A    between atoms: C9_15  and  N3_18
REMARK    7  A    between atoms: N3_18  and  C10_21
REMARK    8  A    between atoms: C10_21  and  C11_22
REMARK    9  A    between atoms: C11_22  and  C12_23
REMARK   10  A    between atoms: C12_23  and  S1_24
REMARK   11  A    between atoms: S1_24  and  C13_26
REMARK   12  A    between atoms: C13_26  and  C14_27
REMARK   13  A    between atoms: C14_27  and  N4_28
ROOT
HETATM    1  C9  UNL     1      17.711 -14.954  23.481  1.00  0.00     0.427 C
ENDROOT
BRANCH   1   2
HETATM    2  N2  UNL     1      17.586 -15.027  24.911  1.00  0.00    -0.331 N
ATOM      3  H2  UNL     1      17.337 -14.198  25.451  1.00  0.00     0.165 HD
BRANCH   2   4
HETATM    4  C1  UNL     1      17.812 -16.263  25.559  1.00  0.00     0.078 C
HETATM    5  N1  UNL     1      17.300 -17.389  25.201  1.00  0.00    -0.389 N
ATOM      6  H12 UNL     1      17.463 -18.281  25.668  1.00  0.00     0.157 HD
ATOM      7  H11 UNL     1      16.679 -17.423  24.393  1.00  0.00     0.157 HD
BRANCH   4   8
HETATM    8  C2  UNL     1      18.730 -16.212  26.753  1.00  0.00     0.114 C
BRANCH   8   9
HETATM    9  C3  UNL     1      19.985 -15.559  26.282  1.00  0.00    -0.051 A
HETATM   10  C4  UNL     1      20.307 -14.303  26.728  1.00  0.00     0.010 A
HETATM   11  C5  UNL     1      21.465 -13.699  26.296  1.00  0.00     0.043 A
HETATM   12  C6  UNL     1      22.347 -14.303  25.412  1.00  0.00     0.116 A
HETATM   13  F1  UNL     1      23.480 -13.679  25.007  1.00  0.00    -0.206 F
HETATM   14  C7  UNL     1      21.987 -15.564  24.988  1.00  0.00     0.043 A
HETATM   15  C8  UNL     1      20.836 -16.186  25.407  1.00  0.00     0.010 A
ENDBRANCH   8   9
ENDBRANCH   4   8
ENDBRANCH   2   4
ENDBRANCH   1   2
BRANCH   1  16
HETATM   16  O1  UNL     1      18.847 -14.213  23.189  1.00  0.00    -0.354 OA
ATOM     17  H1  UNL     1      19.478 -14.360  23.883  1.00  0.00     0.214 HD
ENDBRANCH   1  16
BRANCH   1  18
HETATM   18  N3  UNL     1      16.501 -14.426  22.923  1.00  0.00    -0.031 N
ATOM     19  H32 UNL     1      15.845 -15.173  22.695  1.00  0.00     0.282 HD
ATOM     20  H31 UNL     1      15.952 -13.937  23.630  1.00  0.00     0.282 HD
BRANCH  18  21
HETATM   21  C10 UNL     1      16.746 -13.585  21.784  1.00  0.00     0.238 C
BRANCH  21  22
HETATM   22  C11 UNL     1      16.876 -14.374  20.506  1.00  0.00     0.040 C
BRANCH  22  23
HETATM   23  C12 UNL     1      15.554 -14.271  19.754  1.00  0.00     0.110 C
BRANCH  23  24
HETATM   24  S1  UNL     1      15.120 -12.750  19.549  1.00  0.00     0.016 S
HETATM   25  O2  UNL     1      15.911 -12.002  18.715  1.00  0.00    -0.258 OA
BRANCH  24  26
HETATM   26  C13 UNL     1      13.709 -12.174  19.937  1.00  0.00     0.129 C
BRANCH  26  27
HETATM   27  C14 UNL     1      12.947 -12.873  20.990  1.00  0.00     0.140 C
BRANCH  27  28
HETATM   28  N4  UNL     1      12.467 -12.087  22.076  1.00  0.00    -0.366 N
HETATM   29  C15 UNL     1      12.920 -10.842  22.257  1.00  0.00     0.090 A
HETATM   30  C16 UNL     1      12.445 -10.079  23.334  1.00  0.00     0.017 A
HETATM   31  C17 UNL     1      11.514 -10.605  24.208  1.00  0.00     0.003 A
HETATM   32  C18 UNL     1      11.058 -11.873  24.016  1.00  0.00     0.017 A
HETATM   33  C19 UNL     1      11.546 -12.591  22.950  1.00  0.00     0.090 A
ENDBRANCH  27  28
ENDBRANCH  26  27
ENDBRANCH  24  26
ENDBRANCH  23  24
ENDBRANCH  22  23
ENDBRANCH  21  22
ENDBRANCH  18  21
ENDBRANCH   1  18
TORSDOF 13
ENDMDL