MODEL 1
REMARK VINA RESULT: -7.002443858      0.000      0.000
REMARK  10 active torsions:
REMARK  status: ('A' for Active; 'I' for Inactive)
REMARK    1  A    between atoms: C2_2  and  C3_3
REMARK    2  A    between atoms: C3_3  and  N1_4
REMARK    3  A    between atoms: N1_4  and  C4_5
REMARK    4  A    between atoms: N1_4  and  C6_8
REMARK    5  A    between atoms: C4_5  and  C5_6
REMARK    6  A    between atoms: C6_8  and  C7_9
REMARK    7  A    between atoms: C7_9  and  N2_10
REMARK       I    between atoms: N2_10  and  C8_12
REMARK    8  A    between atoms: C8_12  and  C9_14
REMARK    9  A    between atoms: C9_14  and  N3_15
REMARK       I    between atoms: N3_15  and  C10_17
REMARK   10  A    between atoms: C10_17  and  C11_19
ROOT
HETATM    1  N2  UNL     1      16.272 -13.069  21.314  1.00  0.00    -0.358 N
ATOM      2  H2  UNL     1      16.085 -13.516  22.212  1.00  0.00     0.162 HD
HETATM    3  C8  UNL     1      17.444 -13.387  20.589  1.00  0.00     0.235 C
HETATM    4  O1  UNL     1      17.646 -12.828  19.485  1.00  0.00    -0.272 OA
ENDROOT
BRANCH   3   5
HETATM    5  C9  UNL     1      18.369 -14.372  21.186  1.00  0.00     0.225 C
BRANCH   5   6
HETATM    6  N3  UNL     1      18.467 -14.330  22.610  1.00  0.00    -0.352 N
HETATM    7  C10 UNL     1      19.693 -14.285  23.321  1.00  0.00     0.223 C
HETATM    8  O2  UNL     1      20.757 -14.281  22.672  1.00  0.00    -0.273 OA
ATOM      9  H3  UNL     1      17.601 -14.332  23.149  1.00  0.00     0.162 HD
BRANCH   7  10
HETATM   10  C11 UNL     1      19.743 -14.244  24.794  1.00  0.00     0.095 A
HETATM   11  C12 UNL     1      19.944 -15.545  25.543  1.00  0.00    -0.027 A
HETATM   12  C13 UNL     1      20.129 -16.760  24.682  1.00  0.00     0.016 C
HETATM   13  C14 UNL     1      19.105 -15.808  26.775  1.00  0.00     0.016 C
HETATM   14  C15 UNL     1      20.960 -14.442  25.579  1.00  0.00    -0.027 A
HETATM   15  C16 UNL     1      22.311 -14.717  25.016  1.00  0.00     0.016 C
HETATM   16  C17 UNL     1      20.972 -13.663  26.907  1.00  0.00     0.016 C
ENDBRANCH   7  10
ENDBRANCH   5   6
ENDBRANCH   3   5
BRANCH   1  17
HETATM   17  C7  UNL     1      15.343 -12.104  20.770  1.00  0.00     0.152 C
BRANCH  17  18
HETATM   18  C6  UNL     1      14.132 -12.734  20.169  1.00  0.00     0.292 C
BRANCH  18  19
HETATM   19  N1  UNL     1      12.907 -12.476  20.944  1.00  0.00     0.090 N
BRANCH  19  20
HETATM   20  C3  UNL     1      12.376 -13.735  21.442  1.00  0.00     0.272 C
BRANCH  20  21
HETATM   21  C2  UNL     1      12.482 -14.819  20.411  1.00  0.00     0.026 C
HETATM   22  C1  UNL     1      12.534 -16.184  21.105  1.00  0.00     0.007 C
ENDBRANCH  20  21
ENDBRANCH  19  20
BRANCH  19  23
HETATM   23  C4  UNL     1      13.168 -11.544  21.998  1.00  0.00     0.283 C
BRANCH  23  24
HETATM   24  C5  UNL     1      12.019 -10.594  22.257  1.00  0.00     0.115 C
HETATM   25 BR1  UNL     1      11.310 -11.025  24.020  1.00  0.00    -0.095 Br
ENDBRANCH  23  24
ENDBRANCH  19  23
ENDBRANCH  18  19
ENDBRANCH  17  18
ENDBRANCH   1  17
TORSDOF 10
ENDMDL