MODEL 2
REMARK VINA RESULT: -6.292007385      2.495      3.407
REMARK  10 active torsions:
REMARK  status: ('A' for Active; 'I' for Inactive)
REMARK    1  A    between atoms: C2_2  and  N1_3
REMARK    2  A    between atoms: C2_2  and  C8_14
REMARK    3  A    between atoms: N1_3  and  C3_5
REMARK    4  A    between atoms: C3_5  and  C4_6
REMARK    5  A    between atoms: C4_6  and  C5_7
REMARK    6  A    between atoms: C5_7  and  N2_8
REMARK       I    between atoms: N2_8  and  C6_10
REMARK    7  A    between atoms: C6_10  and  C7_12
REMARK       I    between atoms: C8_14  and  N3_16
REMARK    8  A    between atoms: N3_16  and  C9_18
REMARK    9  A    between atoms: C9_18  and  C10_19
REMARK   10  A    between atoms: C11_20  and  C12_21
ROOT
HETATM    1  C1  UNL     1      16.108 -14.373  20.298  1.00  0.00     0.042 C
HETATM    2  C2  UNL     1      16.612 -12.988  20.528  1.00  0.00     0.169 C
ENDROOT
BRANCH   2   3
HETATM    3  N1  UNL     1      15.894 -12.138  21.356  1.00  0.00    -0.390 N
ATOM      4  H1  UNL     1      16.374 -11.749  22.167  1.00  0.00     0.159 HD
BRANCH   3   5
HETATM    5  C3  UNL     1      14.567 -11.783  21.157  1.00  0.00     0.058 C
BRANCH   5   6
HETATM    6  C4  UNL     1      13.563 -12.439  22.036  1.00  0.00     0.064 C
BRANCH   6   7
HETATM    7  C5  UNL     1      12.228 -11.717  22.029  1.00  0.00     0.128 C
BRANCH   7   8
HETATM    8  N2  UNL     1      12.301 -10.436  22.676  1.00  0.00    -0.355 N
HETATM    9  C6  UNL     1      11.819 -10.320  24.003  1.00  0.00     0.279 C
HETATM   10  O1  UNL     1      11.338 -11.314  24.610  1.00  0.00    -0.265 OA
ATOM     11  H2  UNL     1      12.691  -9.628  22.191  1.00  0.00     0.162 HD
BRANCH   9  12
HETATM   12  C7  UNL     1      11.868  -9.044  24.698  1.00  0.00     0.332 C
HETATM   13  O2  UNL     1      12.905  -8.353  24.659  1.00  0.00    -0.297 OA
ENDBRANCH   9  12
ENDBRANCH   7   8
ENDBRANCH   6   7
ENDBRANCH   5   6
ENDBRANCH   3   5
ENDBRANCH   2   3
BRANCH   2  14
HETATM   14  C8  UNL     1      17.998 -13.137  21.142  1.00  0.00     0.239 C
HETATM   15  O3  UNL     1      18.987 -12.540  20.660  1.00  0.00    -0.271 OA
HETATM   16  N3  UNL     1      18.181 -13.961  22.273  1.00  0.00    -0.359 N
ATOM     17  H3  UNL     1      17.380 -14.455  22.668  1.00  0.00     0.162 HD
BRANCH  16  18
HETATM   18  C9  UNL     1      19.475 -14.116  22.877  1.00  0.00     0.128 C
BRANCH  18  19
HETATM   19  C10 UNL     1      19.359 -14.487  24.353  1.00  0.00     0.020 A
HETATM   20  C11 UNL     1      19.888 -15.803  24.735  1.00  0.00     0.023 A
HETATM   21  C14 UNL     1      20.579 -14.510  25.176  1.00  0.00    -0.035 A
HETATM   22  C15 UNL     1      20.461 -14.085  26.617  1.00  0.00     0.016 C
HETATM   23  C16 UNL     1      21.943 -14.326  24.591  1.00  0.00     0.016 C
BRANCH  20  24
HETATM   24  C12 UNL     1      19.405 -16.603  25.867  1.00  0.00    -0.014 C
HETATM   25  C13 UNL     1      18.997 -17.850  25.811  1.00  0.00     0.052 C
HETATM   26 BR1  UNL     1      18.402 -18.726  27.408  1.00  0.00    -0.064 Br
ENDBRANCH  20  24
ENDBRANCH  18  19
ENDBRANCH  16  18
ENDBRANCH   2  14
TORSDOF 10
ENDMDL