MODEL 2
REMARK VINA RESULT: -6.932121218      1.740      2.456
REMARK  14 active torsions:
REMARK  status: ('A' for Active; 'I' for Inactive)
REMARK    1  A    between atoms: C2_2  and  N1_3
REMARK    2  A    between atoms: N1_3  and  C3_4
REMARK    3  A    between atoms: N1_3  and  C5_6
REMARK    4  A    between atoms: C5_6  and  O1_7
REMARK    5  A    between atoms: C5_6  and  C6_9
REMARK    6  A    between atoms: C6_9  and  N2_10
REMARK    7  A    between atoms: C6_9  and  C16_26
REMARK       I    between atoms: N2_10  and  C7_12
REMARK       I    between atoms: C7_12  and  N3_14
REMARK    8  A    between atoms: N3_14  and  C8_16
REMARK    9  A    between atoms: C8_16  and  C9_17
REMARK   10  A    between atoms: C8_16  and  C10_19
REMARK   11  A    between atoms: C10_19  and  C11_20
REMARK   12  A    between atoms: C11_20  and  C12_21
REMARK   13  A    between atoms: C13_22  and  C14_23
REMARK   14  A    between atoms: C14_23  and  C15_24
REMARK       I    between atoms: C16_26  and  N4_28
ROOT
HETATM    1  N2  UNL     1      16.581 -14.412  21.972  1.00  0.00    -0.323 N
ATOM      2  H2  UNL     1      15.825 -14.939  21.536  1.00  0.00     0.165 HD
HETATM    3  C7  UNL     1      17.387 -15.049  22.923  1.00  0.00     0.317 C
HETATM    4  O2  UNL     1      18.305 -14.375  23.450  1.00  0.00    -0.247 OA
HETATM    5  N3  UNL     1      17.222 -16.397  23.314  1.00  0.00    -0.332 N
ATOM      6  H3  UNL     1      16.475 -16.928  22.866  1.00  0.00     0.165 HD
ENDROOT
BRANCH   1   7
HETATM    7  C6  UNL     1      16.792 -12.983  21.574  1.00  0.00     0.253 C
BRANCH   7   8
HETATM    8  C5  UNL     1      15.504 -12.425  21.171  1.00  0.00     0.146 C
BRANCH   8   9
HETATM    9  N1  UNL     1      14.230 -13.006  21.114  1.00  0.00    -0.364 N
BRANCH   9  10
HETATM   10  C2  UNL     1      13.260 -13.201  22.133  1.00  0.00     0.120 C
HETATM   11  C1  UNL     1      12.436 -11.919  22.249  1.00  0.00     0.026 C
ENDBRANCH   9  10
BRANCH   9  12
HETATM   12  C3  UNL     1      13.817 -13.513  19.773  1.00  0.00     0.120 C
HETATM   13  C4  UNL     1      13.078 -14.801  19.905  1.00  0.00     0.026 C
ENDBRANCH   9  12
ENDBRANCH   8   9
BRANCH   8  14
HETATM   14  O1  UNL     1      15.581 -11.173  20.800  1.00  0.00    -0.347 OA
ATOM     15  H1  UNL     1      14.924 -10.881  20.180  1.00  0.00     0.219 HD
ENDBRANCH   8  14
ENDBRANCH   7   8
BRANCH   7  16
HETATM   16  C16 UNL     1      17.857 -12.979  20.546  1.00  0.00     0.248 C
HETATM   17  O4  UNL     1      17.477 -12.924  19.351  1.00  0.00    -0.271 OA
HETATM   18  N4  UNL     1      19.227 -13.039  20.807  1.00  0.00    -0.363 N
HETATM   19  C17 UNL     1      20.173 -13.038  19.715  1.00  0.00     0.149 C
ATOM     20  H4  UNL     1      19.561 -13.083  21.770  1.00  0.00     0.162 HD
ENDBRANCH   7  16
ENDBRANCH   1   7
BRANCH   5  21
HETATM   21  C8  UNL     1      18.020 -17.079  24.292  1.00  0.00     0.148 C
BRANCH  21  22
HETATM   22  C9  UNL     1      17.998 -18.552  23.917  1.00  0.00     0.256 C
HETATM   23  O3  UNL     1      17.561 -18.908  22.862  1.00  0.00    -0.305 OA
ENDBRANCH  21  22
BRANCH  21  24
HETATM   24  C10 UNL     1      17.450 -17.016  25.669  1.00  0.00     0.044 C
BRANCH  24  25
HETATM   25  C11 UNL     1      18.424 -16.915  26.779  1.00  0.00     0.096 C
BRANCH  25  26
HETATM   26  C12 UNL     1      19.277 -15.741  26.626  1.00  0.00    -0.106 C
HETATM   27  C13 UNL     1      20.002 -14.763  26.537  1.00  0.00    -0.105 C
BRANCH  27  28
HETATM   28  C14 UNL     1      20.883 -13.601  26.476  1.00  0.00     0.109 C
BRANCH  28  29
HETATM   29  C15 UNL     1      22.065 -13.924  25.636  1.00  0.00     0.126 C
HETATM   30 CL1  UNL     1      21.620 -14.560  24.055  1.00  0.00    -0.130 Cl
ENDBRANCH  28  29
ENDBRANCH  27  28
ENDBRANCH  25  26
ENDBRANCH  24  25
ENDBRANCH  21  24
ENDBRANCH   5  21
TORSDOF 14
ENDMDL