MODEL 4
REMARK VINA RESULT: -6.610759816      3.101      8.102
REMARK  11 active torsions:
REMARK  status: ('A' for Active; 'I' for Inactive)
REMARK    1  A    between atoms: C2_2  and  C3_3
REMARK    2  A    between atoms: C8_10  and  N2_11
REMARK    3  A    between atoms: N2_11  and  C9_13
REMARK    4  A    between atoms: C9_13  and  C10_14
REMARK    5  A    between atoms: C10_14  and  N3_15
REMARK    6  A    between atoms: N3_15  and  C11_17
REMARK    7  A    between atoms: C11_17  and  C12_18
REMARK    8  A    between atoms: C12_18  and  N4_19
REMARK       I    between atoms: N4_19  and  C13_21
REMARK    9  A    between atoms: C13_21  and  C14_23
REMARK   10  A    between atoms: C14_23  and  N5_24
REMARK   11  A    between atoms: N5_24  and  C17_27
ROOT
HETATM    1  C9  UNL     1      16.427 -12.437  19.707  1.00  0.00     0.139 C
ENDROOT
BRANCH   1   2
HETATM    2  N2  UNL     1      15.061 -12.444  19.706  1.00  0.00    -0.387 N
ATOM      3  H2  UNL     1      14.739 -11.852  18.940  1.00  0.00     0.159 HD
BRANCH   2   4
HETATM    4  C8  UNL     1      14.061 -12.903  20.294  1.00  0.00     0.055 A
HETATM    5  C6  UNL     1      13.375 -12.219  21.261  1.00  0.00    -0.012 A
HETATM    6  C4  UNL     1      12.271 -12.833  21.874  1.00  0.00     0.013 A
HETATM    7  C7  UNL     1      13.739 -10.857  21.697  1.00  0.00     0.052 C
HETATM    8  N1  UNL     1      11.859 -14.067  21.551  1.00  0.00    -0.362 N
HETATM    9  C5  UNL     1      11.553 -12.064  22.923  1.00  0.00     0.068 C
HETATM   10  C3  UNL     1      12.507 -14.770  20.607  1.00  0.00     0.029 A
ATOM     11  H1  UNL     1      11.051 -14.474  22.023  1.00  0.00     0.165 HD
HETATM   12  C19 UNL     1      13.585 -14.205  19.989  1.00  0.00     0.060 A
HETATM   13 BR1  UNL     1      14.488 -15.217  18.676  1.00  0.00    -0.047 Br
BRANCH  10  14
HETATM   14  C2  UNL     1      12.030 -16.155  20.266  1.00  0.00     0.054 C
HETATM   15  C1  UNL     1      12.509 -17.147  21.302  1.00  0.00     0.011 C
ENDBRANCH  10  14
ENDBRANCH   2   4
ENDBRANCH   1   2
BRANCH   1  16
HETATM   16  C10 UNL     1      16.973 -12.980  21.039  1.00  0.00     0.133 C
BRANCH  16  17
HETATM   17  N3  UNL     1      17.714 -14.178  20.878  1.00  0.00    -0.418 N
ATOM     18  H3  UNL     1      18.577 -14.221  20.336  1.00  0.00     0.153 HD
BRANCH  17  19
HETATM   19  C11 UNL     1      17.149 -15.346  21.547  1.00  0.00     0.133 C
BRANCH  19  20
HETATM   20  C12 UNL     1      18.284 -16.112  22.137  1.00  0.00     0.141 C
BRANCH  20  21
HETATM   21  N4  UNL     1      18.801 -15.604  23.374  1.00  0.00    -0.358 N
HETATM   22  C13 UNL     1      19.965 -14.799  23.365  1.00  0.00     0.243 C
HETATM   23  O1  UNL     1      20.497 -14.562  22.230  1.00  0.00    -0.272 OA
ATOM     24  H4  UNL     1      18.333 -15.821  24.254  1.00  0.00     0.162 HD
BRANCH  22  25
HETATM   25  C14 UNL     1      20.569 -14.242  24.576  1.00  0.00     0.338 C
BRANCH  25  26
HETATM   26  N5  UNL     1      21.740 -14.925  25.059  1.00  0.00    -0.067 N
HETATM   27  C15 UNL     1      22.967 -14.421  24.517  1.00  0.00     0.272 C
HETATM   28  C16 UNL     1      21.616 -16.331  24.684  1.00  0.00     0.272 C
BRANCH  26  29
HETATM   29  C17 UNL     1      21.762 -14.836  26.512  1.00  0.00     0.232 C
HETATM   30  C18 UNL     1      20.960 -13.705  27.060  1.00  0.00     0.035 C
ENDBRANCH  26  29
ENDBRANCH  25  26
ENDBRANCH  22  25
ENDBRANCH  20  21
ENDBRANCH  19  20
ENDBRANCH  17  19
ENDBRANCH  16  17
ENDBRANCH   1  16
TORSDOF 11
ENDMDL