MODEL 4
REMARK VINA RESULT: -8.265884913      1.109      1.430
REMARK  10 active torsions:
REMARK  status: ('A' for Active; 'I' for Inactive)
REMARK    1  A    between atoms: S1_2  and  N1_4
REMARK    2  A    between atoms: S1_2  and  N2_14
REMARK    3  A    between atoms: N1_4  and  C1_6
REMARK    4  A    between atoms: C1_6  and  C2_7
REMARK    5  A    between atoms: C2_7  and  C3_8
REMARK    6  A    between atoms: N2_14  and  S2_16
REMARK    7  A    between atoms: S2_16  and  N3_19
REMARK    8  A    between atoms: N3_19  and  C9_21
REMARK    9  A    between atoms: C9_21  and  C10_22
REMARK   10  A    between atoms: C10_22  and  C11_23
ROOT
HETATM    1  N2  UNL     1      15.676 -14.225  20.054  1.00  0.00    -0.177 N
ATOM      2  H2  UNL     1      15.132 -14.720  19.346  1.00  0.00     0.195 HD
ENDROOT
BRANCH   1   3
HETATM    3  S1  UNL     1      16.261 -12.604  19.924  1.00  0.00     0.329 S
HETATM    4  O1  UNL     1      16.104 -12.088  18.516  1.00  0.00    -0.182 OA
HETATM    5  O2  UNL     1      17.693 -12.547  20.355  1.00  0.00    -0.182 OA
BRANCH   3   6
HETATM    6  N1  UNL     1      15.320 -11.645  21.008  1.00  0.00    -0.302 N
ATOM      7  H1  UNL     1      15.670 -11.090  21.789  1.00  0.00     0.173 HD
BRANCH   6   8
HETATM    8  C1  UNL     1      13.936 -11.781  20.594  1.00  0.00     0.138 C
BRANCH   8   9
HETATM    9  C2  UNL     1      13.102 -10.595  21.016  1.00  0.00     0.059 C
BRANCH   9  10
HETATM   10  C3  UNL     1      12.405 -10.877  22.291  1.00  0.00    -0.057 A
HETATM   11  C4  UNL     1      11.806 -12.089  22.547  1.00  0.00     0.007 A
HETATM   12  C5  UNL     1      11.154 -12.331  23.759  1.00  0.00     0.001 A
HETATM   13  C6  UNL     1      11.110 -11.339  24.716  1.00  0.00     0.000 A
HETATM   14  C7  UNL     1      11.703 -10.111  24.490  1.00  0.00     0.001 A
HETATM   15  C8  UNL     1      12.331  -9.917  23.286  1.00  0.00     0.007 A
ENDBRANCH   9  10
ENDBRANCH   8   9
ENDBRANCH   6   8
ENDBRANCH   3   6
ENDBRANCH   1   3
BRANCH   1  16
HETATM   16  S2  UNL     1      16.162 -14.866  21.575  1.00  0.00     0.329 S
HETATM   17  O3  UNL     1      15.400 -16.167  21.786  1.00  0.00    -0.182 OA
HETATM   18  O4  UNL     1      15.715 -13.949  22.696  1.00  0.00    -0.182 OA
BRANCH  16  19
HETATM   19  N3  UNL     1      17.865 -15.133  21.654  1.00  0.00    -0.302 N
ATOM     20  H3  UNL     1      18.450 -15.500  20.902  1.00  0.00     0.173 HD
BRANCH  19  21
HETATM   21  C9  UNL     1      18.320 -14.748  22.968  1.00  0.00     0.138 C
BRANCH  21  22
HETATM   22  C10 UNL     1      19.266 -15.768  23.565  1.00  0.00     0.062 C
BRANCH  22  23
HETATM   23  C11 UNL     1      19.982 -15.142  24.704  1.00  0.00    -0.018 A
HETATM   24  C12 UNL     1      21.229 -14.541  24.524  1.00  0.00     0.010 A
HETATM   25  C13 UNL     1      21.900 -13.957  25.575  1.00  0.00     0.001 A
HETATM   26  C14 UNL     1      21.366 -13.944  26.843  1.00  0.00     0.003 A
HETATM   27  C15 UNL     1      20.127 -14.535  27.050  1.00  0.00     0.043 A
HETATM   28  C16 UNL     1      19.466 -15.118  25.977  1.00  0.00     0.122 A
HETATM   29  F1  UNL     1      18.255 -15.695  26.183  1.00  0.00    -0.206 F
ENDBRANCH  22  23
ENDBRANCH  21  22
ENDBRANCH  19  21
ENDBRANCH  16  19
ENDBRANCH   1  16
TORSDOF 10
ENDMDL