MODEL 4
REMARK VINA RESULT: -6.007725385      1.401      1.811
REMARK  14 active torsions:
REMARK  status: ('A' for Active; 'I' for Inactive)
REMARK    1  A    between atoms: C2_2  and  N1_3
REMARK    2  A    between atoms: N1_3  and  C3_4
REMARK    3  A    between atoms: N1_3  and  C5_6
REMARK    4  A    between atoms: C5_6  and  C6_7
REMARK    5  A    between atoms: C6_7  and  C7_8
REMARK    6  A    between atoms: C7_8  and  C8_9
REMARK    7  A    between atoms: C8_9  and  N2_10
REMARK    8  A    between atoms: N2_10  and  C9_12
REMARK    9  A    between atoms: C9_12  and  N3_14
REMARK   10  A    between atoms: N3_14  and  C10_16
REMARK   11  A    between atoms: C10_16  and  C11_17
REMARK   12  A    between atoms: C11_17  and  N4_18
REMARK       I    between atoms: N4_18  and  C12_20
REMARK   13  A    between atoms: C12_20  and  C13_22
REMARK   14  A    between atoms: C14_23  and  C15_24
ROOT
HETATM    1  C9  UNL     1      16.139 -14.894  21.841  1.00  0.00     0.167 C
HETATM    2  S1  UNL     1      14.809 -15.821  21.647  1.00  0.00    -0.041 SA
ENDROOT
BRANCH   1   3
HETATM    3  N2  UNL     1      16.683 -14.740  23.150  1.00  0.00    -0.367 N
ATOM      4  H2  UNL     1      16.196 -14.155  23.829  1.00  0.00     0.161 HD
BRANCH   3   5
HETATM    5  C8  UNL     1      17.912 -15.399  23.532  1.00  0.00     0.122 C
BRANCH   5   6
HETATM    6  C7  UNL     1      18.986 -14.366  23.633  1.00  0.00     0.025 C
BRANCH   6   7
HETATM    7  C6  UNL     1      20.335 -14.794  23.129  1.00  0.00     0.046 C
BRANCH   7   8
HETATM    8  C5  UNL     1      20.944 -15.729  24.141  1.00  0.00     0.063 C
BRANCH   8   9
HETATM    9  N1  UNL     1      21.795 -15.096  25.070  1.00  0.00    -0.375 N
BRANCH   9  10
HETATM   10  C2  UNL     1      21.440 -15.076  26.431  1.00  0.00     0.122 C
HETATM   11  C1  UNL     1      20.911 -13.673  26.768  1.00  0.00     0.027 C
ENDBRANCH   9  10
BRANCH   9  12
HETATM   12  C3  UNL     1      23.162 -15.241  24.781  1.00  0.00     0.058 C
HETATM   13  C4  UNL     1      23.890 -13.975  24.397  1.00  0.00     0.055 C
ENDBRANCH   9  12
ENDBRANCH   8   9
ENDBRANCH   7   8
ENDBRANCH   6   7
ENDBRANCH   5   6
ENDBRANCH   3   5
ENDBRANCH   1   3
BRANCH   1  14
HETATM   14  N3  UNL     1      16.771 -14.239  20.766  1.00  0.00    -0.366 N
ATOM     15  H3  UNL     1      17.069 -14.771  19.948  1.00  0.00     0.161 HD
BRANCH  14  16
HETATM   16  C10 UNL     1      16.994 -12.818  20.821  1.00  0.00     0.141 C
BRANCH  16  17
HETATM   17  C11 UNL     1      15.765 -12.127  20.229  1.00  0.00     0.143 C
BRANCH  17  18
HETATM   18  N4  UNL     1      14.947 -11.556  21.266  1.00  0.00    -0.349 N
HETATM   19  C12 UNL     1      13.598 -11.952  21.376  1.00  0.00     0.296 C
HETATM   20  O1  UNL     1      13.102 -12.796  20.576  1.00  0.00    -0.258 OA
ATOM     21  H4  UNL     1      15.338 -10.872  21.914  1.00  0.00     0.163 HD
BRANCH  19  22
HETATM   22  C13 UNL     1      12.791 -11.381  22.415  1.00  0.00    -0.005 C
HETATM   23  C14 UNL     1      12.128 -10.904  23.303  1.00  0.00    -0.086 C
BRANCH  23  24
HETATM   24  C15 UNL     1      11.346 -10.316  24.396  1.00  0.00     0.179 C
HETATM   25 BR1  UNL     1      11.992  -8.540  24.838  1.00  0.00    -0.083 Br
ENDBRANCH  23  24
ENDBRANCH  19  22
ENDBRANCH  17  18
ENDBRANCH  16  17
ENDBRANCH  14  16
ENDBRANCH   1  14
TORSDOF 14
ENDMDL