MODEL 5
REMARK VINA RESULT: -5.163110467      3.101      6.067
REMARK  5 active torsions:
REMARK  status: ('A' for Active; 'I' for Inactive)
REMARK    1  A    between atoms: N1_2  and  C2_5
REMARK    2  A    between atoms: C2_5  and  C3_6
REMARK    3  A    between atoms: C3_6  and  N2_7
REMARK    4  A    between atoms: N2_7  and  C4_9
REMARK    5  A    between atoms: C4_9  and  C5_10
ROOT
HETATM    1  N2  UNL     1      81.735  43.981 -10.568  1.00  0.00    -0.394 N
ATOM      2  H2  UNL     1      80.842  43.552 -10.808  1.00  0.00     0.159 HD
ENDROOT
BRANCH   1   3
HETATM    3  C3  UNL     1      82.358  43.782  -9.301  1.00  0.00     0.146 C
BRANCH   3   4
HETATM    4  C2  UNL     1      82.125  45.093  -8.485  1.00  0.00     0.251 C
BRANCH   4   5
HETATM    5  N1  UNL     1      83.531  45.462  -8.218  1.00  0.00    -0.077 N
HETATM    6  C1  UNL     1      84.419  44.338  -8.283  1.00  0.00     0.267 C
ATOM      7  H12 UNL     1      83.619  45.948  -7.326  1.00  0.00     0.276 HD
ATOM      8  H11 UNL     1      83.839  46.208  -8.843  1.00  0.00     0.276 HD
ENDBRANCH   4   5
ENDBRANCH   3   4
ENDBRANCH   1   3
BRANCH   1   9
HETATM    9  C4  UNL     1      82.434  44.805 -11.462  1.00  0.00     0.132 C
BRANCH   9  10
HETATM   10  C5  UNL     1      82.140  44.486 -12.878  1.00  0.00     0.122 A
HETATM   11  N3  UNL     1      80.921  44.333 -13.440  1.00  0.00    -0.350 N
HETATM   12  C6  UNL     1      81.061  44.022 -14.739  1.00  0.00     0.107 A
ATOM     13  H3  UNL     1      80.031  44.438 -12.952  1.00  0.00     0.166 HD
HETATM   14  C7  UNL     1      82.417  43.990 -14.953  1.00  0.00     0.109 A
HETATM   15  N4  UNL     1      83.049  44.272 -13.822  1.00  0.00    -0.345 N
HETATM   16  C8  UNL     1      84.530  44.288 -13.717  1.00  0.00     0.157 C
ENDBRANCH   9  10
ENDBRANCH   1   9
TORSDOF 5
ENDMDL