MODEL 3
REMARK VINA RESULT: -5.310947843      2.946      4.134
REMARK  6 active torsions:
REMARK  status: ('A' for Active; 'I' for Inactive)
REMARK    1  A    between atoms: C1_4  and  C2_5
REMARK    2  A    between atoms: C2_5  and  C3_6
REMARK    3  A    between atoms: C4_10  and  N3_11
REMARK    4  A    between atoms: C5_15  and  C6_16
REMARK    5  A    between atoms: C6_16  and  N4_17
REMARK    6  A    between atoms: N4_17  and  C7_18
ROOT
HETATM    1  C3  UNL     1      82.874  45.239 -10.619  1.00  0.00     0.206 C
HETATM    2  N2  UNL     1      82.041  45.745 -11.676  1.00  0.00    -0.040 N
ATOM      3  H21 UNL     1      81.972  46.750 -11.841  1.00  0.00     0.280 HD
ATOM      4  H22 UNL     1      81.025  45.694 -11.600  1.00  0.00     0.280 HD
HETATM    5  C4  UNL     1      82.738  44.909 -12.601  1.00  0.00     0.392 C
HETATM    6  C5  UNL     1      83.894  44.850 -11.642  1.00  0.00     0.127 C
ENDROOT
BRANCH   1   7
HETATM    7  C2  UNL     1      82.212  44.163  -9.829  1.00  0.00     0.077 C
BRANCH   7   8
HETATM    8  C1  UNL     1      82.127  44.638  -8.396  1.00  0.00     0.054 C
HETATM    9  N1  UNL     1      81.748  45.823  -8.173  1.00  0.00    -0.411 N
ATOM     10  H12 UNL     1      81.508  46.433  -8.954  1.00  0.00     0.155 HD
ATOM     11  H11 UNL     1      81.692  46.143  -7.206  1.00  0.00     0.155 HD
ENDBRANCH   7   8
ENDBRANCH   1   7
BRANCH   6  12
HETATM   12  C6  UNL     1      84.895  45.944 -11.974  1.00  0.00     0.169 C
BRANCH  12  13
HETATM   13  N4  UNL     1      86.237  45.635 -11.730  1.00  0.00    -0.395 NA
BRANCH  13  14
HETATM   14  C7  UNL     1      87.510  45.344 -11.498  1.00  0.00     0.440 C
HETATM   15  O1  UNL     1      88.458  45.182 -12.305  1.00  0.00    -0.268 OA
ENDBRANCH  13  14
ENDBRANCH  12  13
ENDBRANCH   6  12
BRANCH   5  16
HETATM   16  N3  UNL     1      82.110  43.667 -12.950  1.00  0.00    -0.049 N
ATOM     17  H33 UNL     1      82.587  42.898 -12.478  1.00  0.00     0.276 HD
ATOM     18  H32 UNL     1      81.190  43.614 -12.513  1.00  0.00     0.276 HD
ATOM     19  H31 UNL     1      82.027  43.457 -13.944  1.00  0.00     0.276 HD
ENDBRANCH   5  16
TORSDOF 6
ENDMDL