MODEL 4
REMARK VINA RESULT: -5.883124062      1.943      5.878
REMARK  3 active torsions:
REMARK  status: ('A' for Active; 'I' for Inactive)
REMARK       I    between atoms: N1_2  and  C2_5
REMARK       I    between atoms: C2_5  and  N2_6
REMARK       I    between atoms: C2_5  and  N3_10
REMARK    1  A    between atoms: N3_10  and  C3_13
REMARK    2  A    between atoms: C3_13  and  C4_14
REMARK    3  A    between atoms: C4_14  and  C5_15
ROOT
HETATM    1  C1  UNL     1      80.938  43.274 -10.481  1.00  0.00     0.271 C
HETATM    2  N1  UNL     1      81.998  43.267  -9.522  1.00  0.00    -0.026 N
ATOM      3  H11 UNL     1      82.820  42.787  -9.889  1.00  0.00     0.281 HD
ATOM      4  H12 UNL     1      81.781  42.649  -8.741  1.00  0.00     0.281 HD
HETATM    5  C2  UNL     1      82.340  44.601  -9.052  1.00  0.00     0.577 C
HETATM    6  N2  UNL     1      81.152  45.154  -8.441  1.00  0.00    -0.026 N
ATOM      7  H21 UNL     1      81.392  46.089  -8.111  1.00  0.00     0.278 HD
ATOM      8  H22 UNL     1      80.766  44.559  -7.708  1.00  0.00     0.278 HD
ATOM      9  H23 UNL     1      80.342  45.143  -9.060  1.00  0.00     0.278 HD
HETATM   10  N3  UNL     1      83.419  44.439  -8.068  1.00  0.00    -0.021 N
ATOM     11  H31 UNL     1      83.133  43.935  -7.229  1.00  0.00     0.281 HD
ATOM     12  H32 UNL     1      83.682  45.309  -7.606  1.00  0.00     0.281 HD
ENDROOT
BRANCH  10  13
HETATM   13  C3  UNL     1      84.512  43.807  -8.779  1.00  0.00     0.243 C
BRANCH  13  14
HETATM   14  C4  UNL     1      85.777  44.639  -8.714  1.00  0.00     0.086 C
BRANCH  14  15
HETATM   15  C5  UNL     1      86.547  44.174  -7.534  1.00  0.00     0.027 A
HETATM   16  C6  UNL     1      86.658  44.716  -6.272  1.00  0.00     0.114 A
HETATM   17  N4  UNL     1      87.487  43.919  -5.536  1.00  0.00    -0.360 N
HETATM   18  C7  UNL     1      87.882  42.912  -6.314  1.00  0.00     0.180 A
ATOM     19  H4  UNL     1      87.756  44.069  -4.563  1.00  0.00     0.166 HD
HETATM   20  N5  UNL     1      87.316  43.069  -7.511  1.00  0.00    -0.355 N
ATOM     21  H5  UNL     1      87.448  42.438  -8.301  1.00  0.00     0.166 HD
ENDBRANCH  14  15
ENDBRANCH  13  14
ENDBRANCH  10  13
TORSDOF 3
ENDMDL