MODEL 2
REMARK VINA RESULT: -5.611911493      3.552      6.018
REMARK  6 active torsions:
REMARK  status: ('A' for Active; 'I' for Inactive)
REMARK    1  A    between atoms: N1_1  and  C1_5
REMARK    2  A    between atoms: C1_5  and  C2_6
REMARK    3  A    between atoms: C2_6  and  N2_7
REMARK    4  A    between atoms: N2_7  and  C3_10
REMARK    5  A    between atoms: C5_12  and  N3_13
REMARK    6  A    between atoms: N3_13  and  C6_15
ROOT
HETATM    1  C3  UNL     1      85.547  44.292  -7.671  1.00  0.00     0.384 C
HETATM    2  C4  UNL     1      86.737  44.519  -8.608  1.00  0.00     0.089 C
HETATM    3  C5  UNL     1      87.799  43.846  -7.749  1.00  0.00     0.113 C
HETATM    4  C7  UNL     1      87.417  44.368  -6.379  1.00  0.00     0.259 C
HETATM    5  N4  UNL     1      86.095  44.936  -6.482  1.00  0.00    -0.044 N
ATOM      6  H41 UNL     1      85.524  44.835  -5.644  1.00  0.00     0.279 HD
ATOM      7  H42 UNL     1      86.072  45.955  -6.504  1.00  0.00     0.279 HD
ENDROOT
BRANCH   1   8
HETATM    8  N2  UNL     1      84.393  45.059  -8.060  1.00  0.00    -0.044 N
ATOM      9  H22 UNL     1      84.619  45.883  -8.618  1.00  0.00     0.279 HD
ATOM     10  H21 UNL     1      83.952  45.555  -7.285  1.00  0.00     0.279 HD
BRANCH   8  11
HETATM   11  C2  UNL     1      83.506  44.122  -8.734  1.00  0.00     0.262 C
BRANCH  11  12
HETATM   12  C1  UNL     1      82.059  44.416  -8.498  1.00  0.00     0.257 C
BRANCH  12  13
HETATM   13  N1  UNL     1      81.874  45.824  -8.234  1.00  0.00    -0.078 N
ATOM     14  H13 UNL     1      82.702  46.369  -8.473  1.00  0.00     0.274 HD
ATOM     15  H12 UNL     1      81.219  46.252  -8.887  1.00  0.00     0.274 HD
ATOM     16  H11 UNL     1      81.592  45.965  -7.264  1.00  0.00     0.274 HD
ENDBRANCH  12  13
ENDBRANCH  11  12
ENDBRANCH   8  11
ENDBRANCH   1   8
BRANCH   3  17
HETATM   17  N3  UNL     1      89.121  44.271  -8.053  1.00  0.00    -0.362 N
ATOM     18  H3  UNL     1      89.929  43.807  -7.639  1.00  0.00     0.162 HD
BRANCH  17  19
HETATM   19  C6  UNL     1      89.286  45.357  -8.946  1.00  0.00     0.348 C
HETATM   20  O1  UNL     1      89.572  46.524  -8.527  1.00  0.00    -0.284 OA
ENDBRANCH  17  19
ENDBRANCH   3  17
TORSDOF 6
ENDMDL