MODEL 4
REMARK VINA RESULT: -5.577842984      1.988      2.534
REMARK  5 active torsions:
REMARK  status: ('A' for Active; 'I' for Inactive)
REMARK    1  A    between atoms: N3_4  and  O1_6
REMARK    2  A    between atoms: O1_6  and  C2_7
REMARK    3  A    between atoms: C2_7  and  C3_8
REMARK    4  A    between atoms: C3_8  and  N4_9
REMARK    5  A    between atoms: N4_9  and  C4_11
ROOT
HETATM    1  C3  UNL     1      82.953  45.507  -8.802  1.00  0.00     0.143 C
ENDROOT
BRANCH   1   2
HETATM    2  C2  UNL     1      81.748  44.665  -8.442  1.00  0.00     0.220 C
BRANCH   2   3
HETATM    3  O1  UNL     1      81.584  43.631  -9.414  1.00  0.00    -0.277 OA
BRANCH   3   4
HETATM    4  N3  UNL     1      81.757  43.897 -10.734  1.00  0.00    -0.241 N
HETATM    5  C1  UNL     1      81.084  43.396 -11.690  1.00  0.00     0.221 C
HETATM    6  N1  UNL     1      80.029  42.461 -11.504  1.00  0.00    -0.065 NA
HETATM    7  N2  UNL     1      81.394  43.780 -13.016  1.00  0.00    -0.065 NA
ATOM      8  H3  UNL     1      82.493  44.558 -10.981  1.00  0.00     0.196 HD
ENDBRANCH   3   4
ENDBRANCH   2   3
ENDBRANCH   1   2
BRANCH   1   9
HETATM    9  N4  UNL     1      84.090  45.118  -8.040  1.00  0.00    -0.412 N
ATOM     10  H4  UNL     1      84.104  45.226  -7.026  1.00  0.00     0.153 HD
BRANCH   9  11
HETATM   11  C4  UNL     1      85.184  44.586  -8.721  1.00  0.00     0.127 C
HETATM   12  C5  UNL     1      85.173  43.110  -9.066  1.00  0.00     0.258 C
HETATM   13  N5  UNL     1      86.092  43.489 -10.156  1.00  0.00    -0.071 N
HETATM   14  C6  UNL     1      85.287  44.725 -10.209  1.00  0.00     0.258 C
ATOM     15  H52 UNL     1      87.105  43.499 -10.040  1.00  0.00     0.277 HD
ATOM     16  H51 UNL     1      86.245  42.899 -10.974  1.00  0.00     0.277 HD
ENDBRANCH   9  11
ENDBRANCH   1   9
TORSDOF 5
ENDMDL