MODEL 2
REMARK VINA RESULT: -8.827299045      3.105      9.568
REMARK  12 active torsions:
REMARK  status: ('A' for Active; 'I' for Inactive)
REMARK    1  A    between atoms: C2_2  and  C3_3
REMARK    2  A    between atoms: N2_12  and  C9_13
REMARK    3  A    between atoms: C9_13  and  C10_14
REMARK    4  A    between atoms: C10_14  and  C11_15
REMARK    5  A    between atoms: C11_15  and  C12_16
REMARK       I    between atoms: C12_16  and  N3_18
REMARK    6  A    between atoms: C15_21  and  O2_22
REMARK    7  A    between atoms: C15_21  and  C16_24
REMARK    8  A    between atoms: C16_24  and  N4_25
REMARK    9  A    between atoms: N4_25  and  C17_27
REMARK   10  A    between atoms: C17_27  and  C18_28
REMARK   11  A    between atoms: C18_28  and  C19_29
REMARK   12  A    between atoms: C19_29  and  N5_30
ROOT
HETATM    1  C12 UNL     1       8.575  -1.684  15.120  1.00  0.00     0.219 C
HETATM    2  O1  UNL     1       7.927  -1.597  16.222  1.00  0.00    -0.273 OA
HETATM    3  N3  UNL     1       8.238  -0.863  14.013  1.00  0.00    -0.352 N
HETATM    4  C13 UNL     1       7.135   0.066  14.143  1.00  0.00     0.129 C
HETATM    5  C14 UNL     1       7.450   1.260  13.269  1.00  0.00     0.059 C
HETATM    6  C15 UNL     1       7.421   0.866  11.799  1.00  0.00     0.076 C
HETATM    7  C24 UNL     1       8.020  -0.510  11.600  1.00  0.00     0.059 C
HETATM    8  C25 UNL     1       8.930  -0.886  12.749  1.00  0.00     0.129 C
ENDROOT
BRANCH   1   9
HETATM    9  C11 UNL     1       9.663  -2.661  15.058  1.00  0.00     0.104 C
BRANCH   9  10
HETATM   10  C10 UNL     1       9.447  -3.963  15.690  1.00  0.00     0.029 C
BRANCH  10  11
HETATM   11  C9  UNL     1       8.421  -4.912  15.226  1.00  0.00     0.135 C
BRANCH  11  12
HETATM   12  N2  UNL     1       7.100  -4.784  15.759  1.00  0.00    -0.290 N
HETATM   13  C8  UNL     1       6.723  -5.183  16.949  1.00  0.00     0.181 A
HETATM   14  N1  UNL     1       5.423  -5.070  17.352  1.00  0.00    -0.332 N
HETATM   15  S1  UNL     1       7.759  -5.779  18.095  1.00  0.00    -0.040 SA
HETATM   16  C7  UNL     1       4.492  -4.548  16.552  1.00  0.00     0.051 A
ATOM     17  H1  UNL     1       5.158  -5.392  18.284  1.00  0.00     0.168 HD
HETATM   18  C6  UNL     1       3.166  -4.449  16.979  1.00  0.00     0.030 A
HETATM   19  C27 UNL     1       4.832  -4.099  15.269  1.00  0.00     0.069 A
HETATM   20  C5  UNL     1       2.245  -3.912  16.124  1.00  0.00     0.003 A
HETATM   21  C4  UNL     1       2.570  -3.474  14.874  1.00  0.00     0.012 A
HETATM   22  C3  UNL     1       3.890  -3.565  14.428  1.00  0.00    -0.019 A
HETATM   23  C26 UNL     1       6.150  -4.242  14.921  1.00  0.00     0.263 A
HETATM   24  O3  UNL     1       6.516  -3.863  13.779  1.00  0.00    -0.267 OA
BRANCH  22  25
HETATM   25  C2  UNL     1       4.149  -3.093  13.105  1.00  0.00     0.002 C
HETATM   26  C1  UNL     1       3.953  -1.797  12.759  1.00  0.00     0.012 C
ENDBRANCH  22  25
ENDBRANCH  11  12
ENDBRANCH  10  11
ENDBRANCH   9  10
ENDBRANCH   1   9
BRANCH   6  27
HETATM   27  O2  UNL     1       8.237   1.773  11.146  1.00  0.00    -0.388 OA
ATOM     28  H2  UNL     1       8.848   1.254  10.636  1.00  0.00     0.210 HD
ENDBRANCH   6  27
BRANCH   6  29
HETATM   29  C16 UNL     1       6.021   0.971  11.334  1.00  0.00     0.151 C
BRANCH  29  30
HETATM   30  N4  UNL     1       5.761   1.575  10.078  1.00  0.00    -0.418 N
ATOM     31  H4  UNL     1       6.024   1.110   9.210  1.00  0.00     0.153 HD
BRANCH  30  32
HETATM   32  C17 UNL     1       5.126   2.843  10.061  1.00  0.00     0.115 C
BRANCH  32  33
HETATM   33  C18 UNL     1       4.193   3.112  11.223  1.00  0.00     0.049 C
BRANCH  33  34
HETATM   34  C19 UNL     1       2.749   3.184  10.850  1.00  0.00     0.274 C
BRANCH  34  35
HETATM   35  N5  UNL     1       1.969   2.227  11.558  1.00  0.00     0.088 N
HETATM   36  C20 UNL     1       0.549   2.545  11.545  1.00  0.00     0.272 C
HETATM   37  C21 UNL     1      -0.028   1.857  10.348  1.00  0.00     0.032 C
HETATM   38  C22 UNL     1       0.848   0.671  10.136  1.00  0.00     0.032 C
HETATM   39  C23 UNL     1       2.076   0.914  10.945  1.00  0.00     0.272 C
ENDBRANCH  34  35
ENDBRANCH  33  34
ENDBRANCH  32  33
ENDBRANCH  30  32
ENDBRANCH  29  30
ENDBRANCH   6  29
TORSDOF 12
ENDMDL