MODEL 3
REMARK VINA RESULT: -7.320220945      1.787      2.738
REMARK  16 active torsions:
REMARK  status: ('A' for Active; 'I' for Inactive)
REMARK    1  A    between atoms: C2_2  and  C3_3
REMARK    2  A    between atoms: C3_3  and  O1_4
REMARK    3  A    between atoms: O1_4  and  C4_5
REMARK    4  A    between atoms: C4_5  and  C5_7
REMARK    5  A    between atoms: C5_7  and  C6_8
REMARK    6  A    between atoms: C5_7  and  N2_14
REMARK       I    between atoms: C6_8  and  N1_10
REMARK    7  A    between atoms: N1_10  and  C7_12
REMARK    8  A    between atoms: N2_14  and  C9_15
REMARK       I    between atoms: N2_14  and  C21_32
REMARK    9  A    between atoms: C9_15  and  C10_16
REMARK   10  A    between atoms: C10_16  and  C11_17
REMARK       I    between atoms: C11_17  and  N3_19
REMARK   11  A    between atoms: N3_19  and  C12_21
REMARK   12  A    between atoms: C12_21  and  C13_22
REMARK   13  A    between atoms: C12_21  and  C18_29
REMARK   14  A    between atoms: C13_22  and  O6_24
REMARK   15  A    between atoms: O6_24  and  C14_25
REMARK       I    between atoms: C21_32  and  N4_34
REMARK   16  A    between atoms: N4_34  and  C22_36
ROOT
HETATM    1  N2  UNL     1       4.926   1.918  10.521  1.00  0.00    -0.311 N
HETATM    2  C21 UNL     1       3.577   2.330  10.366  1.00  0.00     0.320 C
HETATM    3  O7  UNL     1       3.341   3.278   9.582  1.00  0.00    -0.247 OA
HETATM    4  N4  UNL     1       2.479   1.739  11.038  1.00  0.00    -0.335 N
ATOM      5  H4  UNL     1       2.659   0.967  11.680  1.00  0.00     0.165 HD
ENDROOT
BRANCH   1   6
HETATM    6  C5  UNL     1       6.026   2.533   9.838  1.00  0.00     0.281 C
BRANCH   6   7
HETATM    7  C4  UNL     1       6.944   3.103  10.875  1.00  0.00     0.291 C
HETATM    8  O2  UNL     1       6.664   4.172  11.486  1.00  0.00    -0.262 OA
BRANCH   7   9
HETATM    9  O1  UNL     1       8.147   2.511  11.238  1.00  0.00    -0.316 OA
BRANCH   9  10
HETATM   10  C3  UNL     1       8.361   1.955  12.517  1.00  0.00     0.205 C
BRANCH  10  11
HETATM   11  C2  UNL     1       8.675   0.523  12.515  1.00  0.00    -0.011 C
HETATM   12  C1  UNL     1       9.659   0.044  11.773  1.00  0.00     0.009 C
ENDBRANCH  10  11
ENDBRANCH   9  10
ENDBRANCH   7   9
ENDBRANCH   6   7
BRANCH   6  13
HETATM   13  C6  UNL     1       6.692   1.662   8.870  1.00  0.00     0.250 C
HETATM   14  O3  UNL     1       7.490   0.722   9.172  1.00  0.00    -0.271 OA
HETATM   15  N1  UNL     1       6.446   1.856   7.478  1.00  0.00    -0.359 N
ATOM     16  H1  UNL     1       5.809   2.598   7.187  1.00  0.00     0.162 HD
BRANCH  15  17
HETATM   17  C7  UNL     1       7.074   1.031   6.464  1.00  0.00     0.118 C
HETATM   18  C8  UNL     1       6.536   1.356   5.101  1.00  0.00     0.026 C
ENDBRANCH  15  17
ENDBRANCH   6  13
ENDBRANCH   1   6
BRANCH   1  19
HETATM   19  C9  UNL     1       5.179   0.808  11.418  1.00  0.00     0.138 C
BRANCH  19  20
HETATM   20  C10 UNL     1       4.798   1.136  12.854  1.00  0.00     0.122 C
BRANCH  20  21
HETATM   21  C11 UNL     1       4.891  -0.051  13.720  1.00  0.00     0.219 C
HETATM   22  O4  UNL     1       5.691  -0.052  14.679  1.00  0.00    -0.274 OA
HETATM   23  N3  UNL     1       4.085  -1.181  13.473  1.00  0.00    -0.347 N
ATOM     24  H3  UNL     1       3.436  -1.164  12.686  1.00  0.00     0.163 HD
BRANCH  23  25
HETATM   25  C12 UNL     1       4.149  -2.378  14.311  1.00  0.00     0.187 C
BRANCH  25  26
HETATM   26  C13 UNL     1       4.951  -3.443  13.618  1.00  0.00     0.282 C
HETATM   27  O5  UNL     1       4.997  -3.545  12.367  1.00  0.00    -0.263 OA
BRANCH  26  28
HETATM   28  O6  UNL     1       5.681  -4.366  14.346  1.00  0.00    -0.310 OA
BRANCH  28  29
HETATM   29  C14 UNL     1       6.932  -4.017  14.893  1.00  0.00     0.060 C
HETATM   30  C15 UNL     1       6.818  -3.604  16.345  1.00  0.00     0.045 C
HETATM   31  C16 UNL     1       7.781  -5.278  14.856  1.00  0.00     0.045 C
HETATM   32  C17 UNL     1       7.660  -2.939  14.165  1.00  0.00     0.045 C
ENDBRANCH  28  29
ENDBRANCH  26  28
ENDBRANCH  25  26
BRANCH  25  33
HETATM   33  C18 UNL     1       2.789  -2.855  14.706  1.00  0.00     0.010 C
HETATM   34  C19 UNL     1       2.765  -3.545  16.039  1.00  0.00     0.012 C
HETATM   35  C20 UNL     1       1.789  -1.727  14.695  1.00  0.00     0.012 C
ENDBRANCH  25  33
ENDBRANCH  23  25
ENDBRANCH  20  21
ENDBRANCH  19  20
ENDBRANCH   1  19
BRANCH   4  36
HETATM   36  C22 UNL     1       1.115   2.181  10.854  1.00  0.00     0.023 C
HETATM   37  C23 UNL     1       0.996   3.686  10.929  1.00  0.00     0.037 C
HETATM   38  C24 UNL     1       0.606   1.668   9.544  1.00  0.00     0.037 C
HETATM   39  C25 UNL     1       0.229   1.621  11.961  1.00  0.00     0.037 C
ENDBRANCH   4  36
TORSDOF 16
ENDMDL