MODEL 3
REMARK VINA RESULT: -8.093598116      3.102      6.944
REMARK  14 active torsions:
REMARK  status: ('A' for Active; 'I' for Inactive)
REMARK    1  A    between atoms: C2_2  and  C3_3
REMARK    2  A    between atoms: C3_3  and  C5_5
REMARK    3  A    between atoms: C5_5  and  N1_6
REMARK    4  A    between atoms: C5_5  and  C6_10
REMARK       I    between atoms: C6_10  and  N2_12
REMARK    5  A    between atoms: N2_12  and  C7_14
REMARK    6  A    between atoms: C8_19  and  C9_20
REMARK    7  A    between atoms: C9_20  and  C10_21
REMARK    8  A    between atoms: C10_21  and  C11_22
REMARK    9  A    between atoms: C11_22  and  C12_23
REMARK   10  A    between atoms: C12_23  and  C13_24
REMARK       I    between atoms: N7_30  and  C15_32
REMARK   11  A    between atoms: C15_32  and  C16_34
REMARK   12  A    between atoms: C16_34  and  C17_35
REMARK   13  A    between atoms: C17_35  and  C18_36
REMARK   14  A    between atoms: C18_36  and  C19_38
ROOT
HETATM    1  C10 UNL     1       2.414  -3.662  17.437  1.00  0.00     0.007 C
ENDROOT
BRANCH   1   2
HETATM    2  C9  UNL     1       2.472  -3.796  15.945  1.00  0.00     0.066 C
BRANCH   2   3
HETATM    3  C8  UNL     1       3.188  -2.627  15.369  1.00  0.00     0.069 A
HETATM    4  N4  UNL     1       2.748  -1.567  14.716  1.00  0.00    -0.296 N
HETATM    5  N3  UNL     1       3.537  -0.670  14.302  1.00  0.00    -0.279 N
ATOM      6  H4  UNL     1       1.748  -1.470  14.541  1.00  0.00     0.187 HD
HETATM    7  C7  UNL     1       4.846  -0.812  14.537  1.00  0.00     0.167 A
ATOM      8  H3  UNL     1       3.183   0.143  13.799  1.00  0.00     0.189 HD
HETATM    9  S2  UNL     1       4.890  -2.293  15.382  1.00  0.00    -0.038 SA
BRANCH   7  10
HETATM   10  N2  UNL     1       5.819   0.000  14.191  1.00  0.00    -0.304 N
HETATM   11  C6  UNL     1       6.374  -0.171  12.867  1.00  0.00     0.254 C
HETATM   12  O1  UNL     1       5.843  -1.002  12.086  1.00  0.00    -0.271 OA
ATOM     13  H2  UNL     1       6.166   0.718  14.826  1.00  0.00     0.171 HD
BRANCH  11  14
HETATM   14  C5  UNL     1       7.536   0.593  12.412  1.00  0.00     0.278 C
BRANCH  14  15
HETATM   15  C3  UNL     1       8.851  -0.093  12.459  1.00  0.00     0.021 C
HETATM   16  C4  UNL     1       8.912  -1.257  13.420  1.00  0.00     0.012 C
BRANCH  15  17
HETATM   17  C2  UNL     1       9.364  -0.422  11.099  1.00  0.00     0.002 C
HETATM   18  C1  UNL     1       8.530   0.228  10.002  1.00  0.00     0.005 C
ENDBRANCH  15  17
ENDBRANCH  14  15
BRANCH  14  19
HETATM   19  N1  UNL     1       7.557   1.856  13.150  1.00  0.00    -0.066 N
ATOM     20  H13 UNL     1       7.723   1.702  14.145  1.00  0.00     0.275 HD
ATOM     21  H12 UNL     1       8.392   2.400  12.932  1.00  0.00     0.275 HD
ATOM     22  H11 UNL     1       6.708   2.399  12.995  1.00  0.00     0.275 HD
ENDBRANCH  14  19
ENDBRANCH  11  14
ENDBRANCH   7  10
ENDBRANCH   2   3
ENDBRANCH   1   2
BRANCH   1  23
HETATM   23  C11 UNL     1       3.278  -4.709  18.076  1.00  0.00     0.007 C
BRANCH  23  24
HETATM   24  C12 UNL     1       3.399  -5.984  17.270  1.00  0.00     0.066 C
BRANCH  24  25
HETATM   25  C13 UNL     1       4.753  -6.560  17.550  1.00  0.00     0.069 A
HETATM   26  N5  UNL     1       5.627  -7.120  16.732  1.00  0.00    -0.296 N
HETATM   27  N6  UNL     1       6.737  -7.556  17.162  1.00  0.00    -0.279 N
ATOM     28  H5  UNL     1       5.405  -7.202  15.739  1.00  0.00     0.187 HD
HETATM   29  C14 UNL     1       7.010  -7.442  18.467  1.00  0.00     0.167 A
ATOM     30  H6  UNL     1       7.408  -7.987  16.526  1.00  0.00     0.189 HD
HETATM   31  N7  UNL     1       8.087  -7.826  19.113  1.00  0.00    -0.306 N
HETATM   32  S1  UNL     1       5.599  -6.676  19.053  1.00  0.00    -0.038 SA
HETATM   33  C15 UNL     1       9.126  -8.446  18.400  1.00  0.00     0.224 C
ATOM     34  H7  UNL     1       8.167  -7.677  20.120  1.00  0.00     0.171 HD
HETATM   35  O2  UNL     1       8.906  -9.553  17.818  1.00  0.00    -0.273 OA
BRANCH  33  36
HETATM   36  C16 UNL     1      10.438  -7.762  18.367  1.00  0.00     0.110 C
BRANCH  36  37
HETATM   37  C17 UNL     1      10.510  -6.864  17.178  1.00  0.00     0.088 C
BRANCH  37  38
HETATM   38  C18 UNL     1       9.890  -5.557  17.499  1.00  0.00     0.135 C
HETATM   39  O3  UNL     1       9.908  -5.153  18.641  1.00  0.00    -0.297 OA
BRANCH  38  40
HETATM   40  C19 UNL     1       9.261  -4.788  16.385  1.00  0.00     0.009 C
HETATM   41  C20 UNL     1       7.945  -4.247  16.890  1.00  0.00     0.022 C
HETATM   42  C21 UNL     1      10.220  -3.684  16.003  1.00  0.00     0.022 C
HETATM   43  C22 UNL     1       8.975  -5.711  15.223  1.00  0.00     0.022 C
ENDBRANCH  38  40
ENDBRANCH  37  38
ENDBRANCH  36  37
ENDBRANCH  33  36
ENDBRANCH  24  25
ENDBRANCH  23  24
ENDBRANCH   1  23
TORSDOF 14
ENDMDL