MODEL 2
REMARK VINA RESULT: -8.405964011      3.926     10.464
REMARK  11 active torsions:
REMARK  status: ('A' for Active; 'I' for Inactive)
REMARK    1  A    between atoms: N1_6  and  C5_8
REMARK    2  A    between atoms: C5_8  and  C6_9
REMARK    3  A    between atoms: C6_9  and  C7_10
REMARK    4  A    between atoms: C7_10  and  C8_11
REMARK    5  A    between atoms: C8_11  and  C9_12
REMARK    6  A    between atoms: C9_12  and  C10_13
REMARK    7  A    between atoms: C17_28  and  O2_29
REMARK    8  A    between atoms: O2_29  and  C18_30
REMARK    9  A    between atoms: C18_30  and  C19_31
REMARK   10  A    between atoms: C19_31  and  C20_32
REMARK   11  A    between atoms: C20_32  and  C21_33
REMARK       I    between atoms: C21_33  and  N5_35
ROOT
HETATM    1  C1  UNL     1       4.498  -6.410  20.671  1.00  0.00     0.030 C
HETATM    2  C2  UNL     1       4.856  -6.635  19.196  1.00  0.00     0.035 C
HETATM    3  C3  UNL     1       6.183  -5.890  18.993  1.00  0.00     0.030 C
HETATM    4  S1  UNL     1       3.621  -5.837  18.202  1.00  0.00    -0.082 SA
HETATM    5  C4  UNL     1       3.808  -6.381  16.491  1.00  0.00     0.143 C
HETATM    6  N1  UNL     1       3.752  -5.513  15.563  1.00  0.00    -0.371 N
ATOM      7  H1  UNL     1       3.862  -5.849  14.606  1.00  0.00     0.161 HD
HETATM    8  N4  UNL     1       4.018  -7.741  16.124  1.00  0.00    -0.308 N
ATOM      9  H4  UNL     1       4.252  -7.896  15.143  1.00  0.00     0.171 HD
HETATM   10  C15 UNL     1       3.947  -8.932  16.937  1.00  0.00     0.226 C
HETATM   11  O1  UNL     1       3.875 -10.042  16.363  1.00  0.00    -0.273 OA
HETATM   12  C16 UNL     1       3.959  -8.872  18.434  1.00  0.00     0.136 C
HETATM   13  C17 UNL     1       5.122  -8.077  18.948  1.00  0.00     0.148 C
ENDROOT
BRANCH   6  14
HETATM   14  C5  UNL     1       3.548  -4.112  15.738  1.00  0.00     0.121 C
BRANCH  14  15
HETATM   15  C6  UNL     1       2.124  -3.696  15.382  1.00  0.00     0.020 C
BRANCH  15  16
HETATM   16  C7  UNL     1       2.113  -2.310  14.796  1.00  0.00     0.002 C
BRANCH  16  17
HETATM   17  C8  UNL     1       3.408  -1.925  14.133  1.00  0.00     0.002 C
BRANCH  17  18
HETATM   18  C9  UNL     1       3.209  -0.649  13.379  1.00  0.00     0.024 C
BRANCH  18  19
HETATM   19  C10 UNL     1       4.082   0.476  13.961  1.00  0.00     0.078 C
HETATM   20  C11 UNL     1       5.151  -0.130  14.769  1.00  0.00     0.052 C
HETATM   21  C12 UNL     1       6.542   0.018  14.238  1.00  0.00     0.234 C
HETATM   22  N2  UNL     1       6.871   1.323  13.772  1.00  0.00    -0.074 N
HETATM   23  C13 UNL     1       6.797   1.317  12.323  1.00  0.00     0.251 C
ATOM     24  H22 UNL     1       6.291   2.049  14.193  1.00  0.00     0.277 HD
ATOM     25  H21 UNL     1       7.773   1.649  14.119  1.00  0.00     0.277 HD
HETATM   26  C14 UNL     1       5.422   0.745  11.975  1.00  0.00     0.141 C
HETATM   27  N3  UNL     1       4.484   1.307  12.881  1.00  0.00    -0.415 N
ATOM     28  H3  UNL     1       4.121   2.253  12.763  1.00  0.00     0.153 HD
ENDBRANCH  18  19
ENDBRANCH  17  18
ENDBRANCH  16  17
ENDBRANCH  15  16
ENDBRANCH  14  15
ENDBRANCH   6  14
BRANCH  13  29
HETATM   29  O2  UNL     1       6.171  -8.264  18.059  1.00  0.00    -0.384 OA
BRANCH  29  30
HETATM   30  C18 UNL     1       6.995  -9.337  18.350  1.00  0.00     0.168 C
BRANCH  30  31
HETATM   31  C19 UNL     1       8.253  -8.976  19.084  1.00  0.00     0.035 C
BRANCH  31  32
HETATM   32  C20 UNL     1       9.364  -8.487  18.222  1.00  0.00     0.105 C
BRANCH  32  33
HETATM   33  C21 UNL     1       9.600  -7.052  18.208  1.00  0.00     0.220 C
HETATM   34  O3  UNL     1      10.090  -6.469  19.200  1.00  0.00    -0.273 OA
HETATM   35  N5  UNL     1       9.284  -6.270  17.074  1.00  0.00    -0.348 N
HETATM   36  C22 UNL     1       9.507  -4.844  17.032  1.00  0.00     0.152 C
HETATM   37  C25 UNL     1       8.717  -6.913  15.912  1.00  0.00     0.152 C
HETATM   38  C23 UNL     1       8.303  -4.145  16.474  1.00  0.00     0.187 C
HETATM   39  O4  UNL     1       7.717  -4.782  15.411  1.00  0.00    -0.388 OA
HETATM   40  C24 UNL     1       8.446  -5.817  14.876  1.00  0.00     0.187 C
ENDBRANCH  32  33
ENDBRANCH  31  32
ENDBRANCH  30  31
ENDBRANCH  29  30
ENDBRANCH  13  29
TORSDOF 11
ENDMDL