MODEL 1
REMARK VINA RESULT: -9.123362705      0.000      0.000
REMARK  12 active torsions:
REMARK  status: ('A' for Active; 'I' for Inactive)
REMARK       I    between atoms: C2_2  and  N1_4
REMARK    1  A    between atoms: N1_4  and  C3_6
REMARK    2  A    between atoms: C4_11  and  C5_12
REMARK    3  A    between atoms: C5_12  and  C6_13
REMARK    4  A    between atoms: C6_13  and  C7_14
REMARK    5  A    between atoms: C7_14  and  C8_15
REMARK    6  A    between atoms: C8_15  and  C9_16
REMARK    7  A    between atoms: N6_22  and  C11_24
REMARK    8  A    between atoms: C11_24  and  C13_26
REMARK    9  A    between atoms: C13_26  and  C14_27
REMARK   10  A    between atoms: C14_27  and  C15_28
REMARK       I    between atoms: C15_28  and  N7_30
REMARK   11  A    between atoms: N7_30  and  C17_32
REMARK   12  A    between atoms: C17_32  and  C18_33
ROOT
HETATM    1  C9  UNL     1       6.591   0.687  14.088  1.00  0.00     0.069 A
HETATM    2  N4  UNL     1       5.891   0.433  15.189  1.00  0.00    -0.296 N
ATOM      3  H4  UNL     1       6.073   0.961  16.043  1.00  0.00     0.187 HD
HETATM    4  N5  UNL     1       4.998  -0.465  15.179  1.00  0.00    -0.279 N
ATOM      5  H5  UNL     1       4.459  -0.663  16.022  1.00  0.00     0.189 HD
HETATM    6  C10 UNL     1       4.767  -1.147  14.061  1.00  0.00     0.161 A
HETATM    7  N6  UNL     1       3.886  -2.086  13.826  1.00  0.00    -0.365 N
ATOM      8  H6  UNL     1       3.815  -2.532  12.912  1.00  0.00     0.162 HD
HETATM    9  S1  UNL     1       5.912  -0.435  12.993  1.00  0.00    -0.038 SA
ENDROOT
BRANCH   7  10
HETATM   10  C11 UNL     1       3.014  -2.464  14.920  1.00  0.00     0.080 C
HETATM   11  C12 UNL     1       1.665  -1.744  14.785  1.00  0.00     0.032 C
BRANCH  10  12
HETATM   12  C13 UNL     1       2.800  -3.952  14.899  1.00  0.00     0.034 C
BRANCH  12  13
HETATM   13  C14 UNL     1       4.102  -4.676  14.900  1.00  0.00     0.105 C
BRANCH  13  14
HETATM   14  C15 UNL     1       4.579  -5.055  16.232  1.00  0.00     0.219 C
HETATM   15  O2  UNL     1       3.804  -5.211  17.200  1.00  0.00    -0.273 OA
HETATM   16  N7  UNL     1       5.958  -5.265  16.483  1.00  0.00    -0.356 N
HETATM   17  C16 UNL     1       6.454  -5.602  17.803  1.00  0.00     0.152 C
BRANCH  16  18
HETATM   18  C17 UNL     1       6.903  -5.162  15.394  1.00  0.00     0.130 C
BRANCH  18  19
HETATM   19  C18 UNL     1       7.943  -4.102  15.595  1.00  0.00     0.004 C
HETATM   20  C19 UNL     1       7.964  -3.080  14.487  1.00  0.00     0.006 C
HETATM   21  C20 UNL     1       9.013  -2.034  14.790  1.00  0.00     0.000 C
HETATM   22  C21 UNL     1      10.332  -2.584  15.206  1.00  0.00     0.000 C
HETATM   23  C22 UNL     1      10.273  -3.755  16.138  1.00  0.00     0.000 C
HETATM   24  C23 UNL     1       9.311  -4.780  15.577  1.00  0.00     0.006 C
ENDBRANCH  18  19
ENDBRANCH  16  18
ENDBRANCH  13  14
ENDBRANCH  12  13
ENDBRANCH  10  12
ENDBRANCH   7  10
BRANCH   1  25
HETATM   25  C8  UNL     1       7.672   1.722  13.903  1.00  0.00     0.066 C
BRANCH  25  26
HETATM   26  C7  UNL     1       8.184   1.603  12.489  1.00  0.00     0.007 C
BRANCH  26  27
HETATM   27  C6  UNL     1       7.547   2.633  11.581  1.00  0.00     0.007 C
BRANCH  27  28
HETATM   28  C5  UNL     1       7.046   2.018  10.302  1.00  0.00     0.066 C
BRANCH  28  29
HETATM   29  C4  UNL     1       5.674   2.520  10.018  1.00  0.00     0.069 A
HETATM   30  N3  UNL     1       5.172   2.902   8.853  1.00  0.00    -0.296 N
HETATM   31  N2  UNL     1       3.980   3.328   8.768  1.00  0.00    -0.279 N
ATOM     32  H3  UNL     1       5.751   2.853   8.015  1.00  0.00     0.187 HD
HETATM   33  C3  UNL     1       3.240   3.383   9.881  1.00  0.00     0.167 A
ATOM     34  H2  UNL     1       3.594   3.621   7.870  1.00  0.00     0.189 HD
HETATM   35  S2  UNL     1       4.332   2.797  11.052  1.00  0.00    -0.038 SA
BRANCH  33  36
HETATM   36  N1  UNL     1       2.002   3.801  10.002  1.00  0.00    -0.306 N
HETATM   37  C2  UNL     1       1.030   2.958  10.610  1.00  0.00     0.219 C
HETATM   38  C1  UNL     1       0.471   1.779   9.910  1.00  0.00     0.117 C
HETATM   39  O1  UNL     1       0.652   3.243  11.774  1.00  0.00    -0.274 OA
ATOM     40  H1  UNL     1       1.739   4.725   9.662  1.00  0.00     0.171 HD
ENDBRANCH  33  36
ENDBRANCH  28  29
ENDBRANCH  27  28
ENDBRANCH  26  27
ENDBRANCH  25  26
ENDBRANCH   1  25
TORSDOF 12
ENDMDL