MODEL 1
REMARK VINA RESULT: -8.603828762      0.000      0.000
REMARK  11 active torsions:
REMARK  status: ('A' for Active; 'I' for Inactive)
REMARK    1  A    between atoms: C1_2  and  C2_3
REMARK       I    between atoms: C1_2  and  N4_27
REMARK    2  A    between atoms: C2_3  and  C3_4
REMARK    3  A    between atoms: N2_11  and  C7_12
REMARK    4  A    between atoms: C7_12  and  C8_13
REMARK    5  A    between atoms: C8_13  and  C9_14
REMARK    6  A    between atoms: C9_14  and  C10_15
REMARK    7  A    between atoms: C10_15  and  C11_16
REMARK    8  A    between atoms: C11_16  and  C12_17
REMARK    9  A    between atoms: C12_17  and  C13_18
REMARK   10  A    between atoms: C13_18  and  C14_19
REMARK       I    between atoms: C14_19  and  N3_21
REMARK   11  A    between atoms: N4_27  and  C19_29
ROOT
HETATM    1  C3  UNL     1       4.976   0.038  12.201  1.00  0.00     0.264 C
HETATM    2  C4  UNL     1       4.655   1.403  11.687  1.00  0.00     0.252 A
HETATM    3  N1  UNL     1       4.536   1.640  10.268  1.00  0.00    -0.059 N
ATOM      4  H11 UNL     1       3.943   2.235   9.691  1.00  0.00     0.278 HD
ATOM      5  H12 UNL     1       4.193   1.092   9.478  1.00  0.00     0.278 HD
HETATM    6  C5  UNL     1       5.829   1.806  10.902  1.00  0.00     0.247 A
HETATM    7  C6  UNL     1       6.778   0.644  10.945  1.00  0.00     0.308 C
HETATM    8  N2  UNL     1       6.341  -0.273  11.936  1.00  0.00     0.097 N
ENDROOT
BRANCH   1   9
HETATM    9  C2  UNL     1       4.080  -1.034  11.691  1.00  0.00     0.141 C
BRANCH   9  10
HETATM   10  C1  UNL     1       4.161  -2.210  12.646  1.00  0.00     0.224 C
HETATM   11  O1  UNL     1       4.643  -3.267  12.195  1.00  0.00    -0.273 OA
HETATM   12  N4  UNL     1       3.682  -1.969  13.939  1.00  0.00    -0.327 N
ATOM     13  H4  UNL     1       3.321  -1.034  14.128  1.00  0.00     0.169 HD
BRANCH  12  14
HETATM   14  C19 UNL     1       3.648  -2.893  15.007  1.00  0.00     0.038 A
HETATM   15  C20 UNL     1       2.511  -3.353  15.631  1.00  0.00     0.047 A
HETATM   16  C21 UNL     1       2.616  -4.264  16.685  1.00  0.00     0.104 A
HETATM   17  N5  UNL     1       3.769  -4.738  17.148  1.00  0.00    -0.273 N
HETATM   18  C22 UNL     1       4.113  -5.608  18.136  1.00  0.00     0.331 A
HETATM   19  C24 UNL     1       4.891  -4.305  16.556  1.00  0.00     0.061 A
HETATM   20  O3  UNL     1       3.304  -6.207  18.897  1.00  0.00    -0.246 OA
HETATM   21  N6  UNL     1       5.448  -5.736  18.182  1.00  0.00    -0.316 N
HETATM   22  C23 UNL     1       5.940  -4.947  17.225  1.00  0.00     0.123 A
ATOM     23  H6  UNL     1       5.983  -6.321  18.823  1.00  0.00     0.170 HD
HETATM   24  C25 UNL     1       4.847  -3.410  15.518  1.00  0.00     0.061 A
ENDBRANCH  12  14
ENDBRANCH   9  10
ENDBRANCH   1   9
BRANCH   8  25
HETATM   25  C7  UNL     1       7.082  -0.331  13.146  1.00  0.00     0.273 C
BRANCH  25  26
HETATM   26  C8  UNL     1       7.704  -1.724  13.383  1.00  0.00     0.030 C
BRANCH  26  27
HETATM   27  C9  UNL     1       8.354  -1.785  14.714  1.00  0.00     0.002 C
BRANCH  27  28
HETATM   28  C10 UNL     1       9.792  -2.068  14.825  1.00  0.00     0.000 C
BRANCH  28  29
HETATM   29  C11 UNL     1      10.336  -3.196  15.584  1.00  0.00     0.000 C
BRANCH  29  30
HETATM   30  C12 UNL     1       9.448  -4.120  16.314  1.00  0.00     0.009 C
BRANCH  30  31
HETATM   31  C13 UNL     1      10.135  -5.441  16.669  1.00  0.00     0.103 C
BRANCH  31  32
HETATM   32  C14 UNL     1       9.244  -6.575  16.466  1.00  0.00     0.219 C
HETATM   33  O2  UNL     1       8.803  -6.895  15.324  1.00  0.00    -0.273 OA
HETATM   34  N3  UNL     1       8.844  -7.360  17.604  1.00  0.00    -0.351 N
HETATM   35  C15 UNL     1       9.331  -7.011  18.894  1.00  0.00     0.136 C
HETATM   36  C18 UNL     1       7.961  -8.491  17.439  1.00  0.00     0.136 C
HETATM   37  C16 UNL     1      10.404  -7.975  19.351  1.00  0.00     0.093 C
HETATM   38  S1  UNL     1       9.984  -9.680  18.912  1.00  0.00    -0.166 SA
HETATM   39  C17 UNL     1       8.660  -9.783  17.707  1.00  0.00     0.093 C
ENDBRANCH  31  32
ENDBRANCH  30  31
ENDBRANCH  29  30
ENDBRANCH  28  29
ENDBRANCH  27  28
ENDBRANCH  26  27
ENDBRANCH  25  26
ENDBRANCH   8  25
TORSDOF 11
ENDMDL