MODEL 3
REMARK VINA RESULT: -8.087800476      1.814      9.703
REMARK  14 active torsions:
REMARK  status: ('A' for Active; 'I' for Inactive)
REMARK    1  A    between atoms: N1_2  and  C2_5
REMARK    2  A    between atoms: C2_5  and  C3_6
REMARK    3  A    between atoms: C2_5  and  C10_13
REMARK    4  A    between atoms: C3_6  and  C4_7
REMARK    5  A    between atoms: C10_13  and  O1_14
REMARK    6  A    between atoms: C10_13  and  N2_16
REMARK    7  A    between atoms: N3_19  and  C13_20
REMARK    8  A    between atoms: C15_22  and  C16_23
REMARK    9  A    between atoms: N4_26  and  C19_27
REMARK   10  A    between atoms: C23_32  and  C24_33
REMARK   11  A    between atoms: C24_33  and  N5_34
REMARK   12  A    between atoms: N5_34  and  C25_37
REMARK   13  A    between atoms: C25_37  and  C26_38
REMARK   14  A    between atoms: C26_38  and  O3_39
ROOT
HETATM    1  N2  UNL     1       5.627   0.206  12.626  1.00  0.00    -0.361 N
HETATM    2  C11 UNL     1       6.658  -0.755  12.403  1.00  0.00     0.144 C
HETATM    3  C12 UNL     1       6.069  -2.153  12.717  1.00  0.00     0.143 C
HETATM    4  N3  UNL     1       5.816  -2.200  14.128  1.00  0.00    -0.377 N
HETATM    5  C27 UNL     1       5.285  -0.983  14.777  1.00  0.00     0.143 C
HETATM    6  C28 UNL     1       4.664  -0.114  13.699  1.00  0.00     0.144 C
ENDROOT
BRANCH   4   7
HETATM    7  C13 UNL     1       6.045  -3.328  14.903  1.00  0.00     0.045 A
HETATM    8  C14 UNL     1       7.277  -3.514  15.553  1.00  0.00     0.055 A
HETATM    9  C15 UNL     1       7.544  -4.612  16.340  1.00  0.00     0.021 A
HETATM   10  N4  UNL     1       6.584  -5.549  16.494  1.00  0.00    -0.312 N
HETATM   11  C22 UNL     1       5.385  -5.377  15.867  1.00  0.00     0.258 A
HETATM   12  O2  UNL     1       4.538  -6.277  16.049  1.00  0.00    -0.267 OA
HETATM   13  C23 UNL     1       5.083  -4.298  15.076  1.00  0.00     0.062 A
BRANCH   9  14
HETATM   14  C16 UNL     1       8.874  -4.709  16.980  1.00  0.00     0.036 A
HETATM   15  C17 UNL     1       9.957  -5.509  16.273  1.00  0.00     0.011 A
HETATM   16  C18 UNL     1      10.067  -4.011  16.469  1.00  0.00     0.011 A
ENDBRANCH   9  14
BRANCH  10  17
HETATM   17  C19 UNL     1       6.900  -6.676  17.317  1.00  0.00     0.093 A
HETATM   18  C20 UNL     1       5.962  -7.530  18.017  1.00  0.00     0.028 A
HETATM   19  C21 UNL     1       6.629  -6.423  18.833  1.00  0.00     0.028 A
ENDBRANCH  10  17
BRANCH  13  20
HETATM   20  C24 UNL     1       3.784  -4.156  14.430  1.00  0.00     0.278 C
BRANCH  20  21
HETATM   21  N5  UNL     1       2.634  -4.417  15.294  1.00  0.00    -0.069 N
ATOM     22  H52 UNL     1       1.815  -4.783  14.809  1.00  0.00     0.277 HD
ATOM     23  H51 UNL     1       2.749  -5.212  15.922  1.00  0.00     0.277 HD
BRANCH  21  24
HETATM   24  C25 UNL     1       2.416  -3.117  15.978  1.00  0.00     0.258 C
BRANCH  24  25
HETATM   25  C26 UNL     1       2.749  -3.263  17.449  1.00  0.00     0.191 C
BRANCH  25  26
HETATM   26  O3  UNL     1       3.826  -2.452  17.807  1.00  0.00    -0.399 OA
ATOM     27  H3  UNL     1       3.670  -2.018  18.637  1.00  0.00     0.209 HD
ENDBRANCH  25  26
ENDBRANCH  24  25
ENDBRANCH  21  24
ENDBRANCH  20  21
ENDBRANCH  13  20
ENDBRANCH   4   7
BRANCH   1  28
HETATM   28  C10 UNL     1       5.456   1.394  11.954  1.00  0.00     0.145 C
BRANCH  28  29
HETATM   29  C2  UNL     1       4.575   1.881  10.903  1.00  0.00     0.259 C
BRANCH  29  30
HETATM   30  N1  UNL     1       5.254   1.827   9.598  1.00  0.00    -0.067 N
HETATM   31  C1  UNL     1       5.418   3.111   8.995  1.00  0.00     0.267 C
ATOM     32  H12 UNL     1       4.773   1.188   8.965  1.00  0.00     0.277 HD
ATOM     33  H11 UNL     1       6.149   1.345   9.674  1.00  0.00     0.277 HD
ENDBRANCH  29  30
BRANCH  29  34
HETATM   34  C3  UNL     1       3.871   3.162  11.064  1.00  0.00     0.046 C
BRANCH  34  35
HETATM   35  C4  UNL     1       2.377   2.858  11.230  1.00  0.00    -0.012 C
HETATM   36  C5  UNL     1       1.542   3.564  10.208  1.00  0.00     0.005 C
HETATM   37  C6  UNL     1       0.245   2.780   9.946  1.00  0.00     0.000 C
HETATM   38  C7  UNL     1      -0.193   2.127  11.251  1.00  0.00     0.000 C
HETATM   39  C8  UNL     1       0.779   1.060  11.665  1.00  0.00     0.000 C
HETATM   40  C9  UNL     1       2.128   1.366  11.058  1.00  0.00     0.005 C
ENDBRANCH  34  35
ENDBRANCH  29  34
ENDBRANCH  28  29
BRANCH  28  41
HETATM   41  O1  UNL     1       6.294   2.345  12.346  1.00  0.00    -0.348 OA
ATOM     42  H1  UNL     1       5.819   3.120  12.623  1.00  0.00     0.219 HD
ENDBRANCH  28  41
ENDBRANCH   1  28
TORSDOF 14
ENDMDL