MODEL 4
REMARK VINA RESULT: -7.899483092      2.518      3.699
REMARK  11 active torsions:
REMARK  status: ('A' for Active; 'I' for Inactive)
REMARK    1  A    between atoms: C2_2  and  C3_3
REMARK    2  A    between atoms: C3_3  and  C4_4
REMARK    3  A    between atoms: C4_4  and  N1_5
REMARK    4  A    between atoms: N3_14  and  C9_16
REMARK    5  A    between atoms: C9_16  and  C10_17
REMARK    6  A    between atoms: C10_17  and  C11_18
REMARK    7  A    between atoms: C11_18  and  N4_19
REMARK    8  A    between atoms: N4_19  and  S3_21
REMARK    9  A    between atoms: S3_21  and  N5_24
REMARK   10  A    between atoms: N5_24  and  C12_25
REMARK   11  A    between atoms: N5_24  and  C14_27
ROOT
HETATM    1  N1  UNL     1       8.229  -3.689  16.292  1.00  0.00    -0.290 N
HETATM    2  C5  UNL     1       9.037  -2.820  15.691  1.00  0.00     0.181 A
HETATM    3  S1  UNL     1      10.671  -2.906  15.808  1.00  0.00    -0.040 SA
HETATM    4  N2  UNL     1       8.436  -1.857  14.977  1.00  0.00    -0.326 N
ATOM      5  H2  UNL     1       8.998  -1.158  14.492  1.00  0.00     0.169 HD
HETATM    6  C6  UNL     1       7.082  -1.809  14.898  1.00  0.00     0.093 A
HETATM    7  S2  UNL     1       6.013  -0.750  14.098  1.00  0.00    -0.067 SA
HETATM    8  C7  UNL     1       4.522  -1.442  14.550  1.00  0.00     0.062 A
HETATM    9  C8  UNL     1       3.215  -1.095  14.258  1.00  0.00     0.123 A
HETATM   10  N3  UNL     1       2.843  -0.132  13.550  1.00  0.00    -0.355 N
ATOM     11  H3  UNL     1       1.830  -0.051  13.458  1.00  0.00     0.166 HD
HETATM   12  N6  UNL     1       2.214  -1.883  14.793  1.00  0.00    -0.351 N
ATOM     13  H6  UNL     1       1.234  -1.672  14.609  1.00  0.00     0.166 HD
HETATM   14  C16 UNL     1       2.549  -2.914  15.547  1.00  0.00     0.090 A
HETATM   15  C17 UNL     1       3.828  -3.255  15.834  1.00  0.00     0.031 A
HETATM   16  C18 UNL     1       4.907  -2.501  15.326  1.00  0.00     0.005 A
HETATM   17  C19 UNL     1       6.234  -2.692  15.506  1.00  0.00     0.078 A
HETATM   18  C20 UNL     1       6.902  -3.691  16.250  1.00  0.00     0.263 A
HETATM   19  O3  UNL     1       6.277  -4.583  16.873  1.00  0.00    -0.267 OA
ENDROOT
BRANCH  10  20
HETATM   20  C9  UNL     1       3.560   0.860  12.856  1.00  0.00     0.064 C
BRANCH  20  21
HETATM   21  C10 UNL     1       3.743   0.545  11.378  1.00  0.00     0.065 C
BRANCH  21  22
HETATM   22  C11 UNL     1       4.542   1.687  10.758  1.00  0.00     0.138 C
BRANCH  22  23
HETATM   23  N4  UNL     1       5.325   2.346  11.760  1.00  0.00    -0.306 N
ATOM     24  H4  UNL     1       4.940   2.797  12.589  1.00  0.00     0.173 HD
BRANCH  23  25
HETATM   25  S3  UNL     1       6.988   2.275  11.383  1.00  0.00     0.298 S
HETATM   26  O1  UNL     1       7.417   3.564  10.728  1.00  0.00    -0.188 OA
HETATM   27  O2  UNL     1       7.742   2.197  12.691  1.00  0.00    -0.188 OA
BRANCH  25  28
HETATM   28  N5  UNL     1       7.441   0.932  10.436  1.00  0.00    -0.194 NA
BRANCH  28  29
HETATM   29  C12 UNL     1       8.101   1.275   9.197  1.00  0.00     0.104 C
HETATM   30  C13 UNL     1       7.031   1.240   8.101  1.00  0.00     0.022 C
ENDBRANCH  28  29
BRANCH  28  31
HETATM   31  C14 UNL     1       8.068  -0.134  11.159  1.00  0.00     0.104 C
HETATM   32  C15 UNL     1       9.557  -0.130  10.841  1.00  0.00     0.022 C
ENDBRANCH  28  31
ENDBRANCH  25  28
ENDBRANCH  23  25
ENDBRANCH  22  23
ENDBRANCH  21  22
ENDBRANCH  20  21
ENDBRANCH  10  20
BRANCH   1  33
HETATM   33  C4  UNL     1       8.891  -4.741  17.076  1.00  0.00     0.135 C
BRANCH  33  34
HETATM   34  C3  UNL     1       9.041  -5.928  16.124  1.00  0.00     0.020 C
BRANCH  34  35
HETATM   35  C2  UNL     1       9.651  -7.050  16.943  1.00  0.00    -0.003 C
HETATM   36  C1  UNL     1      10.857  -6.536  17.669  1.00  0.00     0.005 C
ENDBRANCH  34  35
ENDBRANCH  33  34
ENDBRANCH   1  33
TORSDOF 11
ENDMDL