MODEL 2
REMARK VINA RESULT: -8.468429094      1.150      1.875
REMARK  13 active torsions:
REMARK  status: ('A' for Active; 'I' for Inactive)
REMARK    1  A    between atoms: C4_4  and  O1_5
REMARK    2  A    between atoms: C7_9  and  O2_10
REMARK    3  A    between atoms: O2_10  and  C8_11
REMARK    4  A    between atoms: C8_11  and  C9_13
REMARK    5  A    between atoms: C9_13  and  C10_14
REMARK    6  A    between atoms: C11_15  and  C12_16
REMARK    7  A    between atoms: C13_17  and  N1_18
REMARK    8  A    between atoms: N1_18  and  C14_20
REMARK    9  A    between atoms: C14_20  and  C15_21
REMARK   10  A    between atoms: C15_21  and  O4_22
REMARK   11  A    between atoms: C17_24  and  C18_25
REMARK   12  A    between atoms: C22_30  and  O6_31
REMARK   13  A    between atoms: C26_36  and  C27_37
ROOT
HETATM    1  C12 UNL     1       6.316  -0.187  13.941  1.00  0.00     0.037 C
HETATM    2  C13 UNL     1       4.884   0.247  13.741  1.00  0.00     0.100 C
HETATM    3  C17 UNL     1       4.093  -0.859  14.424  1.00  0.00     0.079 C
HETATM    4  C19 UNL     1       4.997  -2.054  14.466  1.00  0.00    -0.025 C
HETATM    5  C20 UNL     1       4.381  -3.097  13.542  1.00  0.00     0.016 C
HETATM    6  C21 UNL     1       5.038  -2.585  15.868  1.00  0.00     0.042 C
HETATM    7  C22 UNL     1       6.476  -2.647  16.274  1.00  0.00     0.128 C
HETATM    8  C23 UNL     1       7.283  -2.254  15.090  1.00  0.00    -0.002 C
HETATM    9  C24 UNL     1       8.540  -1.482  15.406  1.00  0.00     0.014 C
HETATM   10  C25 UNL     1       9.392  -2.448  14.620  1.00  0.00     0.011 C
HETATM   11  C26 UNL     1       8.154  -3.338  14.543  1.00  0.00     0.025 C
HETATM   12  C30 UNL     1       6.374  -1.663  14.031  1.00  0.00     0.016 C
ENDROOT
BRANCH   1  13
HETATM   13  C11 UNL     1       7.190   0.487  12.971  1.00  0.00    -0.023 C
HETATM   14  C10 UNL     1       8.123   0.005  12.191  1.00  0.00    -0.020 C
BRANCH  14  15
HETATM   15  C9  UNL     1       8.884   0.892  11.277  1.00  0.00     0.138 C
BRANCH  15  16
HETATM   16  C8  UNL     1       8.525   0.825   9.871  1.00  0.00     0.262 C
HETATM   17  O3  UNL     1       8.302  -0.254   9.267  1.00  0.00    -0.265 OA
BRANCH  16  18
HETATM   18  O2  UNL     1       8.396   1.973   9.062  1.00  0.00    -0.311 OA
BRANCH  18  19
HETATM   19  C7  UNL     1       7.241   2.202   8.288  1.00  0.00     0.166 C
HETATM   20  C2  UNL     1       7.325   3.504   7.553  1.00  0.00    -0.057 C
HETATM   21  C1  UNL     1       8.367   4.146   7.108  1.00  0.00     0.017 C
HETATM   22  C3  UNL     1       5.910   3.969   7.407  1.00  0.00     0.068 C
HETATM   23  C4  UNL     1       5.100   3.176   8.386  1.00  0.00     0.128 C
HETATM   24  C5  UNL     1       6.115   2.497   9.265  1.00  0.00     0.044 C
HETATM   25  C6  UNL     1       6.618   3.518  10.267  1.00  0.00     0.015 C
BRANCH  23  26
HETATM   26  O1  UNL     1       4.370   4.046   9.214  1.00  0.00    -0.395 OA
ATOM     27  H1  UNL     1       3.441   3.884   9.108  1.00  0.00     0.210 HD
ENDBRANCH  23  26
ENDBRANCH  18  19
ENDBRANCH  16  18
ENDBRANCH  15  16
ENDBRANCH  14  15
ENDBRANCH   1  13
BRANCH   2  28
HETATM   28  N1  UNL     1       4.363   0.581  12.508  1.00  0.00    -0.394 N
ATOM     29  H1  UNL     1       4.216  -0.198  11.868  1.00  0.00     0.159 HD
BRANCH  28  30
HETATM   30  C14 UNL     1       4.015   1.821  12.021  1.00  0.00     0.082 C
BRANCH  30  31
HETATM   31  C15 UNL     1       2.590   1.926  11.484  1.00  0.00     0.211 C
BRANCH  31  32
HETATM   32  O4  UNL     1       2.275   3.263  11.285  1.00  0.00    -0.391 OA
HETATM   33  C16 UNL     1       1.110   3.454  10.582  1.00  0.00     0.201 C
ENDBRANCH  31  32
ENDBRANCH  30  31
ENDBRANCH  28  30
ENDBRANCH   2  28
BRANCH   3  34
HETATM   34  C18 UNL     1       2.803  -1.140  13.716  1.00  0.00     0.238 C
HETATM   35  O5  UNL     1       1.761  -0.544  13.991  1.00  0.00    -0.306 OA
ENDBRANCH   3  34
BRANCH   7  36
HETATM   36  O6  UNL     1       6.744  -1.872  17.404  1.00  0.00    -0.395 OA
ATOM     37  H6  UNL     1       6.716  -2.381  18.206  1.00  0.00     0.210 HD
ENDBRANCH   7  36
BRANCH  11  38
HETATM   38  C27 UNL     1       8.430  -4.577  15.262  1.00  0.00    -0.088 C
HETATM   39  C28 UNL     1       7.878  -5.700  14.830  1.00  0.00     0.014 C
HETATM   40  C29 UNL     1       9.347  -4.733  16.437  1.00  0.00     0.043 C
ENDBRANCH  11  38
TORSDOF 13
ENDMDL