MODEL 3
REMARK VINA RESULT: -8.371740901      2.741      6.393
REMARK  13 active torsions:
REMARK  status: ('A' for Active; 'I' for Inactive)
REMARK    1  A    between atoms: C2_2  and  C4_4
REMARK    2  A    between atoms: C4_4  and  C5_5
REMARK    3  A    between atoms: C5_5  and  C6_6
REMARK    4  A    between atoms: C6_6  and  C7_7
REMARK       I    between atoms: C7_7  and  N1_9
REMARK    5  A    between atoms: N1_9  and  C8_11
REMARK    6  A    between atoms: C9_16  and  C10_17
REMARK    7  A    between atoms: C10_17  and  C11_18
REMARK    8  A    between atoms: C11_18  and  C12_19
REMARK    9  A    between atoms: C12_19  and  C13_20
REMARK   10  A    between atoms: C13_20  and  C14_21
REMARK       I    between atoms: N6_27  and  C16_29
REMARK   11  A    between atoms: C16_29  and  C17_31
REMARK   12  A    between atoms: C17_31  and  C18_32
REMARK   13  A    between atoms: C18_32  and  C19_33
ROOT
HETATM    1  C14 UNL     1       7.551  -5.954  17.767  1.00  0.00     0.069 A
HETATM    2  N4  UNL     1       7.055  -4.760  17.517  1.00  0.00    -0.296 N
ATOM      3  H4  UNL     1       6.146  -4.501  17.899  1.00  0.00     0.187 HD
HETATM    4  N5  UNL     1       7.698  -3.927  16.803  1.00  0.00    -0.279 N
ATOM      5  H5  UNL     1       7.307  -3.004  16.615  1.00  0.00     0.189 HD
HETATM    6  C15 UNL     1       8.884  -4.266  16.303  1.00  0.00     0.167 A
HETATM    7  N6  UNL     1       9.737  -3.656  15.574  1.00  0.00    -0.306 N
ATOM      8  H6  UNL     1      10.556  -4.232  15.379  1.00  0.00     0.171 HD
HETATM    9  C16 UNL     1       9.827  -2.428  14.992  1.00  0.00     0.223 C
HETATM   10  O2  UNL     1      10.972  -2.091  14.490  1.00  0.00    -0.273 OA
HETATM   11  S1  UNL     1       9.032  -5.893  16.930  1.00  0.00    -0.038 SA
ENDROOT
BRANCH   1  12
HETATM   12  C13 UNL     1       6.955  -7.078  18.590  1.00  0.00     0.066 C
BRANCH  12  13
HETATM   13  C12 UNL     1       5.522  -7.171  18.190  1.00  0.00     0.007 C
BRANCH  13  14
HETATM   14  C11 UNL     1       4.552  -6.595  19.156  1.00  0.00     0.007 C
BRANCH  14  15
HETATM   15  C10 UNL     1       3.167  -6.368  18.641  1.00  0.00     0.066 C
BRANCH  15  16
HETATM   16  C9  UNL     1       3.217  -5.097  17.816  1.00  0.00     0.069 A
HETATM   17  N3  UNL     1       3.619  -3.896  18.209  1.00  0.00    -0.296 N
HETATM   18  N2  UNL     1       3.609  -2.919  17.405  1.00  0.00    -0.279 N
ATOM     19  H3  UNL     1       3.941  -3.758  19.168  1.00  0.00     0.187 HD
HETATM   20  C8  UNL     1       3.186  -3.119  16.152  1.00  0.00     0.167 A
ATOM     21  H2  UNL     1       3.917  -1.995  17.708  1.00  0.00     0.189 HD
HETATM   22  S2  UNL     1       2.801  -4.792  16.188  1.00  0.00    -0.038 SA
BRANCH  20  23
HETATM   23  N1  UNL     1       3.100  -2.242  15.172  1.00  0.00    -0.306 N
HETATM   24  C7  UNL     1       4.285  -1.912  14.521  1.00  0.00     0.223 C
HETATM   25  O1  UNL     1       5.115  -1.146  14.997  1.00  0.00    -0.273 OA
ATOM     26  H1  UNL     1       2.209  -1.825  14.904  1.00  0.00     0.171 HD
BRANCH  24  27
HETATM   27  C6  UNL     1       4.555  -2.533  13.160  1.00  0.00     0.107 C
BRANCH  27  28
HETATM   28  C5  UNL     1       4.707  -1.441  12.172  1.00  0.00     0.036 C
BRANCH  28  29
HETATM   29  C4  UNL     1       3.528  -0.675  11.848  1.00  0.00    -0.024 C
BRANCH  29  30
HETATM   30  C2  UNL     1       3.205   0.572  11.850  1.00  0.00    -0.091 C
HETATM   31  C1  UNL     1       1.715   0.949  11.830  1.00  0.00     0.042 C
HETATM   32  C3  UNL     1       4.148   1.695  11.849  1.00  0.00     0.042 C
ENDBRANCH  29  30
ENDBRANCH  28  29
ENDBRANCH  27  28
ENDBRANCH  24  27
ENDBRANCH  20  23
ENDBRANCH  15  16
ENDBRANCH  14  15
ENDBRANCH  13  14
ENDBRANCH  12  13
ENDBRANCH   1  12
BRANCH   9  33
HETATM   33  C17 UNL     1       8.693  -1.468  14.905  1.00  0.00     0.108 C
BRANCH  33  34
HETATM   34  C18 UNL     1       8.217  -1.458  13.465  1.00  0.00     0.049 C
BRANCH  34  35
HETATM   35  C19 UNL     1       8.054  -0.110  12.903  1.00  0.00    -0.042 A
HETATM   36  C20 UNL     1       8.216   0.132  11.555  1.00  0.00     0.014 A
HETATM   37  C21 UNL     1       8.059   1.408  11.009  1.00  0.00     0.075 A
HETATM   38  C22 UNL     1       7.733   2.476  11.817  1.00  0.00     0.245 A
HETATM   39  O3  UNL     1       7.577   3.650  11.373  1.00  0.00    -0.268 OA
HETATM   40  N7  UNL     1       7.578   2.220  13.129  1.00  0.00    -0.333 N
HETATM   41  C23 UNL     1       7.725   0.994  13.682  1.00  0.00     0.098 A
ATOM     42  H7  UNL     1       7.336   2.996  13.744  1.00  0.00     0.168 HD
ENDBRANCH  34  35
ENDBRANCH  33  34
ENDBRANCH   9  33
TORSDOF 13
ENDMDL