MODEL 1
REMARK VINA RESULT: -7.475311577      0.000      0.000
REMARK  11 active torsions:
REMARK  status: ('A' for Active; 'I' for Inactive)
REMARK    1  A    between atoms: C2_2  and  C3_3
REMARK    2  A    between atoms: C3_3  and  C4_4
REMARK    3  A    between atoms: C4_4  and  N1_5
REMARK    4  A    between atoms: C6_7  and  C7_8
REMARK    5  A    between atoms: N2_9  and  N3_11
REMARK    6  A    between atoms: C8_14  and  C9_15
REMARK    7  A    between atoms: C15_24  and  C16_25
REMARK    8  A    between atoms: C16_25  and  C17_26
REMARK    9  A    between atoms: C17_26  and  C18_27
REMARK   10  A    between atoms: C17_26  and  N6_36
REMARK   11  A    between atoms: C20_33  and  O3_34
ROOT
HETATM    1  N1  UNL     1      15.949 -16.596  20.717  1.00  0.00    -0.346 N
HETATM    2  C5  UNL     1      17.081 -17.276  20.867  1.00  0.00     0.107 A
HETATM    3  C6  UNL     1      17.956 -17.084  21.980  1.00  0.00     0.024 A
HETATM    4  C8  UNL     1      17.561 -16.155  22.867  1.00  0.00     0.057 A
HETATM    5  N4  UNL     1      16.400 -15.494  22.677  1.00  0.00    -0.344 N
ATOM      6  H4  UNL     1      16.128 -14.801  23.374  1.00  0.00     0.167 HD
HETATM    7  C15 UNL     1      15.559 -15.691  21.606  1.00  0.00     0.086 A
ENDROOT
BRANCH   7   8
HETATM    8  C16 UNL     1      14.296 -14.930  21.612  1.00  0.00     0.117 C
BRANCH   8   9
HETATM    9  C17 UNL     1      14.316 -13.448  21.542  1.00  0.00     0.257 C
BRANCH   9  10
HETATM   10  C18 UNL     1      14.987 -13.129  20.203  1.00  0.00     0.140 A
HETATM   11  O1  UNL     1      14.592 -13.503  19.011  1.00  0.00    -0.259 OA
HETATM   12  C19 UNL     1      15.356 -13.074  18.067  1.00  0.00     0.371 A
HETATM   13  O2  UNL     1      15.154 -13.321  16.834  1.00  0.00    -0.238 OA
HETATM   14  N5  UNL     1      16.323 -12.372  18.649  1.00  0.00    -0.281 N
HETATM   15  C20 UNL     1      16.109 -12.396  20.005  1.00  0.00     0.177 A
ATOM     16  H5  UNL     1      17.090 -11.899  18.172  1.00  0.00     0.173 HD
BRANCH  15  17
HETATM   17  O3  UNL     1      16.985 -11.742  20.868  1.00  0.00    -0.344 OA
ATOM     18  H3  UNL     1      17.924 -11.791  21.002  1.00  0.00     0.219 HD
ENDBRANCH  15  17
ENDBRANCH   9  10
BRANCH   9  19
HETATM   19  N6  UNL     1      13.056 -12.763  21.527  1.00  0.00    -0.068 N
HETATM   20  C21 UNL     1      13.096 -11.540  20.693  1.00  0.00     0.272 C
HETATM   21  C22 UNL     1      12.597 -12.267  22.805  1.00  0.00     0.272 C
HETATM   22  C23 UNL     1      12.007 -13.621  20.979  1.00  0.00     0.272 C
ENDBRANCH   9  19
ENDBRANCH   8   9
ENDBRANCH   7   8
BRANCH   1  23
HETATM   23  C4  UNL     1      15.201 -16.800  19.467  1.00  0.00     0.130 C
BRANCH  23  24
HETATM   24  C3  UNL     1      14.480 -18.129  19.484  1.00  0.00     0.020 C
BRANCH  24  25
HETATM   25  C2  UNL     1      12.997 -17.809  19.497  1.00  0.00    -0.003 C
HETATM   26  C1  UNL     1      12.675 -16.597  18.696  1.00  0.00     0.005 C
ENDBRANCH  24  25
ENDBRANCH  23  24
ENDBRANCH   1  23
BRANCH   4  27
HETATM   27  C9  UNL     1      18.403 -15.673  23.983  1.00  0.00    -0.008 A
HETATM   28  C10 UNL     1      19.277 -14.620  23.818  1.00  0.00     0.015 A
HETATM   29  C11 UNL     1      20.010 -14.191  24.911  1.00  0.00     0.024 A
HETATM   30  C12 UNL     1      19.896 -14.777  26.152  1.00  0.00     0.034 A
HETATM   31 CL1  UNL     1      20.854 -14.206  27.519  1.00  0.00    -0.084 Cl
HETATM   32  C13 UNL     1      19.018 -15.834  26.316  1.00  0.00     0.024 A
HETATM   33  C14 UNL     1      18.274 -16.271  25.209  1.00  0.00     0.015 A
ENDBRANCH   4  27
BRANCH   3  34
HETATM   34  C7  UNL     1      18.976 -18.070  22.130  1.00  0.00     0.121 C
HETATM   35  N2  UNL     1      20.078 -18.400  21.686  1.00  0.00    -0.318 N
ATOM     36  H2  UNL     1      20.443 -19.240  22.133  1.00  0.00     0.185 HD
BRANCH  35  37
HETATM   37  N3  UNL     1      20.928 -17.899  20.729  1.00  0.00    -0.345 N
ATOM     38  H32 UNL     1      20.443 -17.253  20.106  1.00  0.00     0.176 HD
ATOM     39  H31 UNL     1      21.915 -18.026  20.506  1.00  0.00     0.176 HD
ENDBRANCH  35  37
ENDBRANCH   3  34
TORSDOF 11
ENDMDL