MODEL 5
REMARK VINA RESULT: -7.317761617      1.471      1.989
REMARK  10 active torsions:
REMARK  status: ('A' for Active; 'I' for Inactive)
REMARK    1  A    between atoms: C8_9  and  S1_10
REMARK    2  A    between atoms: S1_10  and  N1_13
REMARK    3  A    between atoms: N1_13  and  C9_15
REMARK    4  A    between atoms: C9_15  and  C10_16
REMARK    5  A    between atoms: C13_19  and  C14_20
REMARK    6  A    between atoms: C14_20  and  C15_21
REMARK    7  A    between atoms: C15_21  and  C16_22
REMARK    8  A    between atoms: C16_22  and  N2_23
REMARK    9  A    between atoms: N2_23  and  S2_25
REMARK   10  A    between atoms: S2_25  and  N3_26
ROOT
HETATM    1  C1  UNL     1      13.205 -15.838  21.709  1.00  0.00     0.018 C
HETATM    2  C2  UNL     1      13.141 -14.636  21.806  1.00  0.00    -0.076 C
HETATM    3  C3  UNL     1      13.068 -13.212  21.945  1.00  0.00     0.041 A
HETATM    4  C4  UNL     1      12.239 -12.684  22.909  1.00  0.00     0.041 A
HETATM    5  C5  UNL     1      12.163 -11.302  23.051  1.00  0.00     0.012 A
HETATM    6 BR1  UNL     1      11.032 -10.500  24.369  1.00  0.00    -0.051 Br
HETATM    7  C6  UNL     1      12.917 -10.508  22.223  1.00  0.00     0.020 A
HETATM    8  C7  UNL     1      13.763 -11.036  21.239  1.00  0.00     0.028 A
HETATM    9  C8  UNL     1      13.831 -12.388  21.110  1.00  0.00     0.098 A
ENDROOT
BRANCH   9  10
HETATM   10  S1  UNL     1      14.798 -13.164  19.925  1.00  0.00     0.260 S
HETATM   11  O1  UNL     1      13.986 -13.991  18.959  1.00  0.00    -0.200 OA
HETATM   12  O2  UNL     1      15.453 -12.089  19.089  1.00  0.00    -0.200 OA
BRANCH  10  13
HETATM   13  N1  UNL     1      16.038 -14.162  20.526  1.00  0.00    -0.311 N
ATOM     14  H1  UNL     1      16.092 -15.157  20.302  1.00  0.00     0.172 HD
BRANCH  13  15
HETATM   15  C9  UNL     1      17.002 -13.516  21.365  1.00  0.00     0.170 C
BRANCH  15  16
HETATM   16  C10 UNL     1      17.784 -14.541  22.101  1.00  0.00    -0.040 A
HETATM   17  C11 UNL     1      18.613 -15.420  21.394  1.00  0.00     0.009 A
HETATM   18  C12 UNL     1      19.350 -16.376  22.054  1.00  0.00     0.007 A
HETATM   19  C13 UNL     1      19.307 -16.513  23.426  1.00  0.00    -0.058 A
HETATM   20  C17 UNL     1      18.500 -15.658  24.115  1.00  0.00     0.007 A
HETATM   21  C18 UNL     1      17.747 -14.683  23.461  1.00  0.00     0.009 A
BRANCH  19  22
HETATM   22  C14 UNL     1      20.094 -17.539  24.154  1.00  0.00     0.040 C
BRANCH  22  23
HETATM   23  C15 UNL     1      21.480 -17.684  23.555  1.00  0.00     0.025 C
BRANCH  23  24
HETATM   24  C16 UNL     1      22.495 -17.210  24.573  1.00  0.00     0.134 C
BRANCH  24  25
HETATM   25  N2  UNL     1      23.286 -16.114  24.043  1.00  0.00    -0.303 N
ATOM     26  H2  UNL     1      24.121 -16.236  23.470  1.00  0.00     0.173 HD
BRANCH  25  27
HETATM   27  S2  UNL     1      22.647 -14.595  24.500  1.00  0.00     0.312 S
HETATM   28  O3  UNL     1      21.727 -14.115  23.410  1.00  0.00    -0.183 OA
HETATM   29  O4  UNL     1      23.701 -13.557  24.737  1.00  0.00    -0.183 OA
BRANCH  27  30
HETATM   30  N3  UNL     1      21.748 -14.790  25.976  1.00  0.00    -0.312 N
ATOM     31  H32 UNL     1      21.484 -15.686  26.383  1.00  0.00     0.170 HD
ATOM     32  H31 UNL     1      21.536 -13.867  26.353  1.00  0.00     0.170 HD
ENDBRANCH  27  30
ENDBRANCH  25  27
ENDBRANCH  24  25
ENDBRANCH  23  24
ENDBRANCH  22  23
ENDBRANCH  19  22
ENDBRANCH  15  16
ENDBRANCH  13  15
ENDBRANCH  10  13
ENDBRANCH   9  10
TORSDOF 10
ENDMDL