MODEL 2
REMARK VINA RESULT: -9.074531401      0.777      1.210
REMARK  11 active torsions:
REMARK  status: ('A' for Active; 'I' for Inactive)
REMARK    1  A    between atoms: C6_7  and  C7_8
REMARK    2  A    between atoms: C7_8  and  N2_9
REMARK    3  A    between atoms: N2_9  and  C8_10
REMARK       I    between atoms: N2_9  and  C12_19
REMARK    4  A    between atoms: C8_10  and  C9_11
REMARK    5  A    between atoms: C12_19  and  C13_21
REMARK    6  A    between atoms: C13_21  and  C14_22
REMARK    7  A    between atoms: C14_22  and  N5_25
REMARK       I    between atoms: N5_25  and  C17_27
REMARK    8  A    between atoms: C17_27  and  C18_29
REMARK    9  A    between atoms: C18_29  and  N6_30
REMARK   10  A    between atoms: C18_29  and  C19_34
REMARK   11  A    between atoms: C19_34  and  C20_35
ROOT
HETATM    1  C13 UNL     1      14.683 -15.456  20.188  1.00  0.00     0.133 C
ENDROOT
BRANCH   1   2
HETATM    2  C12 UNL     1      13.860 -14.259  20.005  1.00  0.00     0.226 C
HETATM    3  N2  UNL     1      14.333 -12.943  20.400  1.00  0.00    -0.320 N
HETATM    4  O2  UNL     1      12.720 -14.324  19.505  1.00  0.00    -0.273 OA
BRANCH   3   5
HETATM    5  C7  UNL     1      15.594 -12.739  20.971  1.00  0.00     0.123 C
BRANCH   5   6
HETATM    6  C6  UNL     1      16.860 -12.853  20.301  1.00  0.00     0.049 A
HETATM    7  N1  UNL     1      17.165 -12.755  19.009  1.00  0.00    -0.360 N
HETATM    8  C1  UNL     1      16.204 -12.483  17.973  1.00  0.00     0.155 C
HETATM    9  C2  UNL     1      18.458 -12.899  18.568  1.00  0.00     0.090 A
HETATM   10  C3  UNL     1      19.509 -13.146  19.406  1.00  0.00     0.017 A
HETATM   11  C4  UNL     1      19.239 -13.253  20.744  1.00  0.00     0.004 A
HETATM   12  C5  UNL     1      17.963 -13.109  21.155  1.00  0.00     0.031 A
ENDBRANCH   5   6
ENDBRANCH   3   5
BRANCH   3  13
HETATM   13  C8  UNL     1      13.385 -11.821  20.259  1.00  0.00     0.189 C
BRANCH  13  14
HETATM   14  C9  UNL     1      12.758 -11.574  21.612  1.00  0.00     0.047 A
HETATM   15  C10 UNL     1      12.985 -10.528  22.464  1.00  0.00     0.119 A
HETATM   16  N3  UNL     1      12.222 -10.710  23.543  1.00  0.00    -0.317 N
HETATM   17  C11 UNL     1      11.536 -11.848  23.364  1.00  0.00     0.324 A
ATOM     18  H3  UNL     1      12.171 -10.096  24.355  1.00  0.00     0.170 HD
HETATM   19  O1  UNL     1      10.713 -12.303  24.224  1.00  0.00    -0.247 OA
HETATM   20  N4  UNL     1      11.864 -12.379  22.181  1.00  0.00    -0.309 N
ATOM     21  H4  UNL     1      11.495 -13.245  21.786  1.00  0.00     0.170 HD
ENDBRANCH  13  14
ENDBRANCH   3  13
ENDBRANCH   1   2
BRANCH   1  22
HETATM   22  C14 UNL     1      14.406 -16.165  21.490  1.00  0.00     0.034 C
HETATM   23  C15 UNL     1      13.148 -15.590  22.141  1.00  0.00     0.038 C
HETATM   24  C16 UNL     1      14.113 -17.609  21.164  1.00  0.00     0.038 C
BRANCH  22  25
HETATM   25  N5  UNL     1      15.533 -16.101  22.409  1.00  0.00    -0.350 N
HETATM   26  C17 UNL     1      16.829 -16.495  22.037  1.00  0.00     0.249 C
HETATM   27  O3  UNL     1      17.048 -16.917  20.887  1.00  0.00    -0.271 OA
ATOM     28  H5  UNL     1      15.375 -15.757  23.356  1.00  0.00     0.163 HD
BRANCH  26  29
HETATM   29  C18 UNL     1      17.938 -16.413  22.999  1.00  0.00     0.278 C
BRANCH  29  30
HETATM   30  N6  UNL     1      19.227 -16.616  22.429  1.00  0.00    -0.066 N
ATOM     31  H63 UNL     1      19.190 -17.347  21.718  1.00  0.00     0.275 HD
ATOM     32  H62 UNL     1      19.488 -15.820  21.847  1.00  0.00     0.275 HD
ATOM     33  H61 UNL     1      19.960 -16.816  23.108  1.00  0.00     0.275 HD
ENDBRANCH  29  30
BRANCH  29  34
HETATM   34  C19 UNL     1      17.828 -15.086  23.736  1.00  0.00     0.081 C
BRANCH  34  35
HETATM   35  C20 UNL     1      18.798 -15.040  24.872  1.00  0.00    -0.056 A
HETATM   36  C21 UNL     1      18.721 -15.957  25.891  1.00  0.00     0.010 A
HETATM   37  C22 UNL     1      19.617 -15.893  26.914  1.00  0.00     0.043 A
HETATM   38  C23 UNL     1      20.607 -14.941  26.976  1.00  0.00     0.116 A
HETATM   39  F1  UNL     1      21.467 -14.941  28.034  1.00  0.00    -0.206 F
HETATM   40  C24 UNL     1      20.697 -14.011  25.958  1.00  0.00     0.043 A
HETATM   41  C25 UNL     1      19.790 -14.084  24.931  1.00  0.00     0.010 A
ENDBRANCH  34  35
ENDBRANCH  29  34
ENDBRANCH  26  29
ENDBRANCH  22  25
ENDBRANCH   1  22
TORSDOF 11
ENDMDL