MODEL 5
REMARK VINA RESULT: -7.988115579      2.575      3.141
REMARK  10 active torsions:
REMARK  status: ('A' for Active; 'I' for Inactive)
REMARK    1  A    between atoms: N1_2  and  S1_4
REMARK    2  A    between atoms: S1_4  and  N2_7
REMARK    3  A    between atoms: N2_7  and  C3_9
REMARK    4  A    between atoms: C3_9  and  C4_10
REMARK    5  A    between atoms: C7_13  and  C8_14
REMARK    6  A    between atoms: C8_14  and  N3_15
REMARK    7  A    between atoms: N3_15  and  S2_17
REMARK    8  A    between atoms: S2_17  and  N4_20
REMARK    9  A    between atoms: N4_20  and  C9_22
REMARK   10  A    between atoms: C9_22  and  C10_23
ROOT
HETATM    1  C8  UNL     1      16.965 -14.640  21.930  1.00  0.00     0.172 C
ENDROOT
BRANCH   1   2
HETATM    2  C7  UNL     1      18.101 -14.632  22.881  1.00  0.00    -0.040 A
HETATM    3  C6  UNL     1      19.336 -14.242  22.438  1.00  0.00     0.009 A
HETATM    4  C5  UNL     1      20.423 -14.225  23.310  1.00  0.00     0.009 A
HETATM    5  C4  UNL     1      20.306 -14.594  24.633  1.00  0.00    -0.040 A
HETATM    6  C17 UNL     1      19.043 -14.987  25.064  1.00  0.00     0.009 A
HETATM    7  C16 UNL     1      17.961 -15.007  24.206  1.00  0.00     0.009 A
BRANCH   5   8
HETATM    8  C3  UNL     1      21.465 -14.570  25.535  1.00  0.00     0.171 C
BRANCH   8   9
HETATM    9  N2  UNL     1      22.687 -14.828  24.811  1.00  0.00    -0.302 N
ATOM     10  H2  UNL     1      23.294 -14.117  24.402  1.00  0.00     0.173 HD
BRANCH   9  11
HETATM   11  S1  UNL     1      22.955 -16.539  24.747  1.00  0.00     0.298 S
HETATM   12  O1  UNL     1      22.265 -17.165  23.571  1.00  0.00    -0.188 OA
HETATM   13  O2  UNL     1      22.296 -17.109  25.994  1.00  0.00    -0.188 OA
BRANCH  11  14
HETATM   14  N1  UNL     1      24.625 -16.908  24.780  1.00  0.00    -0.202 NA
HETATM   15  C1  UNL     1      24.808 -18.125  25.538  1.00  0.00     0.130 C
HETATM   16  C2  UNL     1      25.143 -17.028  23.439  1.00  0.00     0.130 C
ENDBRANCH  11  14
ENDBRANCH   9  11
ENDBRANCH   8   9
ENDBRANCH   5   8
ENDBRANCH   1   2
BRANCH   1  17
HETATM   17  N3  UNL     1      15.695 -14.550  22.561  1.00  0.00    -0.299 N
ATOM     18  H3  UNL     1      15.594 -14.234  23.525  1.00  0.00     0.174 HD
BRANCH  17  19
HETATM   19  S2  UNL     1      14.354 -14.996  21.620  1.00  0.00     0.315 S
HETATM   20  O3  UNL     1      14.430 -16.421  21.144  1.00  0.00    -0.183 OA
HETATM   21  O4  UNL     1      14.262 -14.150  20.359  1.00  0.00    -0.183 OA
BRANCH  19  22
HETATM   22  N4  UNL     1      12.906 -14.731  22.511  1.00  0.00    -0.299 N
ATOM     23  H4  UNL     1      12.693 -15.163  23.410  1.00  0.00     0.174 HD
BRANCH  22  24
HETATM   24  C9  UNL     1      12.034 -13.816  21.817  1.00  0.00     0.172 C
BRANCH  24  25
HETATM   25  C10 UNL     1      11.979 -12.521  22.544  1.00  0.00    -0.040 A
HETATM   26  C11 UNL     1      11.141 -12.350  23.623  1.00  0.00     0.010 A
HETATM   27  C12 UNL     1      11.103 -11.142  24.281  1.00  0.00     0.019 A
HETATM   28  C13 UNL     1      11.885 -10.083  23.893  1.00  0.00     0.011 A
HETATM   29 BR1  UNL     1      11.798  -8.430  24.839  1.00  0.00    -0.051 Br
HETATM   30  C14 UNL     1      12.717 -10.280  22.809  1.00  0.00     0.019 A
HETATM   31  C15 UNL     1      12.765 -11.488  22.140  1.00  0.00     0.010 A
ENDBRANCH  24  25
ENDBRANCH  22  24
ENDBRANCH  19  22
ENDBRANCH  17  19
ENDBRANCH   1  17
TORSDOF 10
ENDMDL