MODEL 5
REMARK VINA RESULT: -8.152869172      3.457      5.531
REMARK  11 active torsions:
REMARK  status: ('A' for Active; 'I' for Inactive)
REMARK    1  A    between atoms: N1_2  and  S1_4
REMARK    2  A    between atoms: S1_4  and  N2_7
REMARK    3  A    between atoms: N2_7  and  C3_9
REMARK    4  A    between atoms: C5_11  and  C6_12
REMARK    5  A    between atoms: C6_12  and  C7_13
REMARK    6  A    between atoms: C7_13  and  N3_14
REMARK    7  A    between atoms: N3_14  and  C8_16
REMARK    8  A    between atoms: C11_21  and  N5_22
REMARK    9  A    between atoms: N5_22  and  C12_24
REMARK   10  A    between atoms: C12_24  and  C13_25
REMARK   11  A    between atoms: C13_25  and  C14_26
ROOT
HETATM    1  C8  UNL     1      16.556 -16.575  22.098  1.00  0.00     0.118 A
HETATM    2  C9  UNL     1      16.691 -17.537  21.114  1.00  0.00     0.066 A
HETATM    3  C10 UNL     1      15.644 -17.819  20.282  1.00  0.00     0.110 A
HETATM    4  N4  UNL     1      14.497 -17.126  20.464  1.00  0.00    -0.202 N
ATOM      5  H4  UNL     1      13.699 -17.315  19.858  1.00  0.00     0.183 HD
HETATM    6  C11 UNL     1      14.386 -16.194  21.428  1.00  0.00     0.679 A
HETATM    7  N6  UNL     1      15.407 -15.918  22.240  1.00  0.00    -0.177 N
ATOM      8  H6  UNL     1      15.308 -15.209  22.966  1.00  0.00     0.185 HD
ENDROOT
BRANCH   1   9
HETATM    9  N3  UNL     1      17.543 -16.309  22.880  1.00  0.00    -0.376 N
ATOM     10  H3  UNL     1      18.311 -16.975  22.969  1.00  0.00     0.161 HD
BRANCH   9  11
HETATM   11  C7  UNL     1      17.577 -15.072  23.634  1.00  0.00     0.126 C
BRANCH  11  12
HETATM   12  C6  UNL     1      18.793 -14.303  23.144  1.00  0.00     0.060 C
BRANCH  12  13
HETATM   13  C5  UNL     1      18.607 -13.818  21.760  1.00  0.00    -0.039 A
HETATM   14  C4  UNL     1      17.408 -13.129  21.312  1.00  0.00     0.040 A
HETATM   15  C3  UNL     1      17.239 -12.690  20.067  1.00  0.00     0.059 A
HETATM   16  C21 UNL     1      18.335 -12.934  19.135  1.00  0.00     0.117 A
HETATM   17  N7  UNL     1      19.406 -13.545  19.518  1.00  0.00    -0.373 N
HETATM   18  C20 UNL     1      19.568 -14.011  20.874  1.00  0.00     0.095 A
ATOM     19  H7  UNL     1      20.157 -13.701  18.845  1.00  0.00     0.164 HD
BRANCH  15  20
HETATM   20  N2  UNL     1      16.054 -12.019  19.659  1.00  0.00    -0.267 N
ATOM     21  H2  UNL     1      15.875 -11.058  19.951  1.00  0.00     0.180 HD
BRANCH  20  22
HETATM   22  S1  UNL     1      14.938 -12.848  18.673  1.00  0.00     0.320 S
HETATM   23  O1  UNL     1      15.005 -14.323  19.035  1.00  0.00    -0.182 OA
HETATM   24  O2  UNL     1      13.554 -12.396  19.070  1.00  0.00    -0.182 OA
BRANCH  22  25
HETATM   25  N1  UNL     1      15.210 -12.713  17.010  1.00  0.00    -0.303 N
HETATM   26  C1  UNL     1      16.147 -11.731  16.591  1.00  0.00     0.163 C
HETATM   27  C2  UNL     1      15.173 -13.921  16.256  1.00  0.00     0.163 C
ENDBRANCH  22  25
ENDBRANCH  20  22
ENDBRANCH  15  20
ENDBRANCH  12  13
ENDBRANCH  11  12
ENDBRANCH   9  11
ENDBRANCH   1   9
BRANCH   6  28
HETATM   28  N5  UNL     1      13.273 -15.560  21.564  1.00  0.00    -0.226 N
ATOM     29  H5  UNL     1      12.410 -15.977  21.216  1.00  0.00     0.177 HD
BRANCH  28  30
HETATM   30  C12 UNL     1      13.229 -14.246  22.212  1.00  0.00     0.142 C
BRANCH  30  31
HETATM   31  C13 UNL     1      11.916 -13.575  21.891  1.00  0.00     0.058 C
BRANCH  31  32
HETATM   32  C14 UNL     1      11.880 -12.298  22.672  1.00  0.00    -0.057 A
HETATM   33  C15 UNL     1      11.084 -12.124  23.775  1.00  0.00     0.009 A
HETATM   34  C16 UNL     1      11.080 -10.943  24.456  1.00  0.00     0.024 A
HETATM   35  C17 UNL     1      11.889  -9.925  24.021  1.00  0.00     0.034 A
HETATM   36 CL1  UNL     1      11.832  -8.425  24.955  1.00  0.00    -0.084 Cl
HETATM   37  C18 UNL     1      12.689 -10.076  22.926  1.00  0.00     0.024 A
HETATM   38  C19 UNL     1      12.689 -11.279  22.236  1.00  0.00     0.009 A
ENDBRANCH  31  32
ENDBRANCH  30  31
ENDBRANCH  28  30
ENDBRANCH   6  28
TORSDOF 11
ENDMDL