MODEL 1
REMARK VINA RESULT: -8.712496441      0.000      0.000
REMARK  10 active torsions:
REMARK  status: ('A' for Active; 'I' for Inactive)
REMARK    1  A    between atoms: N1_1  and  C1_5
REMARK    2  A    between atoms: C2_8  and  C3_9
REMARK    3  A    between atoms: C3_9  and  C4_10
REMARK    4  A    between atoms: C12_18  and  C13_19
REMARK    5  A    between atoms: C13_19  and  C14_20
REMARK    6  A    between atoms: C14_20  and  C15_21
REMARK    7  A    between atoms: C15_21  and  C16_22
REMARK    8  A    between atoms: C16_22  and  C17_23
REMARK    9  A    between atoms: C17_23  and  C18_24
REMARK   10  A    between atoms: C18_24  and  N3_25
ROOT
HETATM    1  C1  UNL     1      20.480 -17.996  22.390  1.00  0.00     0.387 A
HETATM    2  N2  UNL     1      20.269 -16.701  22.947  1.00  0.00    -0.349 N
ATOM      3  H2  UNL     1      20.988 -16.277  23.533  1.00  0.00     0.163 HD
HETATM    4  C2  UNL     1      19.056 -15.999  22.689  1.00  0.00     0.024 A
HETATM    5  C10 UNL     1      18.077 -16.527  21.924  1.00  0.00     0.014 A
HETATM    6  C11 UNL     1      16.913 -15.839  21.683  1.00  0.00     0.024 A
HETATM    7  C12 UNL     1      15.934 -16.410  20.895  1.00  0.00    -0.035 A
HETATM    8  C24 UNL     1      16.139 -17.657  20.363  1.00  0.00     0.042 A
HETATM    9 CL1  UNL     1      14.904 -18.412  19.350  1.00  0.00    -0.084 Cl
HETATM   10  C25 UNL     1      17.292 -18.353  20.594  1.00  0.00     0.054 A
HETATM   11  C26 UNL     1      18.304 -17.793  21.393  1.00  0.00     0.044 A
HETATM   12  N7  UNL     1      19.374 -18.443  21.603  1.00  0.00    -0.346 N
ATOM     13  H7  UNL     1      19.451 -19.365  21.173  1.00  0.00     0.163 HD
ENDROOT
BRANCH   7  14
HETATM   14  C13 UNL     1      14.688 -15.656  20.658  1.00  0.00     0.040 C
BRANCH  14  15
HETATM   15  C14 UNL     1      13.667 -15.877  21.752  1.00  0.00     0.005 C
BRANCH  15  16
HETATM   16  C15 UNL     1      12.549 -14.874  21.578  1.00  0.00     0.000 C
BRANCH  16  17
HETATM   17  C16 UNL     1      12.808 -13.621  22.385  1.00  0.00     0.002 C
BRANCH  17  18
HETATM   18  C17 UNL     1      12.653 -12.383  21.552  1.00  0.00     0.022 C
BRANCH  18  19
HETATM   19  C18 UNL     1      13.934 -11.589  21.455  1.00  0.00     0.151 C
BRANCH  19  20
HETATM   20  N3  UNL     1      14.631 -12.073  20.275  1.00  0.00    -0.275 N
HETATM   21  N4  UNL     1      13.945 -12.310  19.173  1.00  0.00    -0.308 N
HETATM   22  C19 UNL     1      14.502 -12.759  18.028  1.00  0.00     0.110 A
ATOM     23  H4  UNL     1      12.938 -12.145  19.187  1.00  0.00     0.186 HD
HETATM   24  C20 UNL     1      15.858 -13.001  17.946  1.00  0.00     0.052 A
HETATM   25  C21 UNL     1      16.588 -12.757  19.093  1.00  0.00     0.080 A
HETATM   26  N5  UNL     1      17.908 -12.888  19.347  1.00  0.00    -0.349 N
HETATM   27  C23 UNL     1      15.950 -12.292  20.247  1.00  0.00     0.150 A
HETATM   28  C22 UNL     1      18.089 -12.519  20.620  1.00  0.00     0.182 A
ATOM     29  H5  UNL     1      18.626 -13.207  18.696  1.00  0.00     0.166 HD
HETATM   30  N6  UNL     1      16.912 -12.155  21.175  1.00  0.00    -0.336 N
ATOM     31  H6  UNL     1      16.777 -11.832  22.134  1.00  0.00     0.168 HD
ENDBRANCH  19  20
ENDBRANCH  18  19
ENDBRANCH  17  18
ENDBRANCH  16  17
ENDBRANCH  15  16
ENDBRANCH  14  15
ENDBRANCH   7  14
BRANCH   4  32
HETATM   32  C3  UNL     1      18.920 -14.668  23.301  1.00  0.00     0.096 C
BRANCH  32  33
HETATM   33  C4  UNL     1      19.396 -14.804  24.736  1.00  0.00    -0.053 A
HETATM   34  C5  UNL     1      20.313 -13.892  25.229  1.00  0.00     0.007 A
HETATM   35  C6  UNL     1      20.775 -13.947  26.509  1.00  0.00     0.001 A
HETATM   36  C7  UNL     1      20.303 -14.948  27.323  1.00  0.00     0.000 A
HETATM   37  C8  UNL     1      19.393 -15.871  26.869  1.00  0.00     0.001 A
HETATM   38  C9  UNL     1      18.948 -15.785  25.570  1.00  0.00     0.007 A
ENDBRANCH  32  33
ENDBRANCH   4  32
BRANCH   1  39
HETATM   39  N1  UNL     1      20.552 -18.925  23.539  1.00  0.00    -0.041 N
ATOM     40  H13 UNL     1      20.324 -18.488  24.432  1.00  0.00     0.279 HD
ATOM     41  H12 UNL     1      19.804 -19.620  23.548  1.00  0.00     0.279 HD
ATOM     42  H11 UNL     1      21.486 -19.333  23.511  1.00  0.00     0.279 HD
ENDBRANCH   1  39
TORSDOF 10
ENDMDL