MODEL 3
REMARK VINA RESULT: -8.948347588      2.716      4.226
REMARK  10 active torsions:
REMARK  status: ('A' for Active; 'I' for Inactive)
REMARK    1  A    between atoms: O1_2  and  C2_3
REMARK    2  A    between atoms: C5_6  and  C6_7
REMARK    3  A    between atoms: C6_7  and  C7_8
REMARK    4  A    between atoms: C7_8  and  N1_9
REMARK    5  A    between atoms: C7_8  and  C21_32
REMARK    6  A    between atoms: N1_9  and  S1_11
REMARK    7  A    between atoms: S1_11  and  N2_14
REMARK    8  A    between atoms: N2_14  and  C8_16
REMARK    9  A    between atoms: C13_23  and  C14_24
REMARK   10  A    between atoms: C14_24  and  C15_25
ROOT
HETATM    1  S1  UNL     1      13.679 -15.711  21.996  1.00  0.00     0.321 S
HETATM    2  O2  UNL     1      13.244 -17.036  22.612  1.00  0.00    -0.182 OA
HETATM    3  O3  UNL     1      13.476 -15.851  20.509  1.00  0.00    -0.182 OA
ENDROOT
BRANCH   1   4
HETATM    4  N1  UNL     1      12.725 -14.474  22.664  1.00  0.00    -0.289 N
ATOM      5  H1  UNL     1      12.219 -14.585  23.542  1.00  0.00     0.174 HD
BRANCH   4   6
HETATM    6  C7  UNL     1      12.686 -13.273  21.907  1.00  0.00     0.187 C
BRANCH   6   7
HETATM    7  C6  UNL     1      13.933 -12.492  21.757  1.00  0.00     0.073 C
BRANCH   7   8
HETATM    8  C5  UNL     1      14.602 -12.517  20.456  1.00  0.00    -0.056 A
HETATM    9  C4  UNL     1      15.986 -12.522  20.332  1.00  0.00     0.010 A
HETATM   10  C3  UNL     1      16.596 -12.577  19.092  1.00  0.00     0.037 A
HETATM   11  C2  UNL     1      15.862 -12.628  17.928  1.00  0.00     0.068 A
HETATM   12  C23 UNL     1      14.489 -12.621  18.042  1.00  0.00     0.037 A
HETATM   13  C22 UNL     1      13.879 -12.567  19.282  1.00  0.00     0.010 A
BRANCH  11  14
HETATM   14  O1  UNL     1      16.462 -12.683  16.674  1.00  0.00    -0.356 OA
HETATM   15  C1  UNL     1      16.822 -11.491  16.003  1.00  0.00     0.210 C
ENDBRANCH  11  14
ENDBRANCH   7   8
ENDBRANCH   6   7
BRANCH   6  16
HETATM   16  C21 UNL     1      11.674 -12.302  22.502  1.00  0.00     0.254 C
HETATM   17  N4  UNL     1      11.557 -10.971  22.061  1.00  0.00    -0.060 NA
HETATM   18  O4  UNL     1      10.935 -12.720  23.408  1.00  0.00    -0.275 OA
ENDBRANCH   6  16
ENDBRANCH   4   6
ENDBRANCH   1   4
BRANCH   1  19
HETATM   19  N2  UNL     1      15.325 -15.504  22.334  1.00  0.00    -0.252 N
ATOM     20  H2  UNL     1      15.574 -14.687  22.891  1.00  0.00     0.182 HD
BRANCH  19  21
HETATM   21  C8  UNL     1      16.279 -16.250  21.972  1.00  0.00     0.122 A
HETATM   22  N3  UNL     1      16.069 -17.457  21.413  1.00  0.00    -0.345 N
HETATM   23  C9  UNL     1      17.090 -18.262  21.007  1.00  0.00     0.007 A
ATOM     24  H3  UNL     1      15.110 -17.780  21.289  1.00  0.00     0.167 HD
HETATM   25  C10 UNL     1      16.796 -19.593  20.392  1.00  0.00     0.068 C
HETATM   26  C11 UNL     1      18.391 -17.853  21.159  1.00  0.00     0.025 A
HETATM   27  C12 UNL     1      18.649 -16.642  21.719  1.00  0.00     0.013 A
HETATM   28  C13 UNL     1      17.582 -15.834  22.130  1.00  0.00    -0.009 A
BRANCH  28  29
HETATM   29  C14 UNL     1      17.972 -14.555  22.760  1.00  0.00     0.081 C
BRANCH  29  30
HETATM   30  C15 UNL     1      18.730 -14.773  24.031  1.00  0.00    -0.054 A
HETATM   31  C16 UNL     1      19.906 -14.108  24.262  1.00  0.00     0.010 A
HETATM   32  C17 UNL     1      20.606 -14.309  25.459  1.00  0.00     0.043 A
HETATM   33  C18 UNL     1      20.136 -15.172  26.423  1.00  0.00     0.116 A
HETATM   34  F1  UNL     1      20.799 -15.387  27.598  1.00  0.00    -0.206 F
HETATM   35  C19 UNL     1      18.949 -15.831  26.165  1.00  0.00     0.043 A
HETATM   36  C20 UNL     1      18.247 -15.647  24.998  1.00  0.00     0.010 A
ENDBRANCH  29  30
ENDBRANCH  28  29
ENDBRANCH  19  21
ENDBRANCH   1  19
TORSDOF 10
ENDMDL