MODEL 1
REMARK VINA RESULT: -8.791169652      0.000      0.000
REMARK  13 active torsions:
REMARK  status: ('A' for Active; 'I' for Inactive)
REMARK    1  A    between atoms: C2_2  and  S1_3
REMARK    2  A    between atoms: S1_3  and  N1_6
REMARK    3  A    between atoms: N1_6  and  C3_8
REMARK    4  A    between atoms: C3_8  and  C4_9
REMARK    5  A    between atoms: C4_9  and  C5_10
REMARK    6  A    between atoms: C5_10  and  C6_11
REMARK    7  A    between atoms: C6_11  and  N2_12
REMARK    8  A    between atoms: C6_11  and  C7_17
REMARK    9  A    between atoms: C6_11  and  C13_23
REMARK   10  A    between atoms: C17_27  and  C18_28
REMARK   11  A    between atoms: C19_29  and  C20_30
REMARK   12  A    between atoms: C20_30  and  O3_32
REMARK   13  A    between atoms: C20_30  and  C22_34
ROOT
HETATM    1  C22 UNL     1      21.320 -16.332  25.392  1.00  0.00     0.174 C
HETATM    2  C23 UNL     1      22.329 -16.780  24.430  1.00  0.00     0.063 C
HETATM    3  N4  UNL     1      23.124 -17.140  23.679  1.00  0.00    -0.197 NA
ENDROOT
BRANCH   1   4
HETATM    4  C20 UNL     1      21.248 -14.829  25.306  1.00  0.00     0.129 C
HETATM    5  C21 UNL     1      20.571 -14.275  26.545  1.00  0.00     0.061 C
BRANCH   4   6
HETATM    6  C19 UNL     1      20.496 -14.499  24.094  1.00  0.00    -0.062 C
HETATM    7  C18 UNL     1      19.880 -14.205  23.079  1.00  0.00    -0.064 C
BRANCH   7   8
HETATM    8  C17 UNL     1      19.159 -13.835  21.895  1.00  0.00     0.018 A
HETATM    9  C16 UNL     1      19.817 -13.458  20.720  1.00  0.00     0.020 A
HETATM   10  C15 UNL     1      19.124 -13.104  19.591  1.00  0.00     0.002 A
HETATM   11  C14 UNL     1      17.753 -13.120  19.609  1.00  0.00     0.010 A
HETATM   12  C13 UNL     1      17.029 -13.487  20.751  1.00  0.00    -0.023 A
HETATM   13  C24 UNL     1      17.785 -13.830  21.847  1.00  0.00     0.030 A
BRANCH  12  14
HETATM   14  C6  UNL     1      15.588 -13.469  20.651  1.00  0.00     0.099 C
BRANCH  14  15
HETATM   15  C5  UNL     1      14.810 -13.602  21.909  1.00  0.00     0.044 C
BRANCH  15  16
HETATM   16  C4  UNL     1      13.416 -14.131  21.643  1.00  0.00     0.023 C
BRANCH  16  17
HETATM   17  C3  UNL     1      12.351 -13.081  21.738  1.00  0.00     0.132 C
BRANCH  17  18
HETATM   18  N1  UNL     1      12.307 -12.440  23.020  1.00  0.00    -0.316 N
ATOM     19  H1  UNL     1      12.394 -12.935  23.908  1.00  0.00     0.172 HD
BRANCH  18  20
HETATM   20  S1  UNL     1      12.089 -10.730  22.881  1.00  0.00     0.247 S
HETATM   21  O1  UNL     1      11.243 -10.371  21.692  1.00  0.00    -0.201 OA
HETATM   22  O2  UNL     1      13.465 -10.132  22.643  1.00  0.00    -0.201 OA
BRANCH  20  23
HETATM   23  C2  UNL     1      11.482 -10.051  24.357  1.00  0.00     0.121 C
HETATM   24  C1  UNL     1      11.851  -8.843  24.734  1.00  0.00     0.025 C
ENDBRANCH  20  23
ENDBRANCH  18  20
ENDBRANCH  17  18
ENDBRANCH  16  17
ENDBRANCH  15  16
ENDBRANCH  14  15
BRANCH  14  25
HETATM   25  N2  UNL     1      15.141 -12.283  19.985  1.00  0.00    -0.324 N
HETATM   26  N3  UNL     1      15.025 -11.177  20.529  1.00  0.00    -0.348 N
ATOM     27  H32 UNL     1      15.268 -11.124  21.518  1.00  0.00     0.176 HD
ATOM     28  H31 UNL     1      14.706 -10.332  20.055  1.00  0.00     0.176 HD
ATOM     29  H2  UNL     1      14.903 -12.354  18.996  1.00  0.00     0.181 HD
ENDBRANCH  14  25
BRANCH  14  30
HETATM   30  C7  UNL     1      15.218 -14.625  19.754  1.00  0.00    -0.024 A
HETATM   31  C8  UNL     1      14.620 -14.320  18.549  1.00  0.00     0.010 A
HETATM   32  C9  UNL     1      14.245 -15.307  17.672  1.00  0.00     0.001 A
HETATM   33  C10 UNL     1      14.458 -16.618  17.976  1.00  0.00     0.000 A
HETATM   34  C11 UNL     1      15.055 -16.924  19.178  1.00  0.00     0.001 A
HETATM   35  C12 UNL     1      15.427 -15.929  20.053  1.00  0.00     0.010 A
ENDBRANCH  14  30
ENDBRANCH  12  14
ENDBRANCH   7   8
ENDBRANCH   4   6
BRANCH   4  36
HETATM   36  O3  UNL     1      22.539 -14.272  25.280  1.00  0.00    -0.377 OA
ATOM     37  H3  UNL     1      22.818 -13.997  26.146  1.00  0.00     0.211 HD
ENDBRANCH   4  36
ENDBRANCH   1   4
TORSDOF 13
ENDMDL