MODEL 3
REMARK VINA RESULT: -7.990708448      2.907      7.831
REMARK  9 active torsions:
REMARK  status: ('A' for Active; 'I' for Inactive)
REMARK    1  A    between atoms: C1_2  and  C2_4
REMARK    2  A    between atoms: C5_7  and  C6_8
REMARK    3  A    between atoms: C6_8  and  N2_9
REMARK    4  A    between atoms: C10_13  and  C11_14
REMARK       I    between atoms: C11_14  and  N3_16
REMARK    5  A    between atoms: N3_16  and  C12_18
REMARK    6  A    between atoms: C12_18  and  C13_19
REMARK    7  A    between atoms: C13_19  and  C14_20
REMARK    8  A    between atoms: C14_20  and  N4_21
REMARK    9  A    between atoms: N4_21  and  C15_23
ROOT
HETATM    1  C11 UNL     1      15.706 -12.869  20.192  1.00  0.00     0.253 C
HETATM    2  O2  UNL     1      15.284 -11.695  20.338  1.00  0.00    -0.268 OA
HETATM    3  N3  UNL     1      14.807 -13.890  19.826  1.00  0.00    -0.357 N
ATOM      4  H3  UNL     1      15.173 -14.835  19.712  1.00  0.00     0.162 HD
ENDROOT
BRANCH   1   5
HETATM    5  C10 UNL     1      17.112 -13.129  20.409  1.00  0.00     0.047 A
HETATM    6  C9  UNL     1      18.014 -13.009  19.344  1.00  0.00     0.020 A
HETATM    7  C8  UNL     1      19.358 -13.241  19.483  1.00  0.00     0.018 A
HETATM    8  C7  UNL     1      19.820 -13.608  20.738  1.00  0.00     0.090 A
HETATM    9  N2  UNL     1      18.981 -13.730  21.772  1.00  0.00    -0.361 N
HETATM   10  C19 UNL     1      17.661 -13.497  21.612  1.00  0.00     0.107 A
BRANCH   9  11
HETATM   11  C6  UNL     1      19.470 -14.111  23.076  1.00  0.00     0.166 C
BRANCH  11  12
HETATM   12  C5  UNL     1      18.744 -15.317  23.548  1.00  0.00    -0.040 A
HETATM   13  C4  UNL     1      18.296 -15.334  24.843  1.00  0.00     0.010 A
HETATM   14  C3  UNL     1      17.621 -16.451  25.288  1.00  0.00     0.017 A
HETATM   15  C2  UNL     1      17.394 -17.535  24.455  1.00  0.00     0.029 A
HETATM   16  C21 UNL     1      17.857 -17.481  23.163  1.00  0.00     0.017 A
HETATM   17  C20 UNL     1      18.533 -16.367  22.716  1.00  0.00     0.010 A
BRANCH  15  18
HETATM   18  C1  UNL     1      16.682 -18.700  24.941  1.00  0.00     0.264 C
HETATM   19  N1  UNL     1      15.506 -19.123  24.298  1.00  0.00    -0.057 NA
HETATM   20  O1  UNL     1      17.123 -19.319  25.932  1.00  0.00    -0.271 OA
ENDBRANCH  15  18
ENDBRANCH  11  12
ENDBRANCH   9  11
ENDBRANCH   1   5
BRANCH   3  21
HETATM   21  C12 UNL     1      13.407 -13.676  19.605  1.00  0.00     0.124 C
BRANCH  21  22
HETATM   22  C13 UNL     1      12.530 -14.665  20.314  1.00  0.00     0.039 C
BRANCH  22  23
HETATM   23  C14 UNL     1      12.681 -14.487  21.825  1.00  0.00     0.123 C
BRANCH  23  24
HETATM   24  N4  UNL     1      11.481 -13.896  22.385  1.00  0.00    -0.375 N
ATOM     25  H4  UNL     1      10.603 -14.414  22.358  1.00  0.00     0.161 HD
BRANCH  24  26
HETATM   26  C15 UNL     1      11.512 -12.723  22.915  1.00  0.00     0.115 A
HETATM   27  C16 UNL     1      12.449 -11.780  22.548  1.00  0.00     0.052 A
HETATM   28  C17 UNL     1      12.489 -10.523  23.112  1.00  0.00     0.042 A
HETATM   29  C18 UNL     1      11.556 -10.206  24.076  1.00  0.00     0.094 A
HETATM   30 BR1  UNL     1      11.555  -8.468  24.905  1.00  0.00    -0.030 Br
HETATM   31  N5  UNL     1      10.650 -11.138  24.423  1.00  0.00    -0.292 N
HETATM   32  N6  UNL     1      10.629 -12.357  23.860  1.00  0.00    -0.285 N
ATOM     33  H5  UNL     1       9.956 -10.912  25.136  1.00  0.00     0.187 HD
ATOM     34  H6  UNL     1       9.921 -13.027  24.159  1.00  0.00     0.188 HD
ENDBRANCH  24  26
ENDBRANCH  23  24
ENDBRANCH  22  23
ENDBRANCH  21  22
ENDBRANCH   3  21
TORSDOF 9
ENDMDL