MODEL 2
REMARK VINA RESULT: -7.529941384      1.056      1.538
REMARK  11 active torsions:
REMARK  status: ('A' for Active; 'I' for Inactive)
REMARK    1  A    between atoms: C2_2  and  N1_3
REMARK       I    between atoms: N1_3  and  C4_5
REMARK    2  A    between atoms: C4_5  and  C5_7
REMARK    3  A    between atoms: C5_7  and  C6_8
REMARK    4  A    between atoms: C6_8  and  C7_9
REMARK    5  A    between atoms: C7_9  and  C8_10
REMARK    6  A    between atoms: C12_15  and  C13_16
REMARK    7  A    between atoms: C14_17  and  C15_18
REMARK    8  A    between atoms: C17_22  and  N3_23
REMARK    9  A    between atoms: N3_23  and  C18_25
REMARK   10  A    between atoms: C18_25  and  C19_26
REMARK   11  A    between atoms: C19_26  and  N4_27
ROOT
HETATM    1  C13 UNL     1      17.125 -14.304  22.195  1.00  0.00    -0.060 C
HETATM    2  C14 UNL     1      17.980 -14.665  22.970  1.00  0.00    -0.059 C
ENDROOT
BRANCH   2   3
HETATM    3  C15 UNL     1      18.990 -15.117  23.888  1.00  0.00     0.050 A
HETATM    4  C16 UNL     1      20.293 -14.673  23.813  1.00  0.00     0.128 A
HETATM    5  N2  UNL     1      21.224 -15.107  24.680  1.00  0.00    -0.201 N
HETATM    6  C17 UNL     1      20.927 -16.000  25.668  1.00  0.00     0.677 A
ATOM      7  H2  UNL     1      22.179 -14.759  24.598  1.00  0.00     0.183 HD
HETATM    8  N7  UNL     1      19.665 -16.445  25.758  1.00  0.00    -0.201 N
HETATM    9  C21 UNL     1      18.716 -16.025  24.902  1.00  0.00     0.128 A
ATOM     10  H7  UNL     1      19.420 -17.113  26.489  1.00  0.00     0.183 HD
BRANCH   6  11
HETATM   11  N3  UNL     1      21.837 -16.399  26.484  1.00  0.00    -0.224 N
ATOM     12  H3  UNL     1      22.239 -15.690  27.097  1.00  0.00     0.177 HD
BRANCH  11  13
HETATM   13  C18 UNL     1      22.345 -17.718  26.627  1.00  0.00     0.157 C
BRANCH  13  14
HETATM   14  C19 UNL     1      23.707 -17.903  25.989  1.00  0.00     0.142 C
BRANCH  14  15
HETATM   15  N4  UNL     1      23.524 -18.372  24.618  1.00  0.00    -0.365 N
HETATM   16  C20 UNL     1      23.655 -17.570  23.596  1.00  0.00     0.197 C
HETATM   17  N5  UNL     1      23.983 -16.206  23.790  1.00  0.00    -0.067 NA
HETATM   18  N6  UNL     1      23.449 -18.159  22.317  1.00  0.00    -0.067 NA
ATOM     19  H4  UNL     1      23.287 -19.351  24.454  1.00  0.00     0.161 HD
ENDBRANCH  14  15
ENDBRANCH  13  14
ENDBRANCH  11  13
ENDBRANCH   6  11
ENDBRANCH   2   3
BRANCH   1  20
HETATM   20  C12 UNL     1      16.101 -13.897  21.273  1.00  0.00     0.035 A
HETATM   21  C11 UNL     1      16.384 -13.324  20.045  1.00  0.00     0.029 A
HETATM   22  C10 UNL     1      15.413 -12.930  19.150  1.00  0.00     0.021 A
HETATM   23 BR1  UNL     1      18.232 -13.072  19.576  1.00  0.00    -0.050 Br
HETATM   24  C9  UNL     1      14.084 -13.129  19.527  1.00  0.00     0.008 A
HETATM   25  C8  UNL     1      13.775 -13.694  20.737  1.00  0.00    -0.057 A
HETATM   26  C22 UNL     1      14.764 -14.080  21.613  1.00  0.00     0.029 A
BRANCH  25  27
HETATM   27  C7  UNL     1      12.344 -13.887  21.093  1.00  0.00     0.039 C
BRANCH  27  28
HETATM   28  C6  UNL     1      12.206 -13.642  22.556  1.00  0.00     0.014 C
BRANCH  28  29
HETATM   29  C5  UNL     1      10.997 -12.875  22.961  1.00  0.00     0.103 C
BRANCH  29  30
HETATM   30  C4  UNL     1      11.227 -11.746  23.875  1.00  0.00     0.219 C
HETATM   31  N1  UNL     1      11.687 -10.505  23.375  1.00  0.00    -0.357 N
HETATM   32  C3  UNL     1      11.910  -9.392  24.276  1.00  0.00     0.152 C
HETATM   33  O1  UNL     1      11.016 -11.868  25.095  1.00  0.00    -0.273 OA
BRANCH  31  34
HETATM   34  C2  UNL     1      11.958 -10.272  21.969  1.00  0.00     0.120 C
HETATM   35  C1  UNL     1      13.434 -10.291  21.747  1.00  0.00     0.026 C
ENDBRANCH  31  34
ENDBRANCH  29  30
ENDBRANCH  28  29
ENDBRANCH  27  28
ENDBRANCH  25  27
ENDBRANCH   1  20
TORSDOF 11
ENDMDL