MODEL 4
REMARK VINA RESULT: -6.538285446      4.752     11.359
REMARK  13 active torsions:
REMARK  status: ('A' for Active; 'I' for Inactive)
REMARK    1  A    between atoms: C2_2  and  C3_3
REMARK    2  A    between atoms: C3_3  and  C4_4
REMARK    3  A    between atoms: C4_4  and  C5_5
REMARK    4  A    between atoms: C5_5  and  C6_6
REMARK    5  A    between atoms: C7_7  and  C8_8
REMARK    6  A    between atoms: C8_8  and  C9_9
REMARK    7  A    between atoms: C19_20  and  C20_21
REMARK    8  A    between atoms: C20_21  and  C21_22
REMARK    9  A    between atoms: C21_22  and  C22_23
REMARK   10  A    between atoms: C22_23  and  C23_24
REMARK   11  A    between atoms: C23_24  and  C24_25
REMARK   12  A    between atoms: C26_32  and  C27_33
REMARK   13  A    between atoms: C27_33  and  C28_34
ROOT
HETATM    1  C9  UNL     1       9.228  24.073   3.367  1.00  0.00     0.081 C
HETATM    2  C10 UNL     1       9.500  25.324   4.092  1.00  0.00     0.014 C
HETATM    3  C11 UNL     1       8.915  25.310   5.518  1.00  0.00     0.001 C
HETATM    4  C12 UNL     1       8.643  26.729   5.937  1.00  0.00     0.004 C
HETATM    5  C13 UNL     1       9.304  27.096   7.247  1.00  0.00     0.027 C
HETATM    6  C14 UNL     1       9.496  25.907   8.119  1.00  0.00    -0.030 C
HETATM    7  C15 UNL     1      10.571  25.712   8.868  1.00  0.00    -0.021 C
HETATM    8  C16 UNL     1      11.732  26.637   8.949  1.00  0.00     0.100 C
HETATM    9  S1  UNL     1      12.966  26.162   7.716  1.00  0.00    -0.165 SA
HETATM   10  C17 UNL     1      14.097  24.877   8.373  1.00  0.00     0.076 C
HETATM   11  C18 UNL     1      13.477  23.509   8.263  1.00  0.00     0.035 C
HETATM   12  C19 UNL     1      14.263  22.528   7.463  1.00  0.00     0.085 C
HETATM   13  N1  UNL     1      13.530  21.866   6.404  1.00  0.00    -0.355 N
ATOM     14  H1  UNL     1      13.851  20.924   6.183  1.00  0.00     0.162 HD
HETATM   15  C25 UNL     1      12.461  22.310   5.643  1.00  0.00     0.241 C
HETATM   16  O3  UNL     1      11.378  21.612   5.671  1.00  0.00    -0.271 OA
HETATM   17  C26 UNL     1      12.356  23.506   4.766  1.00  0.00     0.186 C
HETATM   18  N2  UNL     1      11.655  23.121   3.559  1.00  0.00    -0.347 N
ATOM     19  H2  UNL     1      12.253  22.860   2.775  1.00  0.00     0.163 HD
HETATM   20  C29 UNL     1      10.284  23.053   3.307  1.00  0.00     0.222 C
HETATM   21  O6  UNL     1       9.828  21.893   2.951  1.00  0.00    -0.273 OA
ENDROOT
BRANCH   1  22
HETATM   22  C8  UNL     1       8.841  24.348   1.919  1.00  0.00     0.041 C
BRANCH  22  23
HETATM   23  C7  UNL     1       8.214  25.629   1.666  1.00  0.00    -0.030 C
HETATM   24  C6  UNL     1       6.995  25.724   1.182  1.00  0.00    -0.031 C
BRANCH  24  25
HETATM   25  C5  UNL     1       6.058  24.666   0.813  1.00  0.00     0.027 C
BRANCH  25  26
HETATM   26  C4  UNL     1       4.847  24.752   1.738  1.00  0.00     0.007 C
BRANCH  26  27
HETATM   27  C3  UNL     1       5.192  24.187   3.092  1.00  0.00     0.026 C
BRANCH  27  28
HETATM   28  C2  UNL     1       4.716  25.107   4.145  1.00  0.00    -0.037 C
HETATM   29  C1  UNL     1       5.321  26.259   4.352  1.00  0.00     0.007 C
ENDBRANCH  27  28
ENDBRANCH  26  27
ENDBRANCH  25  26
ENDBRANCH  24  25
ENDBRANCH  22  23
ENDBRANCH   1  22
BRANCH  17  30
HETATM   30  C27 UNL     1      13.725  24.060   4.409  1.00  0.00     0.147 C
BRANCH  30  31
HETATM   31  C28 UNL     1      14.587  22.970   3.878  1.00  0.00     0.175 C
HETATM   32  O4  UNL     1      15.676  22.715   4.457  1.00  0.00    -0.648 OA
HETATM   33  O5  UNL     1      14.183  22.243   2.747  1.00  0.00    -0.648 OA
ENDBRANCH  30  31
ENDBRANCH  17  30
BRANCH  12  34
HETATM   34  C20 UNL     1      14.773  21.466   8.461  1.00  0.00     0.025 C
BRANCH  34  35
HETATM   35  C21 UNL     1      15.888  22.008   9.317  1.00  0.00     0.002 C
BRANCH  35  36
HETATM   36  C22 UNL     1      17.007  22.429   8.400  1.00  0.00     0.010 C
BRANCH  36  37
HETATM   37  C23 UNL     1      18.248  21.620   8.498  1.00  0.00     0.113 C
BRANCH  37  38
HETATM   38  C24 UNL     1      18.519  20.708   7.384  1.00  0.00     0.172 C
HETATM   39  O1  UNL     1      19.619  20.663   6.826  1.00  0.00    -0.648 OA
HETATM   40  O2  UNL     1      17.525  19.857   6.923  1.00  0.00    -0.648 OA
ENDBRANCH  37  38
ENDBRANCH  36  37
ENDBRANCH  35  36
ENDBRANCH  34  35
ENDBRANCH  12  34
TORSDOF 13
ENDMDL