MODEL 3
REMARK VINA RESULT: -8.386033273      1.413      3.415
REMARK  16 active torsions:
REMARK  status: ('A' for Active; 'I' for Inactive)
REMARK    1  A    between atoms: C2_2  and  C3_3
REMARK    2  A    between atoms: C3_3  and  C4_4
REMARK    3  A    between atoms: C4_4  and  C5_5
REMARK    4  A    between atoms: C5_5  and  C6_6
REMARK    5  A    between atoms: C7_7  and  C9_9
REMARK    6  A    between atoms: C10_10  and  C11_11
REMARK    7  A    between atoms: C15_16  and  O2_17
REMARK    8  A    between atoms: C16_19  and  C17_20
REMARK    9  A    between atoms: C17_20  and  O3_21
REMARK   10  A    between atoms: C24_29  and  C25_30
REMARK   11  A    between atoms: C26_31  and  C27_32
REMARK   12  A    between atoms: C27_32  and  C28_33
REMARK   13  A    between atoms: C28_33  and  C29_34
REMARK       I    between atoms: C29_34  and  N1_36
REMARK   14  A    between atoms: N1_36  and  C30_38
REMARK   15  A    between atoms: C30_38  and  C31_39
REMARK   16  A    between atoms: C31_39  and  O5_40
ROOT
HETATM    1  C4  UNL     1      13.828  23.778   6.664  1.00  0.00    -0.037 C
HETATM    2  C18 UNL     1      13.842  24.679   7.862  1.00  0.00     0.010 C
HETATM    3  C19 UNL     1      12.816  25.774   7.788  1.00  0.00     0.011 C
HETATM    4  C20 UNL     1      11.426  25.369   7.503  1.00  0.00    -0.033 C
HETATM    5  C21 UNL     1      10.518  25.233   8.725  1.00  0.00     0.010 C
HETATM    6  C22 UNL     1      10.199  26.708   8.569  1.00  0.00     0.002 C
HETATM    7  C23 UNL     1      10.548  26.538   7.096  1.00  0.00     0.010 C
HETATM    8  C24 UNL     1      11.351  24.185   6.593  1.00  0.00     0.017 C
HETATM    9  C32 UNL     1      12.613  24.085   5.815  1.00  0.00     0.019 C
ENDROOT
BRANCH   1  10
HETATM   10  C3  UNL     1      15.059  23.635   5.885  1.00  0.00     0.009 C
BRANCH  10  11
HETATM   11  C2  UNL     1      15.144  23.653   4.436  1.00  0.00    -0.004 C
HETATM   12  C1  UNL     1      14.852  22.372   3.703  1.00  0.00     0.005 C
ENDBRANCH  10  11
ENDBRANCH   1  10
BRANCH   1  13
HETATM   13  C5  UNL     1      13.535  22.355   7.211  1.00  0.00     0.037 C
BRANCH  13  14
HETATM   14  C6  UNL     1      14.457  21.928   8.237  1.00  0.00    -0.019 C
HETATM   15  C7  UNL     1      15.493  21.162   7.998  1.00  0.00    -0.066 C
HETATM   16  C8  UNL     1      16.386  20.784   9.167  1.00  0.00     0.048 C
BRANCH  15  17
HETATM   17  C9  UNL     1      15.900  20.617   6.724  1.00  0.00     0.003 C
HETATM   18  C10 UNL     1      17.163  20.434   6.418  1.00  0.00    -0.021 C
BRANCH  18  19
HETATM   19  C11 UNL     1      17.568  19.872   5.104  1.00  0.00     0.023 C
HETATM   20  C12 UNL     1      16.387  19.241   4.394  1.00  0.00     0.087 C
HETATM   21  C13 UNL     1      16.830  18.746   3.079  1.00  0.00     0.130 C
HETATM   22  O1  UNL     1      16.119  18.855   2.112  1.00  0.00    -0.298 OA
HETATM   23  C14 UNL     1      18.157  18.108   2.941  1.00  0.00     0.110 C
HETATM   24  C15 UNL     1      18.618  17.720   4.334  1.00  0.00     0.132 C
HETATM   25  C16 UNL     1      18.708  18.892   5.252  1.00  0.00     0.046 C
BRANCH  24  26
HETATM   26  O2  UNL     1      19.917  17.201   4.183  1.00  0.00    -0.395 OA
ATOM     27  H2  UNL     1      20.432  17.573   4.890  1.00  0.00     0.210 HD
ENDBRANCH  24  26
BRANCH  25  28
HETATM   28  C17 UNL     1      18.732  18.416   6.685  1.00  0.00     0.172 C
BRANCH  28  29
HETATM   29  O3  UNL     1      19.983  18.001   7.096  1.00  0.00    -0.400 OA
ATOM     30  H3  UNL     1      20.380  18.586   7.730  1.00  0.00     0.209 HD
ENDBRANCH  28  29
ENDBRANCH  25  28
ENDBRANCH  18  19
ENDBRANCH  15  17
ENDBRANCH  13  14
ENDBRANCH   1  13
BRANCH   8  31
HETATM   31  C25 UNL     1      10.166  24.277   5.681  1.00  0.00    -0.025 C
HETATM   32  C26 UNL     1      10.150  24.047   4.400  1.00  0.00    -0.030 C
BRANCH  32  33
HETATM   33  C27 UNL     1       8.870  24.185   3.628  1.00  0.00     0.036 C
BRANCH  33  34
HETATM   34  C28 UNL     1       8.890  25.364   2.712  1.00  0.00     0.106 C
BRANCH  34  35
HETATM   35  C29 UNL     1       8.139  26.491   3.391  1.00  0.00     0.217 C
HETATM   36  O4  UNL     1       8.389  27.660   3.022  1.00  0.00    -0.274 OA
HETATM   37  N1  UNL     1       7.219  26.127   4.384  1.00  0.00    -0.359 N
ATOM     38  H1  UNL     1       7.126  25.132   4.589  1.00  0.00     0.162 HD
BRANCH  37  39
HETATM   39  C30 UNL     1       6.401  27.022   5.131  1.00  0.00     0.148 C
BRANCH  39  40
HETATM   40  C31 UNL     1       7.070  27.675   6.292  1.00  0.00     0.183 C
BRANCH  40  41
HETATM   41  O5  UNL     1       8.007  28.636   6.010  1.00  0.00    -0.399 OA
ATOM     42  H5  UNL     1       8.387  29.097   6.748  1.00  0.00     0.209 HD
ENDBRANCH  40  41
ENDBRANCH  39  40
ENDBRANCH  37  39
ENDBRANCH  34  35
ENDBRANCH  33  34
ENDBRANCH  32  33
ENDBRANCH   8  31
TORSDOF 16
ENDMDL