MODEL 3
REMARK VINA RESULT: -8.328793415      2.558      5.153
REMARK  15 active torsions:
REMARK  status: ('A' for Active; 'I' for Inactive)
REMARK    1  A    between atoms: C2_2  and  C3_3
REMARK    2  A    between atoms: C3_3  and  C4_4
REMARK    3  A    between atoms: C12_12  and  C13_13
REMARK    4  A    between atoms: C13_13  and  C14_14
REMARK    5  A    between atoms: C13_13  and  N4_31
REMARK    6  A    between atoms: C14_14  and  C15_15
REMARK    7  A    between atoms: C15_15  and  C16_16
REMARK    8  A    between atoms: C16_16  and  C17_17
REMARK    9  A    between atoms: C17_17  and  C18_18
REMARK   10  A    between atoms: C18_18  and  C19_19
REMARK   11  A    between atoms: C19_19  and  C20_20
REMARK   12  A    between atoms: C20_20  and  C21_21
REMARK   13  A    between atoms: C21_21  and  C22_22
REMARK   14  A    between atoms: C22_22  and  N2_26
REMARK   15  A    between atoms: N2_26  and  N3_28
REMARK       I    between atoms: N4_31  and  C23_33
REMARK       I    between atoms: C23_33  and  N5_35
ROOT
HETATM    1  C13 UNL     1      12.867  23.161   5.394  1.00  0.00     0.099 C
ENDROOT
BRANCH   1   2
HETATM    2  C12 UNL     1      11.666  23.622   4.640  1.00  0.00     0.004 C
HETATM    3  C4  UNL     1      10.619  24.398   5.323  1.00  0.00    -0.069 C
HETATM    4  C5  UNL     1       9.411  24.542   4.433  1.00  0.00     0.016 C
HETATM    5  C6  UNL     1       9.854  25.554   3.329  1.00  0.00     0.013 C
HETATM    6  C10 UNL     1       8.918  23.381   3.689  1.00  0.00     0.013 C
HETATM    7  C7  UNL     1      11.021  24.945   2.628  1.00  0.00    -0.012 C
HETATM    8  C8  UNL     1      10.517  23.725   1.858  1.00  0.00     0.009 C
HETATM    9  C28 UNL     1      12.182  24.578   3.509  1.00  0.00     0.020 C
HETATM   10  C9  UNL     1      10.050  22.733   2.913  1.00  0.00    -0.012 C
HETATM   11  C11 UNL     1      11.220  22.442   3.804  1.00  0.00     0.020 C
BRANCH   3  12
HETATM   12  C3  UNL     1      10.346  24.237   6.752  1.00  0.00    -0.023 C
BRANCH  12  13
HETATM   13  C2  UNL     1       9.851  25.236   7.675  1.00  0.00     0.023 C
HETATM   14  C1  UNL     1      10.681  25.633   8.853  1.00  0.00     0.009 C
ENDBRANCH  12  13
ENDBRANCH   3  12
ENDBRANCH   1   2
BRANCH   1  15
HETATM   15  C14 UNL     1      13.772  24.227   5.941  1.00  0.00     0.026 C
BRANCH  15  16
HETATM   16  C15 UNL     1      13.870  24.206   7.426  1.00  0.00     0.002 C
BRANCH  16  17
HETATM   17  C16 UNL     1      13.634  22.895   8.102  1.00  0.00     0.000 C
BRANCH  17  18
HETATM   18  C17 UNL     1      14.794  21.980   8.220  1.00  0.00     0.000 C
BRANCH  18  19
HETATM   19  C18 UNL     1      15.211  21.705   9.635  1.00  0.00     0.000 C
BRANCH  19  20
HETATM   20  C19 UNL     1      16.327  20.715   9.783  1.00  0.00     0.000 C
BRANCH  20  21
HETATM   21  C20 UNL     1      16.694  20.098   8.474  1.00  0.00     0.007 C
BRANCH  21  22
HETATM   22  C21 UNL     1      18.131  20.467   8.079  1.00  0.00     0.077 C
BRANCH  22  23
HETATM   23  C22 UNL     1      18.227  20.361   6.612  1.00  0.00     0.088 C
HETATM   24  N1  UNL     1      17.293  20.840   5.870  1.00  0.00    -0.388 N
ATOM     25  H12 UNL     1      16.497  21.288   6.324  1.00  0.00     0.157 HD
ATOM     26  H11 UNL     1      17.360  20.766   4.855  1.00  0.00     0.157 HD
BRANCH  23  27
HETATM   27  N2  UNL     1      19.336  19.738   5.980  1.00  0.00    -0.296 N
ATOM     28  H2  UNL     1      20.131  20.283   5.645  1.00  0.00     0.187 HD
BRANCH  27  29
HETATM   29  N3  UNL     1      19.297  18.345   5.835  1.00  0.00    -0.344 N
ATOM     30  H32 UNL     1      18.607  17.911   5.223  1.00  0.00     0.176 HD
ATOM     31  H31 UNL     1      19.979  17.799   6.362  1.00  0.00     0.176 HD
ENDBRANCH  27  29
ENDBRANCH  23  27
ENDBRANCH  22  23
ENDBRANCH  21  22
ENDBRANCH  20  21
ENDBRANCH  19  20
ENDBRANCH  18  19
ENDBRANCH  17  18
ENDBRANCH  16  17
ENDBRANCH  15  16
ENDBRANCH   1  15
BRANCH   1  32
HETATM   32  N4  UNL     1      13.547  22.107   4.667  1.00  0.00    -0.337 N
HETATM   33  C23 UNL     1      13.599  20.738   4.885  1.00  0.00     0.318 C
HETATM   34  O1  UNL     1      13.059  20.065   5.802  1.00  0.00    -0.247 OA
HETATM   35  N5  UNL     1      14.356  19.900   3.980  1.00  0.00    -0.333 N
HETATM   36  C24 UNL     1      14.436  18.490   4.168  1.00  0.00     0.142 C
HETATM   37  C27 UNL     1      15.020  20.592   2.875  1.00  0.00     0.142 C
HETATM   38  C25 UNL     1      15.856  17.962   4.197  1.00  0.00     0.160 C
HETATM   39  S1  UNL     1      16.777  18.567   2.798  1.00  0.00     0.147 S
HETATM   40  O2  UNL     1      17.172  17.443   1.886  1.00  0.00    -0.228 OA
HETATM   41  O3  UNL     1      17.956  19.357   3.259  1.00  0.00    -0.228 OA
HETATM   42  C26 UNL     1      15.647  19.630   1.895  1.00  0.00     0.160 C
ATOM     43  H4  UNL     1      14.078  22.427   3.856  1.00  0.00     0.164 HD
ENDBRANCH   1  32
TORSDOF 15
ENDMDL