MODEL 2
REMARK VINA RESULT: -7.926220295      2.568      3.164
REMARK  15 active torsions:
REMARK  status: ('A' for Active; 'I' for Inactive)
REMARK    1  A    between atoms: C4_4  and  O1_5
REMARK    2  A    between atoms: C5_7  and  C6_8
REMARK    3  A    between atoms: C6_8  and  O2_9
REMARK    4  A    between atoms: C6_8  and  C7_11
REMARK    5  A    between atoms: C7_11  and  C8_12
REMARK    6  A    between atoms: C8_12  and  C9_13
REMARK    7  A    between atoms: C9_13  and  C10_14
REMARK    8  A    between atoms: C10_14  and  C11_15
REMARK    9  A    between atoms: C11_15  and  C12_16
REMARK   10  A    between atoms: C12_16  and  O3_17
REMARK   11  A    between atoms: C14_19  and  C15_20
REMARK   12  A    between atoms: C16_21  and  O4_22
REMARK   13  A    between atoms: C19_26  and  C20_27
REMARK   14  A    between atoms: C25_32  and  C26_33
REMARK   15  A    between atoms: C26_33  and  C27_34
ROOT
HETATM    1  C1  UNL     1      15.560  21.031   3.937  1.00  0.00     0.015 C
HETATM    2  C2  UNL     1      14.646  21.948   4.255  1.00  0.00    -0.083 C
HETATM    3  C3  UNL     1      15.187  23.339   4.369  1.00  0.00     0.065 C
HETATM    4  C4  UNL     1      14.040  24.258   4.512  1.00  0.00     0.129 C
HETATM    5  C5  UNL     1      13.076  23.870   5.609  1.00  0.00     0.049 C
HETATM    6  C14 UNL     1      12.408  22.561   5.252  1.00  0.00     0.009 C
HETATM    7  C31 UNL     1      13.222  21.607   4.473  1.00  0.00     0.015 C
HETATM    8  C32 UNL     1      13.219  20.205   5.061  1.00  0.00     0.015 C
ENDROOT
BRANCH   6   9
HETATM    9  C15 UNL     1      11.050  22.851   4.731  1.00  0.00     0.028 C
HETATM   10  C16 UNL     1      11.002  22.524   3.259  1.00  0.00     0.127 C
HETATM   11  C17 UNL     1       9.641  23.126   2.866  1.00  0.00     0.066 C
HETATM   12  C18 UNL     1       9.742  24.442   3.537  1.00  0.00    -0.073 C
HETATM   13  C19 UNL     1       9.183  25.557   3.106  1.00  0.00     0.003 C
HETATM   14  C29 UNL     1      10.581  24.251   4.767  1.00  0.00     0.017 C
HETATM   15  C30 UNL     1       9.638  24.549   5.922  1.00  0.00     0.015 C
BRANCH  10  16
HETATM   16  O4  UNL     1      11.937  23.306   2.541  1.00  0.00    -0.395 OA
ATOM     17  H4  UNL     1      11.524  23.723   1.794  1.00  0.00     0.210 HD
ENDBRANCH  10  16
BRANCH  13  18
HETATM   18  C20 UNL     1       8.393  25.595   1.898  1.00  0.00     0.003 C
HETATM   19  C21 UNL     1       7.092  25.287   1.911  1.00  0.00    -0.080 C
HETATM   20  C22 UNL     1       6.511  24.910   3.208  1.00  0.00     0.034 C
HETATM   21  C28 UNL     1       6.344  25.342   0.653  1.00  0.00     0.039 C
HETATM   22  C23 UNL     1       5.104  24.393   3.085  1.00  0.00     0.005 C
HETATM   23  C24 UNL     1       4.362  25.380   2.201  1.00  0.00     0.005 C
HETATM   24  C25 UNL     1       4.884  25.105   0.786  1.00  0.00    -0.001 C
BRANCH  24  25
HETATM   25  C26 UNL     1       4.051  25.962  -0.138  1.00  0.00     0.118 C
BRANCH  25  26
HETATM   26  C27 UNL     1       4.357  25.811  -1.556  1.00  0.00     0.172 C
HETATM   27  O5  UNL     1       4.659  26.818  -2.239  1.00  0.00    -0.648 OA
HETATM   28  O6  UNL     1       4.321  24.574  -2.169  1.00  0.00    -0.648 OA
ENDBRANCH  25  26
ENDBRANCH  24  25
ENDBRANCH  13  18
ENDBRANCH   6   9
BRANCH   5  29
HETATM   29  C6  UNL     1      13.665  23.854   6.990  1.00  0.00     0.125 C
BRANCH  29  30
HETATM   30  O2  UNL     1      14.935  24.343   7.093  1.00  0.00    -0.395 OA
ATOM     31  H2  UNL     1      15.009  25.291   7.107  1.00  0.00     0.210 HD
ENDBRANCH  29  30
BRANCH  29  32
HETATM   32  C7  UNL     1      12.727  24.375   8.033  1.00  0.00     0.032 C
BRANCH  32  33
HETATM   33  C8  UNL     1      12.554  25.877   7.763  1.00  0.00     0.002 C
BRANCH  33  34
HETATM   34  C9  UNL     1      11.882  26.548   8.936  1.00  0.00     0.000 C
BRANCH  34  35
HETATM   35  C10 UNL     1      10.477  26.089   9.156  1.00  0.00     0.002 C
BRANCH  35  36
HETATM   36  C11 UNL     1       9.436  27.000   8.574  1.00  0.00     0.026 C
BRANCH  36  37
HETATM   37  C12 UNL     1       9.916  28.393   8.354  1.00  0.00     0.167 C
BRANCH  37  38
HETATM   38  O3  UNL     1       8.926  29.233   7.952  1.00  0.00    -0.396 OA
HETATM   39  C13 UNL     1       7.956  28.641   7.177  1.00  0.00     0.201 C
ENDBRANCH  37  38
ENDBRANCH  36  37
ENDBRANCH  35  36
ENDBRANCH  34  35
ENDBRANCH  33  34
ENDBRANCH  32  33
ENDBRANCH  29  32
ENDBRANCH   5  29
BRANCH   4  40
HETATM   40  O1  UNL     1      14.417  25.569   4.531  1.00  0.00    -0.395 OA
ATOM     41  H1  UNL     1      13.692  26.155   4.715  1.00  0.00     0.210 HD
ENDBRANCH   4  40
TORSDOF 15
ENDMDL