MODEL 1
REMARK VINA RESULT: -7.844736233      0.000      0.000
REMARK  17 active torsions:
REMARK  status: ('A' for Active; 'I' for Inactive)
REMARK    1  A    between atoms: C2_2  and  C3_3
REMARK    2  A    between atoms: C3_3  and  C4_4
REMARK    3  A    between atoms: C4_4  and  C5_5
REMARK    4  A    between atoms: C5_5  and  C6_6
REMARK    5  A    between atoms: C6_6  and  C7_7
REMARK    6  A    between atoms: C7_7  and  C8_8
REMARK    7  A    between atoms: C8_8  and  C9_9
REMARK    8  A    between atoms: C9_9  and  C10_10
REMARK    9  A    between atoms: C10_10  and  C11_11
REMARK   10  A    between atoms: C11_11  and  C12_12
REMARK   11  A    between atoms: C11_11  and  N1_14
REMARK   12  A    between atoms: N1_14  and  C14_16
REMARK   13  A    between atoms: C14_16  and  O1_17
REMARK   14  A    between atoms: C14_16  and  C15_19
REMARK   15  A    between atoms: C20_24  and  O2_25
REMARK   16  A    between atoms: C21_27  and  O3_28
REMARK   17  A    between atoms: C30_39  and  O5_40
ROOT
HETATM    1  C15 UNL     1      12.458  24.251   4.917  1.00  0.00     0.069 C
HETATM    2  C16 UNL     1      13.604  25.253   4.858  1.00  0.00     0.014 C
HETATM    3  C17 UNL     1      14.749  24.303   4.513  1.00  0.00     0.007 C
HETATM    4  C18 UNL     1      14.318  22.926   5.050  1.00  0.00     0.002 C
HETATM    5  C19 UNL     1      15.386  22.233   5.770  1.00  0.00     0.030 C
HETATM    6  C20 UNL     1      15.574  20.828   5.197  1.00  0.00     0.156 C
HETATM    7  C21 UNL     1      16.795  20.169   5.809  1.00  0.00     0.177 C
HETATM    8  C22 UNL     1      17.229  20.944   7.021  1.00  0.00    -0.033 A
HETATM    9  C23 UNL     1      18.511  21.172   7.144  1.00  0.00     0.061 A
HETATM   10  C24 UNL     1      19.060  21.915   8.272  1.00  0.00     0.172 A
HETATM   11  O4  UNL     1      20.287  22.141   8.405  1.00  0.00    -0.289 OA
HETATM   12  C25 UNL     1      18.100  22.395   9.262  1.00  0.00     0.052 A
HETATM   13  C26 UNL     1      16.817  22.134   9.089  1.00  0.00    -0.008 A
HETATM   14  C27 UNL     1      16.224  21.401   7.995  1.00  0.00     0.006 A
HETATM   15  C28 UNL     1      15.662  20.103   8.646  1.00  0.00     0.025 C
HETATM   16  C29 UNL     1      15.091  22.038   7.259  1.00  0.00     0.037 C
HETATM   17  C30 UNL     1      14.526  23.278   7.853  1.00  0.00     0.124 C
HETATM   18  C31 UNL     1      13.177  23.525   7.216  1.00  0.00     0.042 C
HETATM   19  C32 UNL     1      13.018  23.177   5.804  1.00  0.00    -0.027 C
HETATM   20  C33 UNL     1      12.095  21.975   5.560  1.00  0.00     0.016 C
ENDROOT
BRANCH   1  21
HETATM   21  C14 UNL     1      11.159  24.807   5.166  1.00  0.00     0.116 C
BRANCH  21  22
HETATM   22  N1  UNL     1       9.868  24.297   4.972  1.00  0.00    -0.370 N
ATOM     23  H1  UNL     1       9.384  23.986   5.814  1.00  0.00     0.161 HD
BRANCH  22  24
HETATM   24  C11 UNL     1       9.137  24.154   3.745  1.00  0.00     0.083 C
BRANCH  24  25
HETATM   25  C10 UNL     1       8.711  25.467   3.169  1.00  0.00     0.025 C
BRANCH  25  26
HETATM   26  C9  UNL     1       7.721  26.204   4.060  1.00  0.00     0.002 C
BRANCH  26  27
HETATM   27  C8  UNL     1       8.265  27.588   4.352  1.00  0.00     0.000 C
BRANCH  27  28
HETATM   28  C7  UNL     1       7.607  28.207   5.580  1.00  0.00     0.000 C
BRANCH  28  29
HETATM   29  C6  UNL     1       8.114  27.543   6.812  1.00  0.00     0.000 C
BRANCH  29  30
HETATM   30  C5  UNL     1       8.789  28.538   7.711  1.00  0.00     0.000 C
BRANCH  30  31
HETATM   31  C4  UNL     1       9.947  27.892   8.422  1.00  0.00     0.000 C
BRANCH  31  32
HETATM   32  C3  UNL     1       9.602  26.398   8.586  1.00  0.00    -0.000 C
BRANCH  32  33
HETATM   33  C2  UNL     1      10.782  25.731   9.220  1.00  0.00    -0.005 C
HETATM   34  C1  UNL     1      12.000  26.577   8.958  1.00  0.00     0.005 C
ENDBRANCH  32  33
ENDBRANCH  31  32
ENDBRANCH  30  31
ENDBRANCH  29  30
ENDBRANCH  28  29
ENDBRANCH  27  28
ENDBRANCH  26  27
ENDBRANCH  25  26
ENDBRANCH  24  25
BRANCH  24  35
HETATM   35  C12 UNL     1       9.799  23.277   2.699  1.00  0.00     0.021 C
HETATM   36  C13 UNL     1      10.715  24.076   1.815  1.00  0.00     0.007 C
ENDBRANCH  24  35
ENDBRANCH  22  24
ENDBRANCH  21  22
BRANCH  21  37
HETATM   37  O1  UNL     1      11.178  26.009   5.663  1.00  0.00    -0.349 OA
ATOM     38  H1  UNL     1      11.455  26.675   5.045  1.00  0.00     0.219 HD
ENDBRANCH  21  37
ENDBRANCH   1  21
BRANCH  17  39
HETATM   39  O5  UNL     1      15.273  24.402   7.840  1.00  0.00    -0.395 OA
ATOM     40  H5  UNL     1      16.049  24.440   8.387  1.00  0.00     0.210 HD
ENDBRANCH  17  39
BRANCH   6  41
HETATM   41  O2  UNL     1      15.628  20.821   3.824  1.00  0.00    -0.392 OA
ATOM     42  H2  UNL     1      14.833  20.480   3.430  1.00  0.00     0.210 HD
ENDBRANCH   6  41
BRANCH   7  43
HETATM   43  O3  UNL     1      16.513  18.880   6.221  1.00  0.00    -0.389 OA
ATOM     44  H3  UNL     1      17.274  18.318   6.136  1.00  0.00     0.210 HD
ENDBRANCH   7  43
TORSDOF 17
ENDMDL