MODEL 1
REMARK VINA RESULT: -8.072622176      0.000      0.000
REMARK  14 active torsions:
REMARK  status: ('A' for Active; 'I' for Inactive)
REMARK    1  A    between atoms: C2_2  and  C3_3
REMARK    2  A    between atoms: C3_3  and  O1_4
REMARK    3  A    between atoms: C3_3  and  C4_6
REMARK    4  A    between atoms: C3_3  and  C32_41
REMARK    5  A    between atoms: C5_7  and  C6_8
REMARK    6  A    between atoms: C6_8  and  C7_9
REMARK    7  A    between atoms: C7_9  and  C8_10
REMARK    8  A    between atoms: C8_10  and  C9_11
REMARK    9  A    between atoms: C9_11  and  O2_12
REMARK   10  A    between atoms: C9_11  and  N1_14
REMARK   11  A    between atoms: N1_14  and  C10_16
REMARK   12  A    between atoms: N2_29  and  C23_30
REMARK   13  A    between atoms: C23_30  and  C24_31
REMARK   14  A    between atoms: C30_37  and  C31_38
ROOT
HETATM    1  C10 UNL     1      15.832  19.379   4.794  1.00  0.00     0.036 A
HETATM    2  C11 UNL     1      14.489  19.081   4.563  1.00  0.00     0.030 A
HETATM    3  C12 UNL     1      13.457  20.000   4.793  1.00  0.00     0.010 A
HETATM    4  C13 UNL     1      13.825  21.215   5.255  1.00  0.00    -0.045 A
HETATM    5  C14 UNL     1      15.125  21.599   5.505  1.00  0.00    -0.033 A
HETATM    6  C15 UNL     1      16.084  20.612   5.252  1.00  0.00    -0.024 A
HETATM    7  C16 UNL     1      17.446  21.031   5.705  1.00  0.00     0.042 C
HETATM    8  C17 UNL     1      17.132  21.396   7.206  1.00  0.00     0.016 C
HETATM    9  C18 UNL     1      15.910  22.335   7.234  1.00  0.00    -0.010 A
HETATM   10  C19 UNL     1      16.098  23.634   7.106  1.00  0.00     0.027 A
HETATM   11  C20 UNL     1      15.732  22.867   5.950  1.00  0.00    -0.001 A
HETATM   12  C21 UNL     1      15.326  23.810   5.006  1.00  0.00     0.035 C
HETATM   13  C22 UNL     1      13.909  24.396   5.087  1.00  0.00     0.123 C
HETATM   14  N2  UNL     1      13.267  24.202   6.322  1.00  0.00    -0.384 N
HETATM   15  C27 UNL     1      12.770  22.913   6.677  1.00  0.00     0.008 C
HETATM   16  C28 UNL     1      12.532  21.957   5.531  1.00  0.00     0.095 C
HETATM   17  C29 UNL     1      13.439  22.408   7.872  1.00  0.00     0.014 C
HETATM   18  C30 UNL     1      14.717  21.719   7.929  1.00  0.00     0.121 C
ENDROOT
BRANCH   1  19
HETATM   19  N1  UNL     1      16.841  18.398   4.519  1.00  0.00    -0.363 N
ATOM     20  H1  UNL     1      16.597  17.413   4.627  1.00  0.00     0.162 HD
BRANCH  19  21
HETATM   21  C9  UNL     1      18.189  18.729   4.097  1.00  0.00     0.217 C
BRANCH  21  22
HETATM   22  C8  UNL     1      19.094  17.657   4.627  1.00  0.00     0.054 C
BRANCH  22  23
HETATM   23  C7  UNL     1      18.735  17.044   5.927  1.00  0.00     0.008 C
BRANCH  23  24
HETATM   24  C6  UNL     1      19.520  17.545   7.077  1.00  0.00     0.027 C
BRANCH  24  25
HETATM   25  C5  UNL     1      18.602  18.189   8.057  1.00  0.00    -0.028 C
HETATM   26  C4  UNL     1      18.637  17.774   9.318  1.00  0.00     0.006 C
BRANCH  26  27
HETATM   27  C3  UNL     1      17.723  18.408  10.319  1.00  0.00     0.075 C
BRANCH  27  28
HETATM   28  C2  UNL     1      18.323  19.747  10.684  1.00  0.00     0.037 C
HETATM   29  C1  UNL     1      18.967  19.585  12.046  1.00  0.00     0.008 C
ENDBRANCH  27  28
BRANCH  27  30
HETATM   30  O1  UNL     1      16.470  18.622   9.778  1.00  0.00    -0.386 OA
ATOM     31  H1  UNL     1      15.826  18.187  10.325  1.00  0.00     0.211 HD
ENDBRANCH  27  30
BRANCH  27  32
HETATM   32  C32 UNL     1      17.569  17.514  11.539  1.00  0.00     0.037 C
HETATM   33  C33 UNL     1      16.397  16.578  11.390  1.00  0.00     0.008 C
ENDBRANCH  27  32
ENDBRANCH  26  27
ENDBRANCH  24  25
ENDBRANCH  23  24
ENDBRANCH  22  23
ENDBRANCH  21  22
BRANCH  21  34
HETATM   34  O2  UNL     1      18.180  18.709   2.715  1.00  0.00    -0.377 OA
ATOM     35  H2  UNL     1      17.836  19.526   2.376  1.00  0.00     0.212 HD
ENDBRANCH  21  34
ENDBRANCH  19  21
ENDBRANCH   1  19
BRANCH  18  36
HETATM   36  C31 UNL     1      15.130  21.717   9.383  1.00  0.00     0.181 C
HETATM   37  O3  UNL     1      14.744  20.775  10.106  1.00  0.00    -0.647 OA
HETATM   38  O4  UNL     1      15.905  22.682   9.970  1.00  0.00    -0.647 OA
ENDBRANCH  18  36
BRANCH  14  39
HETATM   39  C23 UNL     1      12.526  25.292   6.862  1.00  0.00     0.127 C
BRANCH  39  40
HETATM   40  C24 UNL     1      12.065  25.186   8.263  1.00  0.00     0.003 A
HETATM   41  C25 UNL     1      10.765  25.577   8.795  1.00  0.00     0.007 A
HETATM   42  C26 UNL     1      11.893  26.551   8.969  1.00  0.00     0.007 A
ENDBRANCH  39  40
ENDBRANCH  14  39
TORSDOF 14
ENDMDL