MODEL 5
REMARK VINA RESULT: -6.475189855      3.862      9.852
REMARK  13 active torsions:
REMARK  status: ('A' for Active; 'I' for Inactive)
REMARK    1  A    between atoms: C2_2  and  C3_3
REMARK    2  A    between atoms: C14_16  and  N2_17
REMARK       I    between atoms: N2_17  and  C15_19
REMARK    3  A    between atoms: C15_19  and  C16_21
REMARK    4  A    between atoms: C16_21  and  C17_22
REMARK    5  A    between atoms: C17_22  and  C18_23
REMARK    6  A    between atoms: C18_23  and  C19_24
REMARK    7  A    between atoms: C19_24  and  C20_25
REMARK    8  A    between atoms: C20_25  and  N3_26
REMARK    9  A    between atoms: N3_26  and  C21_29
REMARK   10  A    between atoms: C21_29  and  C22_30
REMARK   11  A    between atoms: C22_30  and  C23_31
REMARK   12  A    between atoms: C23_31  and  C24_32
REMARK   13  A    between atoms: C24_32  and  N4_33
ROOT
HETATM    1  C1  UNL     1      16.053  19.066   1.814  1.00  0.00     0.025 C
HETATM    2  C2  UNL     1      16.371  19.025   3.322  1.00  0.00     0.039 C
HETATM    3  C4  UNL     1      15.888  17.657   3.765  1.00  0.00     0.019 C
HETATM    4  C5  UNL     1      14.397  17.698   4.043  1.00  0.00     0.002 C
HETATM    5  C6  UNL     1      14.088  18.615   5.176  1.00  0.00     0.010 C
HETATM    6  C7  UNL     1      14.912  19.856   5.228  1.00  0.00    -0.035 C
HETATM    7  C8  UNL     1      15.823  19.785   6.432  1.00  0.00     0.016 C
HETATM    8  C9  UNL     1      13.954  21.025   5.509  1.00  0.00    -0.001 C
HETATM    9  C10 UNL     1      12.710  20.990   4.715  1.00  0.00     0.007 C
HETATM   10  C11 UNL     1      12.183  22.368   4.328  1.00  0.00     0.012 C
HETATM   11  C12 UNL     1      12.387  23.311   5.467  1.00  0.00    -0.016 C
HETATM   12  C13 UNL     1      11.565  22.792   6.625  1.00  0.00     0.018 C
HETATM   13  C14 UNL     1      11.876  24.675   5.094  1.00  0.00     0.093 C
HETATM   14  C25 UNL     1      13.014  25.652   5.292  1.00  0.00     0.027 C
HETATM   15  C26 UNL     1      14.223  24.750   5.096  1.00  0.00     0.012 C
HETATM   16  C27 UNL     1      13.840  23.479   5.839  1.00  0.00    -0.031 C
HETATM   17  C28 UNL     1      13.920  23.820   7.324  1.00  0.00     0.016 C
HETATM   18  C29 UNL     1      14.706  22.319   5.494  1.00  0.00    -0.001 C
HETATM   19  C30 UNL     1      15.520  22.554   4.262  1.00  0.00     0.006 C
HETATM   20  C31 UNL     1      16.456  21.392   4.030  1.00  0.00     0.007 C
HETATM   21  C32 UNL     1      15.607  20.146   3.944  1.00  0.00     0.011 C
ENDROOT
BRANCH  13  22
HETATM   22  N2  UNL     1      11.423  24.802   3.736  1.00  0.00    -0.356 N
HETATM   23  C15 UNL     1      10.038  24.816   3.416  1.00  0.00     0.217 C
HETATM   24  O2  UNL     1       9.207  24.711   4.344  1.00  0.00    -0.274 OA
ATOM     25  H2  UNL     1      12.110  24.884   2.987  1.00  0.00     0.162 HD
BRANCH  23  26
HETATM   26  C16 UNL     1       9.548  24.949   2.021  1.00  0.00     0.103 C
BRANCH  26  27
HETATM   27  C17 UNL     1       8.658  26.184   1.903  1.00  0.00     0.009 C
BRANCH  27  28
HETATM   28  C18 UNL     1       7.323  25.788   1.326  1.00  0.00     0.002 C
BRANCH  28  29
HETATM   29  C19 UNL     1       6.875  24.413   1.728  1.00  0.00     0.027 C
BRANCH  29  30
HETATM   30  C20 UNL     1       5.731  24.491   2.677  1.00  0.00     0.232 C
BRANCH  30  31
HETATM   31  N3  UNL     1       6.104  25.127   3.907  1.00  0.00    -0.075 N
ATOM     32  H32 UNL     1       6.225  24.440   4.652  1.00  0.00     0.277 HD
ATOM     33  H31 UNL     1       7.057  25.488   3.859  1.00  0.00     0.277 HD
BRANCH  31  34
HETATM   34  C21 UNL     1       5.175  26.164   4.303  1.00  0.00     0.232 C
BRANCH  34  35
HETATM   35  C22 UNL     1       5.830  27.038   5.316  1.00  0.00     0.029 C
BRANCH  35  36
HETATM   36  C23 UNL     1       7.167  27.569   4.982  1.00  0.00     0.029 C
BRANCH  36  37
HETATM   37  C24 UNL     1       8.186  27.554   6.055  1.00  0.00     0.229 C
BRANCH  37  38
HETATM   38  N4  UNL     1       9.535  27.478   5.579  1.00  0.00    -0.079 N
ATOM     39  H43 UNL     1       9.770  26.519   5.321  1.00  0.00     0.274 HD
ATOM     40  H42 UNL     1       9.619  27.926   4.667  1.00  0.00     0.274 HD
ATOM     41  H41 UNL     1      10.228  27.854   6.227  1.00  0.00     0.274 HD
ENDBRANCH  37  38
ENDBRANCH  36  37
ENDBRANCH  35  36
ENDBRANCH  34  35
ENDBRANCH  31  34
ENDBRANCH  30  31
ENDBRANCH  29  30
ENDBRANCH  28  29
ENDBRANCH  27  28
ENDBRANCH  26  27
ENDBRANCH  23  26
ENDBRANCH  13  22
BRANCH   2  42
HETATM   42  C3  UNL     1      17.839  19.151   3.424  1.00  0.00     0.239 C
HETATM   43  N1  UNL     1      18.524  19.606   4.587  1.00  0.00    -0.061 NA
HETATM   44  O1  UNL     1      18.577  18.850   2.452  1.00  0.00    -0.276 OA
ENDBRANCH   2  42
TORSDOF 13
ENDMDL