MODEL 1
REMARK VINA RESULT: -9.086121566      0.000      0.000
REMARK  13 active torsions:
REMARK  status: ('A' for Active; 'I' for Inactive)
REMARK    1  A    between atoms: C2_2  and  C3_3
REMARK    2  A    between atoms: C3_3  and  N1_4
REMARK       I    between atoms: N1_4  and  C4_6
REMARK    3  A    between atoms: C4_6  and  C5_8
REMARK    4  A    between atoms: C5_8  and  C6_9
REMARK    5  A    between atoms: C7_10  and  C8_11
REMARK    6  A    between atoms: C8_11  and  C9_12
REMARK    7  A    between atoms: C9_12  and  C10_13
REMARK    8  A    between atoms: C10_13  and  O2_14
REMARK    9  A    between atoms: O2_14  and  C11_15
REMARK   10  A    between atoms: C18_22  and  C19_23
REMARK   11  A    between atoms: C19_23  and  C20_24
REMARK   12  A    between atoms: C24_30  and  O5_31
REMARK   13  A    between atoms: C31_39  and  O6_40
ROOT
HETATM    1  C11 UNL     1      12.012  23.841   4.198  1.00  0.00     0.151 C
HETATM    2  C12 UNL     1      11.854  24.207   5.635  1.00  0.00     0.040 C
HETATM    3  C13 UNL     1      13.013  23.557   6.295  1.00  0.00     0.003 C
HETATM    4  C14 UNL     1      12.763  23.078   7.702  1.00  0.00     0.033 C
HETATM    5  C15 UNL     1      14.086  22.601   8.186  1.00  0.00    -0.022 C
HETATM    6  C16 UNL     1      14.927  22.055   7.330  1.00  0.00    -0.070 C
HETATM    7  C17 UNL     1      14.685  21.855   5.872  1.00  0.00     0.031 C
HETATM    8  C18 UNL     1      15.017  20.435   5.554  1.00  0.00     0.005 C
HETATM    9  C21 UNL     1      16.363  20.047   6.073  1.00  0.00     0.011 C
HETATM   10  C22 UNL     1      17.092  21.126   6.814  1.00  0.00     0.001 C
HETATM   11  C23 UNL     1      18.387  20.601   7.329  1.00  0.00     0.037 C
HETATM   12  C24 UNL     1      18.312  19.671   8.475  1.00  0.00     0.118 C
HETATM   13  C25 UNL     1      17.239  19.935   9.472  1.00  0.00     0.033 C
HETATM   14  C26 UNL     1      15.972  20.497   8.885  1.00  0.00     0.016 C
HETATM   15  C27 UNL     1      16.238  21.615   7.928  1.00  0.00    -0.017 C
HETATM   16  C28 UNL     1      16.856  22.764   8.694  1.00  0.00     0.020 C
HETATM   17  C29 UNL     1      13.367  22.333   5.427  1.00  0.00    -0.004 C
HETATM   18  C30 UNL     1      12.237  21.370   5.570  1.00  0.00     0.019 C
HETATM   19  C31 UNL     1      13.324  23.042   4.093  1.00  0.00     0.156 C
ENDROOT
BRANCH   1  20
HETATM   20  O2  UNL     1      12.040  24.900   3.317  1.00  0.00    -0.383 OA
BRANCH  20  21
HETATM   21  C10 UNL     1      11.391  24.476   2.140  1.00  0.00     0.168 C
BRANCH  21  22
HETATM   22  C9  UNL     1       9.991  24.036   2.550  1.00  0.00     0.030 C
BRANCH  22  23
HETATM   23  C8  UNL     1       9.076  25.212   2.634  1.00  0.00     0.029 C
BRANCH  23  24
HETATM   24  C7  UNL     1       8.278  25.390   3.835  1.00  0.00    -0.030 C
HETATM   25  C6  UNL     1       8.022  26.578   4.614  1.00  0.00    -0.022 C
BRANCH  25  26
HETATM   26  C5  UNL     1       9.002  27.487   5.185  1.00  0.00     0.129 C
BRANCH  26  27
HETATM   27  C4  UNL     1       9.155  27.502   6.674  1.00  0.00     0.221 C
HETATM   28  N1  UNL     1       9.342  26.290   7.325  1.00  0.00    -0.361 N
ATOM     29  H1  UNL     1       9.357  25.491   6.692  1.00  0.00     0.162 HD
HETATM   30  O1  UNL     1       9.103  28.593   7.232  1.00  0.00    -0.273 OA
BRANCH  28  31
HETATM   31  C3  UNL     1       9.516  25.930   8.685  1.00  0.00     0.122 C
BRANCH  31  32
HETATM   32  C2  UNL     1      10.868  25.705   9.238  1.00  0.00     0.015 C
HETATM   33  C1  UNL     1      11.927  26.640   8.779  1.00  0.00     0.006 C
ENDBRANCH  31  32
ENDBRANCH  28  31
ENDBRANCH  26  27
ENDBRANCH  25  26
ENDBRANCH  23  24
ENDBRANCH  22  23
ENDBRANCH  21  22
ENDBRANCH  20  21
ENDBRANCH   1  20
BRANCH  19  34
HETATM   34  O6  UNL     1      14.408  23.876   3.946  1.00  0.00    -0.392 OA
ATOM     35  H6  UNL     1      15.206  23.383   3.800  1.00  0.00     0.210 HD
ENDBRANCH  19  34
BRANCH   8  36
HETATM   36  C19 UNL     1      14.981  20.090   4.096  1.00  0.00     0.118 C
BRANCH  36  37
HETATM   37  C20 UNL     1      15.236  18.638   3.907  1.00  0.00     0.172 C
HETATM   38  O3  UNL     1      16.101  18.304   3.025  1.00  0.00    -0.648 OA
HETATM   39  O4  UNL     1      14.632  17.619   4.586  1.00  0.00    -0.648 OA
ENDBRANCH  36  37
ENDBRANCH   8  36
BRANCH  12  40
HETATM   40  O5  UNL     1      18.261  18.312   8.082  1.00  0.00    -0.396 OA
ATOM     41  H5  UNL     1      17.566  18.130   7.461  1.00  0.00     0.210 HD
ENDBRANCH  12  40
TORSDOF 13
ENDMDL