MODEL 3
REMARK VINA RESULT: -8.433068949      4.120      9.920
REMARK  14 active torsions:
REMARK  status: ('A' for Active; 'I' for Inactive)
REMARK    1  A    between atoms: C2_2  and  C3_3
REMARK    2  A    between atoms: C3_3  and  O1_4
REMARK    3  A    between atoms: O1_4  and  C4_5
REMARK       I    between atoms: C4_5  and  N1_7
REMARK    4  A    between atoms: N1_7  and  C5_9
REMARK    5  A    between atoms: C5_9  and  C6_10
REMARK    6  A    between atoms: C6_10  and  C7_11
REMARK    7  A    between atoms: C7_11  and  C8_12
REMARK    8  A    between atoms: C8_12  and  C9_13
REMARK    9  A    between atoms: C9_13  and  C10_14
REMARK   10  A    between atoms: C10_14  and  N2_15
REMARK       I    between atoms: N2_15  and  C11_17
REMARK   11  A    between atoms: N4_19  and  C12_21
REMARK   12  A    between atoms: C12_21  and  C13_22
REMARK   13  A    between atoms: C13_22  and  C14_23
REMARK   14  A    between atoms: C14_23  and  N5_24
ROOT
HETATM    1  C4  UNL     1      11.004  25.863   8.468  1.00  0.00     0.360 C
HETATM    2  O2  UNL     1      11.802  26.431   9.246  1.00  0.00    -0.239 OA
HETATM    3  N1  UNL     1       9.973  26.725   7.896  1.00  0.00    -0.337 N
ATOM      4  H1  UNL     1       9.282  26.336   7.254  1.00  0.00     0.164 HD
ENDROOT
BRANCH   1   5
HETATM    5  O1  UNL     1      11.100  24.545   8.188  1.00  0.00    -0.303 OA
BRANCH   5   6
HETATM    6  C3  UNL     1      12.095  23.790   7.688  1.00  0.00     0.190 C
BRANCH   6   7
HETATM    7  C2  UNL     1      12.733  24.092   6.362  1.00  0.00    -0.018 C
HETATM    8  C1  UNL     1      12.042  25.052   5.479  1.00  0.00     0.018 C
HETATM    9  C15 UNL     1      14.138  24.634   6.754  1.00  0.00     0.012 C
HETATM   10  C16 UNL     1      14.970  23.379   6.902  1.00  0.00     0.011 C
HETATM   11  C17 UNL     1      14.585  22.697   5.581  1.00  0.00    -0.036 C
HETATM   12  C18 UNL     1      15.206  23.450   4.477  1.00  0.00     0.016 C
HETATM   13  C19 UNL     1      14.907  21.224   5.611  1.00  0.00    -0.002 C
HETATM   14  C31 UNL     1      13.088  22.789   5.697  1.00  0.00     0.004 C
HETATM   15  C20 UNL     1      16.374  20.929   5.410  1.00  0.00     0.007 C
HETATM   16  C28 UNL     1      13.975  20.459   4.736  1.00  0.00    -0.004 C
HETATM   17  C21 UNL     1      16.449  19.414   5.682  1.00  0.00     0.018 C
HETATM   18  C22 UNL     1      15.876  18.808   4.439  1.00  0.00     0.021 C
HETATM   19  C23 UNL     1      16.005  17.290   4.524  1.00  0.00     0.024 C
HETATM   20  C24 UNL     1      16.783  19.244   3.314  1.00  0.00     0.135 C
HETATM   21  C27 UNL     1      14.500  19.252   4.088  1.00  0.00     0.006 C
HETATM   22  O3  UNL     1      17.975  19.090   3.345  1.00  0.00    -0.297 OA
HETATM   23  C25 UNL     1      15.957  19.852   2.245  1.00  0.00     0.079 C
HETATM   24  C26 UNL     1      14.590  19.315   2.572  1.00  0.00     0.013 C
HETATM   25  C29 UNL     1      13.231  21.352   3.728  1.00  0.00     0.006 C
HETATM   26  C30 UNL     1      12.479  22.480   4.401  1.00  0.00     0.006 C
ENDBRANCH   6   7
ENDBRANCH   5   6
ENDBRANCH   1   5
BRANCH   3  27
HETATM   27  C5  UNL     1       9.931  28.104   8.233  1.00  0.00     0.125 C
BRANCH  27  28
HETATM   28  C6  UNL     1       8.577  28.696   8.327  1.00  0.00     0.020 C
BRANCH  28  29
HETATM   29  C7  UNL     1       7.830  28.899   7.064  1.00  0.00     0.002 C
BRANCH  29  30
HETATM   30  C8  UNL     1       6.944  27.822   6.580  1.00  0.00     0.002 C
BRANCH  30  31
HETATM   31  C9  UNL     1       7.232  27.476   5.113  1.00  0.00     0.020 C
BRANCH  31  32
HETATM   32  C10 UNL     1       8.584  28.011   4.683  1.00  0.00     0.122 C
BRANCH  32  33
HETATM   33  N2  UNL     1       8.725  28.097   3.258  1.00  0.00    -0.365 N
HETATM   34  C11 UNL     1       8.719  26.924   2.474  1.00  0.00     0.183 C
HETATM   35  N3  UNL     1       7.642  26.530   1.637  1.00  0.00    -0.064 NA
HETATM   36  N4  UNL     1       9.777  26.170   2.536  1.00  0.00    -0.365 N
ATOM     37  H4  UNL     1      10.541  26.469   3.143  1.00  0.00     0.162 HD
ATOM     38  H2  UNL     1       8.829  29.007   2.811  1.00  0.00     0.162 HD
BRANCH  36  39
HETATM   39  C12 UNL     1       9.941  24.945   1.808  1.00  0.00     0.124 C
BRANCH  39  40
HETATM   40  C13 UNL     1       9.836  23.771   2.734  1.00  0.00     0.047 C
BRANCH  40  41
HETATM   41  C14 UNL     1       8.437  23.233   2.713  1.00  0.00     0.231 C
BRANCH  41  42
HETATM   42  N5  UNL     1       7.568  23.874   3.679  1.00  0.00    -0.079 N
ATOM     43  H53 UNL     1       7.694  23.468   4.606  1.00  0.00     0.274 HD
ATOM     44  H52 UNL     1       7.878  24.827   3.870  1.00  0.00     0.274 HD
ATOM     45  H51 UNL     1       6.586  23.858   3.405  1.00  0.00     0.274 HD
ENDBRANCH  41  42
ENDBRANCH  40  41
ENDBRANCH  39  40
ENDBRANCH  36  39
ENDBRANCH  32  33
ENDBRANCH  31  32
ENDBRANCH  30  31
ENDBRANCH  29  30
ENDBRANCH  28  29
ENDBRANCH  27  28
ENDBRANCH   3  27
TORSDOF 14
ENDMDL