MODEL 5
REMARK VINA RESULT: -8.302174779      1.234      1.743
REMARK  14 active torsions:
REMARK  status: ('A' for Active; 'I' for Inactive)
REMARK    1  A    between atoms: C4_4  and  S1_5
REMARK    2  A    between atoms: S1_5  and  N1_8
REMARK    3  A    between atoms: N1_8  and  C5_10
REMARK    4  A    between atoms: C5_10  and  C6_11
REMARK    5  A    between atoms: C6_11  and  C7_12
REMARK    6  A    between atoms: C7_12  and  C8_13
REMARK    7  A    between atoms: C8_13  and  C9_14
REMARK    8  A    between atoms: C16_23  and  N3_24
REMARK    9  A    between atoms: N3_24  and  C17_26
REMARK   10  A    between atoms: C17_26  and  N4_28
REMARK   11  A    between atoms: N4_28  and  C18_30
REMARK   12  A    between atoms: C18_30  and  C19_31
REMARK   13  A    between atoms: C19_31  and  S3_32
REMARK   14  A    between atoms: S3_32  and  C20_33
ROOT
HETATM    1  C1  UNL     1      11.726  22.373   6.583  1.00  0.00     0.050 C
HETATM    2  C2  UNL     1      11.803  23.765   7.064  1.00  0.00    -0.034 A
HETATM    3  C3  UNL     1      10.773  24.641   6.800  1.00  0.00     0.034 A
HETATM    4  C4  UNL     1      10.791  25.944   7.227  1.00  0.00     0.080 A
HETATM    5  C14 UNL     1      11.888  26.352   7.938  1.00  0.00     0.027 A
HETATM    6  C15 UNL     1      12.944  25.460   8.209  1.00  0.00     0.031 A
HETATM    7  C16 UNL     1      12.935  24.162   7.789  1.00  0.00     0.040 A
ENDROOT
BRANCH   4   8
HETATM    8  S1  UNL     1       9.455  27.023   6.877  1.00  0.00     0.258 S
HETATM    9  O1  UNL     1       9.758  28.341   7.533  1.00  0.00    -0.201 OA
HETATM   10  O2  UNL     1       8.176  26.522   7.478  1.00  0.00    -0.201 OA
BRANCH   8  11
HETATM   11  N1  UNL     1       9.271  27.296   5.204  1.00  0.00    -0.315 N
ATOM     12  H1  UNL     1       9.910  26.921   4.503  1.00  0.00     0.172 HD
BRANCH  11  13
HETATM   13  C5  UNL     1       8.142  28.095   4.881  1.00  0.00     0.132 C
BRANCH  13  14
HETATM   14  C6  UNL     1       6.990  27.272   4.419  1.00  0.00     0.020 C
BRANCH  14  15
HETATM   15  C7  UNL     1       7.257  25.916   3.882  1.00  0.00     0.004 C
BRANCH  15  16
HETATM   16  C8  UNL     1       7.454  25.871   2.429  1.00  0.00     0.025 C
BRANCH  16  17
HETATM   17  C9  UNL     1       8.521  24.816   2.030  1.00  0.00     0.080 C
HETATM   18  C10 UNL     1       9.882  25.377   2.050  1.00  0.00     0.025 C
HETATM   19  C11 UNL     1      10.848  24.693   2.981  1.00  0.00     0.007 C
HETATM   20  C12 UNL     1      10.692  23.198   2.763  1.00  0.00     0.044 C
HETATM   21  C13 UNL     1       9.320  22.847   3.237  1.00  0.00     0.056 C
HETATM   22  N2  UNL     1       8.263  23.602   2.697  1.00  0.00    -0.398 N
ATOM     23  H2  UNL     1       7.304  23.268   2.789  1.00  0.00     0.159 HD
ENDBRANCH  16  17
ENDBRANCH  15  16
ENDBRANCH  14  15
ENDBRANCH  13  14
ENDBRANCH  11  13
ENDBRANCH   8  11
ENDBRANCH   4   8
BRANCH   7  24
HETATM   24  N3  UNL     1      13.940  23.204   7.987  1.00  0.00    -0.333 N
ATOM     25  H3  UNL     1      13.745  22.543   8.738  1.00  0.00     0.168 HD
BRANCH  24  26
HETATM   26  C17 UNL     1      15.161  22.992   7.342  1.00  0.00     0.172 C
HETATM   27  S2  UNL     1      16.179  21.801   7.701  1.00  0.00    -0.041 SA
BRANCH  26  28
HETATM   28  N4  UNL     1      15.545  23.852   6.258  1.00  0.00    -0.366 N
ATOM     29  H4  UNL     1      16.329  24.489   6.395  1.00  0.00     0.161 HD
BRANCH  28  30
HETATM   30  C18 UNL     1      14.875  23.854   4.992  1.00  0.00     0.132 C
BRANCH  30  31
HETATM   31  C19 UNL     1      15.351  22.831   4.008  1.00  0.00     0.094 C
BRANCH  31  32
HETATM   32  S3  UNL     1      14.008  21.613   3.713  1.00  0.00    -0.163 SA
BRANCH  32  33
HETATM   33  C20 UNL     1      14.715  19.958   3.497  1.00  0.00     0.047 C
HETATM   34  C21 UNL     1      14.543  19.084   4.719  1.00  0.00     0.015 C
HETATM   35  C22 UNL     1      14.913  17.667   4.305  1.00  0.00     0.001 C
HETATM   36  C23 UNL     1      16.386  17.458   4.185  1.00  0.00     0.000 C
HETATM   37  C24 UNL     1      16.947  17.676   2.809  1.00  0.00     0.000 C
HETATM   38  C25 UNL     1      16.430  18.909   2.138  1.00  0.00     0.001 C
HETATM   39  C26 UNL     1      16.169  19.987   3.167  1.00  0.00     0.015 C
ENDBRANCH  32  33
ENDBRANCH  31  32
ENDBRANCH  30  31
ENDBRANCH  28  30
ENDBRANCH  26  28
ENDBRANCH  24  26
ENDBRANCH   7  24
TORSDOF 14
ENDMDL