MODEL 4
REMARK VINA RESULT: -6.698159828      0.432      1.817
REMARK  6 active torsions:
REMARK  status: ('A' for Active; 'I' for Inactive)
REMARK    1  A    between atoms: O1_1  and  N1_3
REMARK    2  A    between atoms: C1_5  and  C2_6
REMARK    3  A    between atoms: C1_5  and  C10_16
REMARK    4  A    between atoms: C2_6  and  N2_7
REMARK    5  A    between atoms: N2_7  and  C3_9
REMARK    6  A    between atoms: C3_9  and  C4_10
ROOT
HETATM    1  C2  UNL     1      10.968  16.615   0.381  1.00  0.00     0.114 C
ENDROOT
BRANCH   1   2
HETATM    2  C1  UNL     1      12.297  16.631   0.987  1.00  0.00     0.100 C
HETATM    3  N1  UNL     1      13.344  16.579   0.250  1.00  0.00    -0.268 N
ATOM      4  H1  UNL     1      14.264  16.592   0.689  1.00  0.00     0.194 HD
BRANCH   3   5
HETATM    5  O1  UNL     1      13.253  16.507  -1.110  1.00  0.00    -0.290 OA
ATOM      6  H1  UNL     1      12.430  16.657  -1.560  1.00  0.00     0.244 HD
ENDBRANCH   3   5
BRANCH   2   7
HETATM    7  C10 UNL     1      12.473  16.701   2.455  1.00  0.00     0.234 C
HETATM    8 CL1  UNL     1      12.840  15.135   3.199  1.00  0.00    -0.077 Cl
HETATM    9 CL2  UNL     1      11.054  17.461   3.166  1.00  0.00    -0.077 Cl
HETATM   10 CL3  UNL     1      13.887  17.754   2.747  1.00  0.00    -0.077 Cl
ENDBRANCH   2   7
ENDBRANCH   1   2
BRANCH   1  11
HETATM   11  N2  UNL     1      10.449  15.363  -0.002  1.00  0.00    -0.397 N
ATOM     12  H2  UNL     1      10.009  15.242  -0.915  1.00  0.00     0.158 HD
BRANCH  11  13
HETATM   13  C3  UNL     1      10.547  14.276   0.896  1.00  0.00     0.123 C
BRANCH  13  14
HETATM   14  C4  UNL     1       9.209  13.908   1.558  1.00  0.00     0.003 C
HETATM   15  C5  UNL     1       9.137  14.363   2.961  1.00  0.00     0.006 C
HETATM   16  C6  UNL     1       7.839  14.799   3.487  1.00  0.00     0.000 C
HETATM   17  C7  UNL     1       6.687  14.835   2.565  1.00  0.00     0.000 C
HETATM   18  C8  UNL     1       6.804  13.983   1.332  1.00  0.00     0.000 C
HETATM   19  C9  UNL     1       8.111  14.406   0.670  1.00  0.00     0.006 C
ENDBRANCH  13  14
ENDBRANCH  11  13
ENDBRANCH   1  11
TORSDOF 6
ENDMDL