MODEL 2
REMARK VINA RESULT: -6.958416538      0.167      1.233
REMARK  7 active torsions:
REMARK  status: ('A' for Active; 'I' for Inactive)
REMARK    1  A    between atoms: C2_2  and  C3_3
REMARK    2  A    between atoms: C2_2  and  C5_11
REMARK    3  A    between atoms: C3_3  and  C4_4
REMARK    4  A    between atoms: C4_4  and  O1_5
REMARK    5  A    between atoms: N1_7  and  O2_9
REMARK    6  A    between atoms: C5_11  and  C6_13
REMARK    7  A    between atoms: C6_13  and  C9_16
ROOT
HETATM    1  C1  UNL     1       8.568  15.363  -0.395  1.00  0.00     0.018 C
HETATM    2  C2  UNL     1       9.890  15.531   0.339  1.00  0.00     0.060 C
ENDROOT
BRANCH   2   3
HETATM    3  C3  UNL     1      10.969  15.630  -0.701  1.00  0.00     0.097 C
BRANCH   3   4
HETATM    4  C4  UNL     1      11.550  16.937  -0.946  1.00  0.00     0.135 C
HETATM    5  N1  UNL     1      12.833  17.157  -0.658  1.00  0.00    -0.251 N
ATOM      6  H1  UNL     1      13.225  18.081  -0.835  1.00  0.00     0.196 HD
BRANCH   4   7
HETATM    7  O1  UNL     1      10.946  18.061  -1.461  1.00  0.00    -0.348 OA
ATOM      8  H1  UNL     1      10.668  18.846  -1.004  1.00  0.00     0.219 HD
ENDBRANCH   4   7
BRANCH   5   9
HETATM    9  O2  UNL     1      13.629  16.202  -0.141  1.00  0.00    -0.288 OA
ATOM     10  H2  UNL     1      14.264  16.384   0.542  1.00  0.00     0.244 HD
ENDBRANCH   5   9
ENDBRANCH   3   4
ENDBRANCH   2   3
BRANCH   2  11
HETATM   11  C5  UNL     1      10.089  14.518   1.379  1.00  0.00     0.143 C
HETATM   12  O3  UNL     1      10.535  13.427   0.948  1.00  0.00    -0.297 OA
BRANCH  11  13
HETATM   13  C6  UNL     1       9.852  14.561   2.809  1.00  0.00     0.063 C
HETATM   14  C7  UNL     1      10.276  15.918   3.416  1.00  0.00     0.027 C
HETATM   15  C8  UNL     1      10.802  13.570   3.553  1.00  0.00     0.027 C
BRANCH  13  16
HETATM   16  C9  UNL     1       8.509  14.201   3.347  1.00  0.00     0.202 C
HETATM   17 CL1  UNL     1       7.587  13.267   2.117  1.00  0.00    -0.083 Cl
HETATM   18 CL2  UNL     1       8.858  12.925   4.618  1.00  0.00    -0.083 Cl
HETATM   19 CL3  UNL     1       7.595  15.486   4.087  1.00  0.00    -0.083 Cl
ENDBRANCH  13  16
ENDBRANCH  11  13
ENDBRANCH   2  11
TORSDOF 7
ENDMDL