MODEL 5
REMARK VINA RESULT: -6.808190760      3.649      6.025
REMARK  4 active torsions:
REMARK  status: ('A' for Active; 'I' for Inactive)
REMARK    1  A    between atoms: C2_2  and  C3_3
REMARK    2  A    between atoms: C4_8  and  C5_9
REMARK    3  A    between atoms: C5_9  and  C6_10
REMARK    4  A    between atoms: C10_16  and  O1_17
ROOT
HETATM    1  C6  UNL     1      10.932  14.684   2.518  1.00  0.00    -0.024 A
HETATM    2  C7  UNL     1      11.986  15.537   2.383  1.00  0.00     0.053 A
HETATM    3  C8  UNL     1      12.107  16.311   1.232  1.00  0.00     0.141 A
HETATM    4  F1  UNL     1      13.162  17.154   1.114  1.00  0.00    -0.204 F
HETATM    5  C9  UNL     1      11.171  16.233   0.208  1.00  0.00     0.107 A
HETATM    6 CL1  UNL     1      11.328  17.218  -1.251  1.00  0.00    -0.078 Cl
HETATM    7  C10 UNL     1      10.100  15.368   0.345  1.00  0.00     0.112 A
HETATM    8  C11 UNL     1      10.004  14.616   1.491  1.00  0.00     0.075 A
HETATM    9 CL2  UNL     1       8.619  13.524   1.620  1.00  0.00    -0.081 Cl
ENDROOT
BRANCH   1  10
HETATM   10  C5  UNL     1      10.696  13.814   3.692  1.00  0.00     0.118 C
BRANCH  10  11
HETATM   11  C4  UNL     1      11.482  12.566   3.624  1.00  0.00     0.101 A
HETATM   12  N2  UNL     1      11.126  11.420   3.017  1.00  0.00    -0.287 N
HETATM   13  N1  UNL     1      12.097  10.505   3.166  1.00  0.00    -0.288 N
ATOM     14  H2  UNL     1      10.249  11.269   2.518  1.00  0.00     0.188 HD
HETATM   15  C3  UNL     1      13.077  11.058   3.866  1.00  0.00     0.096 A
ATOM     16  H1  UNL     1      12.083   9.552   2.803  1.00  0.00     0.188 HD
HETATM   17  N3  UNL     1      12.708  12.310   4.147  1.00  0.00    -0.333 N
ATOM     18  H3  UNL     1      13.267  12.978   4.677  1.00  0.00     0.168 HD
BRANCH  15  19
HETATM   19  C2  UNL     1      14.355  10.384   4.261  1.00  0.00     0.073 C
HETATM   20  C1  UNL     1      15.231  11.297   5.052  1.00  0.00     0.013 C
ENDBRANCH  15  19
ENDBRANCH  10  11
ENDBRANCH   1  10
BRANCH   7  21
HETATM   21  O1  UNL     1       9.146  15.272  -0.668  1.00  0.00    -0.357 OA
ATOM     22  H1  UNL     1       8.243  15.507  -0.493  1.00  0.00     0.217 HD
ENDBRANCH   7  21
TORSDOF 4
ENDMDL