MODEL 5
REMARK VINA RESULT: -6.649655346      4.378      5.741
REMARK  3 active torsions:
REMARK  status: ('A' for Active; 'I' for Inactive)
REMARK    1  A    between atoms: N1_1  and  N2_4
REMARK    2  A    between atoms: C1_5  and  C2_6
REMARK    3  A    between atoms: C4_8  and  C5_9
ROOT
HETATM    1  N2  UNL     1      10.804  15.087   1.219  1.00  0.00    -0.217 N
HETATM    2  C1  UNL     1       9.927  14.152   1.558  1.00  0.00     0.156 A
HETATM    3  N3  UNL     1       9.028  14.134   0.536  1.00  0.00    -0.281 N
ATOM      4  H3  UNL     1       8.218  13.516   0.492  1.00  0.00     0.188 HD
HETATM    5  N4  UNL     1       9.338  15.009  -0.378  1.00  0.00    -0.273 N
ATOM      6  H4  UNL     1       8.821  15.186  -1.239  1.00  0.00     0.189 HD
HETATM    7  C9  UNL     1      10.456  15.635   0.012  1.00  0.00     0.213 A
HETATM    8  S1  UNL     1      11.239  16.801  -0.778  1.00  0.00    -0.037 SA
ENDROOT
BRANCH   2   9
HETATM    9  C2  UNL     1       9.864  13.304   2.720  1.00  0.00     0.034 A
HETATM   10  C3  UNL     1      10.614  12.188   2.969  1.00  0.00     0.029 A
HETATM   11  C4  UNL     1      10.497  11.412   4.124  1.00  0.00     0.010 A
HETATM   12  C6  UNL     1       9.580  11.778   5.080  1.00  0.00     0.126 A
HETATM   13  F2  UNL     1       9.448  11.043   6.207  1.00  0.00    -0.205 F
HETATM   14  C7  UNL     1       8.800  12.901   4.868  1.00  0.00     0.067 A
HETATM   15  C8  UNL     1       8.940  13.643   3.720  1.00  0.00     0.051 A
HETATM   16 CL1  UNL     1       7.898  15.057   3.547  1.00  0.00    -0.083 Cl
BRANCH  11  17
HETATM   17  C5  UNL     1      11.346  10.210   4.329  1.00  0.00     0.263 C
HETATM   18  F1  UNL     1      11.235   9.293   3.312  1.00  0.00    -0.250 F
ENDBRANCH  11  17
ENDBRANCH   2   9
BRANCH   1  19
HETATM   19  N1  UNL     1      11.930  15.506   1.924  1.00  0.00    -0.335 N
ATOM     20  H12 UNL     1      11.869  15.867   2.876  1.00  0.00     0.177 HD
ATOM     21  H11 UNL     1      12.902  15.510   1.613  1.00  0.00     0.177 HD
ENDBRANCH   1  19
TORSDOF 3
ENDMDL