MODEL 3
REMARK VINA RESULT: -6.984658800      1.732      3.064
REMARK  5 active torsions:
REMARK  status: ('A' for Active; 'I' for Inactive)
REMARK    1  A    between atoms: C4_5  and  O1_6
REMARK    2  A    between atoms: C5_8  and  C6_9
REMARK    3  A    between atoms: C6_9  and  C7_11
REMARK    4  A    between atoms: C7_11  and  C8_12
REMARK    5  A    between atoms: C8_12  and  O3_13
ROOT
HETATM    1  C1  UNL     1       7.997  12.799   3.991  1.00  0.00     0.052 C
HETATM    2  C2  UNL     1       8.753  13.568   2.963  1.00  0.00    -0.014 A
HETATM    3  C3  UNL     1       8.178  13.929   1.764  1.00  0.00     0.075 A
HETATM    4 CL1  UNL     1       6.522  13.455   1.484  1.00  0.00    -0.081 Cl
HETATM    5  C4  UNL     1       8.895  14.640   0.828  1.00  0.00     0.103 A
HETATM    6  C5  UNL     1      10.228  15.031   1.035  1.00  0.00     0.068 A
HETATM    7  C9  UNL     1      10.782  14.663   2.231  1.00  0.00     0.073 A
HETATM    8 CL2  UNL     1      12.424  15.075   2.632  1.00  0.00    -0.081 Cl
HETATM    9  C10 UNL     1      10.058  13.942   3.181  1.00  0.00     0.064 A
HETATM   10 CL3  UNL     1      10.777  13.477   4.710  1.00  0.00    -0.082 Cl
ENDROOT
BRANCH   6  11
HETATM   11  C6  UNL     1      10.919  15.783  -0.009  1.00  0.00     0.166 C
HETATM   12  O2  UNL     1      10.846  15.362  -1.220  1.00  0.00    -0.292 OA
BRANCH  11  13
HETATM   13  C7  UNL     1      11.710  17.006   0.182  1.00  0.00     0.110 C
BRANCH  13  14
HETATM   14  C8  UNL     1      12.864  17.044  -0.841  1.00  0.00     0.171 C
BRANCH  14  15
HETATM   15  O3  UNL     1      13.889  16.209  -0.396  1.00  0.00    -0.400 OA
ATOM     16  H3  UNL     1      13.945  15.457  -0.974  1.00  0.00     0.209 HD
ENDBRANCH  14  15
ENDBRANCH  13  14
ENDBRANCH  11  13
ENDBRANCH   6  11
BRANCH   5  17
HETATM   17  O1  UNL     1       8.304  14.995  -0.368  1.00  0.00    -0.358 OA
ATOM     18  H1  UNL     1       8.653  14.662  -1.187  1.00  0.00     0.217 HD
ENDBRANCH   5  17
TORSDOF 5
ENDMDL