MODEL 3
REMARK VINA RESULT: -6.437279764      3.514      5.356
REMARK  6 active torsions:
REMARK  status: ('A' for Active; 'I' for Inactive)
REMARK    1  A    between atoms: C5_7  and  C6_8
REMARK    2  A    between atoms: C6_8  and  C7_9
REMARK    3  A    between atoms: C7_9  and  N2_10
REMARK    4  A    between atoms: C8_14  and  N3_15
REMARK    5  A    between atoms: N3_15  and  O1_17
REMARK    6  A    between atoms: C10_20  and  C11_21
ROOT
HETATM    1  C1  UNL     1      13.019  12.232   5.976  1.00  0.00     0.050 C
HETATM    2  C2  UNL     1      12.217  12.932   4.904  1.00  0.00    -0.037 A
HETATM    3  C3  UNL     1      12.790  13.892   4.109  1.00  0.00     0.039 A
HETATM    4  C4  UNL     1      12.062  14.530   3.125  1.00  0.00     0.046 A
HETATM    5  N1  UNL     1      12.361  15.486   2.227  1.00  0.00    -0.357 N
ATOM      6  H1  UNL     1      13.280  15.921   2.139  1.00  0.00     0.166 HD
HETATM    7  C5  UNL     1      11.320  15.794   1.471  1.00  0.00     0.041 A
HETATM    8  C8  UNL     1      10.244  15.018   1.859  1.00  0.00     0.090 A
HETATM    9  C9  UNL     1      10.712  14.223   2.900  1.00  0.00     0.035 A
HETATM   10  C10 UNL     1      10.165  13.259   3.709  1.00  0.00     0.043 A
HETATM   11  C12 UNL     1      10.905  12.607   4.714  1.00  0.00     0.052 A
HETATM   12 CL1  UNL     1      10.166  11.381   5.730  1.00  0.00    -0.083 Cl
ENDROOT
BRANCH   7  13
HETATM   13  C6  UNL     1      11.245  16.784   0.357  1.00  0.00     0.086 C
BRANCH  13  14
HETATM   14  C7  UNL     1      12.091  16.457  -0.815  1.00  0.00     0.235 C
BRANCH  14  15
HETATM   15  N2  UNL     1      13.444  16.889  -0.792  1.00  0.00    -0.079 N
ATOM     16  H23 UNL     1      13.474  17.888  -0.584  1.00  0.00     0.274 HD
ATOM     17  H22 UNL     1      13.906  16.507   0.033  1.00  0.00     0.274 HD
ATOM     18  H21 UNL     1      14.015  16.699  -1.615  1.00  0.00     0.274 HD
ENDBRANCH  14  15
ENDBRANCH  13  14
ENDBRANCH   7  13
BRANCH   8  19
HETATM   19  N3  UNL     1       8.923  15.056   1.309  1.00  0.00    -0.267 N
ATOM     20  H3  UNL     1       8.210  15.658   1.720  1.00  0.00     0.194 HD
BRANCH  19  21
HETATM   21  O1  UNL     1       8.652  14.333   0.304  1.00  0.00    -0.289 OA
ATOM     22  H1  UNL     1       7.797  13.925   0.246  1.00  0.00     0.244 HD
ENDBRANCH  19  21
ENDBRANCH   8  19
BRANCH  10  23
HETATM   23  C11 UNL     1       8.751  12.844   3.547  1.00  0.00     0.389 C
HETATM   24  F1  UNL     1       8.051  13.369   4.650  1.00  0.00    -0.209 F
HETATM   25  F2  UNL     1       8.623  11.465   3.688  1.00  0.00    -0.209 F
ENDBRANCH  10  23
TORSDOF 6
ENDMDL