MODEL 1
REMARK VINA RESULT: -6.862300582      0.000      0.000
REMARK  3 active torsions:
REMARK  status: ('A' for Active; 'I' for Inactive)
REMARK    1  A    between atoms: C3_5  and  C4_6
REMARK    2  A    between atoms: C4_6  and  C5_7
REMARK    3  A    between atoms: C5_7  and  C6_8
ROOT
HETATM    1  C6  UNL     1       9.580  14.653   1.008  1.00  0.00     0.083 C
HETATM    2  C7  UNL     1       9.061  15.313  -0.228  1.00  0.00     0.031 C
HETATM    3  C8  UNL     1      10.233  15.513  -1.175  1.00  0.00     0.089 C
HETATM    4  C9  UNL     1      11.167  16.566  -0.634  1.00  0.00     0.300 C
HETATM    5  F1  UNL     1      12.366  16.523  -1.319  1.00  0.00    -0.198 F
HETATM    6  F2  UNL     1      10.636  17.824  -0.837  1.00  0.00    -0.198 F
HETATM    7  C10 UNL     1      11.433  16.304   0.802  1.00  0.00     0.144 C
HETATM    8  N2  UNL     1      12.516  16.802   1.348  1.00  0.00    -0.384 N
ATOM      9  H21 UNL     1      12.698  16.621   2.336  1.00  0.00     0.157 HD
ATOM     10  H22 UNL     1      13.144  17.357   0.767  1.00  0.00     0.157 HD
HETATM   11  N3  UNL     1      10.558  15.532   1.611  1.00  0.00    -0.370 N
ATOM     12  H3  UNL     1      10.619  15.598   2.627  1.00  0.00     0.161 HD
ENDROOT
BRANCH   1  13
HETATM   13  C5  UNL     1       8.512  14.265   1.979  1.00  0.00     0.031 C
BRANCH  13  14
HETATM   14  C4  UNL     1       8.926  14.550   3.395  1.00  0.00     0.059 C
BRANCH  14  15
HETATM   15  C3  UNL     1       9.487  13.316   4.068  1.00  0.00     0.016 A
HETATM   16  N1  UNL     1       8.767  12.277   4.342  1.00  0.00    -0.357 N
HETATM   17  C2  UNL     1       9.311  11.227   4.931  1.00  0.00     0.046 A
ATOM     18  H1  UNL     1       7.776  12.268   4.102  1.00  0.00     0.166 HD
HETATM   19  C1  UNL     1       8.713   9.920   5.351  1.00  0.00     0.076 C
HETATM   20  S1  UNL     1      10.929  11.712   5.121  1.00  0.00    -0.087 SA
HETATM   21  C11 UNL     1      10.815  13.283   4.411  1.00  0.00     0.076 A
ENDBRANCH  14  15
ENDBRANCH  13  14
ENDBRANCH   1  13
TORSDOF 3
ENDMDL