MODEL 3
REMARK VINA RESULT: -6.446585442      2.449      3.608
REMARK  5 active torsions:
REMARK  status: ('A' for Active; 'I' for Inactive)
REMARK    1  A    between atoms: C2_2  and  C3_5
REMARK    2  A    between atoms: C3_5  and  O2_7
REMARK    3  A    between atoms: O2_7  and  C4_8
REMARK    4  A    between atoms: C7_14  and  C8_15
REMARK    5  A    between atoms: C9_16  and  C10_17
ROOT
HETATM    1  C4  UNL     1      10.990  14.506   2.036  1.00  0.00     0.108 A
HETATM    2  C5  UNL     1      11.636  14.114   3.209  1.00  0.00     0.127 A
HETATM    3  N1  UNL     1      12.521  15.040   3.577  1.00  0.00    -0.351 N
ATOM      4  H1  UNL     1      13.124  14.998   4.399  1.00  0.00     0.166 HD
HETATM    5  C6  UNL     1      12.482  16.031   2.688  1.00  0.00     0.129 A
HETATM    6  N2  UNL     1      13.300  17.191   2.769  1.00  0.00    -0.082 NA
HETATM    7  C7  UNL     1      11.532  15.728   1.708  1.00  0.00     0.040 A
ENDROOT
BRANCH   1   8
HETATM    8  O2  UNL     1      10.000  13.773   1.365  1.00  0.00    -0.274 OA
BRANCH   8   9
HETATM    9  C3  UNL     1       8.658  14.208   1.413  1.00  0.00     0.303 C
HETATM   10  O1  UNL     1       8.229  14.770   0.380  1.00  0.00    -0.261 OA
BRANCH   9  11
HETATM   11  C2  UNL     1       7.787  14.034   2.577  1.00  0.00     0.197 C
HETATM   12  C1  UNL     1       8.020  12.672   3.173  1.00  0.00     0.061 C
HETATM   13 CL1  UNL     1       6.062  14.165   2.165  1.00  0.00    -0.091 Cl
HETATM   14 CL2  UNL     1       8.152  15.243   3.856  1.00  0.00    -0.091 Cl
ENDBRANCH   9  11
ENDBRANCH   8   9
ENDBRANCH   1   8
BRANCH   7  15
HETATM   15  C8  UNL     1      11.208  16.595   0.590  1.00  0.00     0.016 C
HETATM   16  C9  UNL     1      11.823  16.672  -0.551  1.00  0.00     0.005 C
BRANCH  16  17
HETATM   17  C10 UNL     1      11.411  17.603  -1.642  1.00  0.00     0.249 C
HETATM   18  F1  UNL     1      10.326  18.369  -1.296  1.00  0.00    -0.251 F
ENDBRANCH  16  17
ENDBRANCH   7  15
TORSDOF 5
ENDMDL