MODEL 3
REMARK VINA RESULT: -6.949375338      2.809      3.891
REMARK  4 active torsions:
REMARK  status: ('A' for Active; 'I' for Inactive)
REMARK    1  A    between atoms: C4_4  and  C5_5
REMARK    2  A    between atoms: C5_5  and  C6_6
REMARK    3  A    between atoms: C6_6  and  C7_8
REMARK    4  A    between atoms: C11_17  and  O2_18
ROOT
HETATM    1  C7  UNL     1       9.006  14.587   2.438  1.00  0.00     0.084 A
HETATM    2  C8  UNL     1       8.448  14.383   1.193  1.00  0.00     0.121 A
HETATM    3 CL1  UNL     1       6.870  13.625   1.126  1.00  0.00    -0.063 Cl
HETATM    4  N1  UNL     1       9.060  14.737   0.049  1.00  0.00    -0.333 N
ATOM      5  H1  UNL     1       8.590  14.556  -0.839  1.00  0.00     0.168 HD
HETATM    6  C9  UNL     1      10.277  15.324   0.035  1.00  0.00     0.142 A
HETATM    7  N2  UNL     1      10.902  15.689  -1.190  1.00  0.00    -0.081 NA
HETATM    8  C10 UNL     1      10.873  15.548   1.259  1.00  0.00     0.109 A
HETATM    9 CL2  UNL     1      12.453  16.309   1.250  1.00  0.00    -0.078 Cl
HETATM   10  C11 UNL     1      10.252  15.186   2.449  1.00  0.00     0.107 A
ENDROOT
BRANCH   1  11
HETATM   11  C6  UNL     1       8.304  14.186   3.666  1.00  0.00     0.168 C
HETATM   12  O1  UNL     1       7.702  15.089   4.299  1.00  0.00    -0.292 OA
BRANCH  11  13
HETATM   13  C5  UNL     1       8.266  12.827   4.183  1.00  0.00     0.111 C
BRANCH  13  14
HETATM   14  C4  UNL     1       9.504  12.110   3.777  1.00  0.00    -0.017 C
HETATM   15  C2  UNL     1       9.822  10.925   4.274  1.00  0.00    -0.091 C
HETATM   16  C1  UNL     1      11.075  10.232   3.842  1.00  0.00     0.042 C
HETATM   17  C3  UNL     1       8.902  10.308   5.266  1.00  0.00     0.042 C
ENDBRANCH  13  14
ENDBRANCH  11  13
ENDBRANCH   1  11
BRANCH  10  18
HETATM   18  O2  UNL     1      10.887  15.429   3.653  1.00  0.00    -0.358 OA
ATOM     19  H2  UNL     1      11.420  14.750   4.050  1.00  0.00     0.217 HD
ENDBRANCH  10  18
TORSDOF 4
ENDMDL