MODEL 1
REMARK VINA RESULT: -7.358958719      0.000      0.000
REMARK  3 active torsions:
REMARK  status: ('A' for Active; 'I' for Inactive)
REMARK    1  A    between atoms: C2_2  and  C3_3
REMARK    2  A    between atoms: N3_8  and  N4_9
REMARK    3  A    between atoms: N4_9  and  C4_11
ROOT
HETATM    1  N4  UNL     1      10.914  16.005   2.811  1.00  0.00    -0.275 N
ATOM      2  H4  UNL     1      10.696  16.783   3.434  1.00  0.00     0.189 HD
ENDROOT
BRANCH   1   3
HETATM    3  N3  UNL     1      12.044  16.171   2.030  1.00  0.00    -0.168 N
HETATM    4  C3  UNL     1      12.142  16.541   0.714  1.00  0.00     0.138 A
HETATM    5  N1  UNL     1      13.465  16.439   0.844  1.00  0.00    -0.270 N
HETATM    6  N2  UNL     1      13.337  16.078   2.134  1.00  0.00    -0.218 N
ATOM      7  H1  UNL     1      14.257  16.579   0.217  1.00  0.00     0.190 HD
ATOM      8  H2  UNL     1      13.985  15.833   2.882  1.00  0.00     0.210 HD
BRANCH   4   9
HETATM    9  C2  UNL     1      11.185  16.904  -0.394  1.00  0.00     0.077 C
HETATM   10  C1  UNL     1      10.568  15.618  -0.886  1.00  0.00     0.013 C
ENDBRANCH   4   9
ENDBRANCH   1   3
BRANCH   1  11
HETATM   11  C4  UNL     1      10.026  14.923   2.870  1.00  0.00     0.075 A
HETATM   12  C5  UNL     1       8.872  14.857   2.165  1.00  0.00     0.056 A
HETATM   13  C6  UNL     1       8.008  13.743   2.258  1.00  0.00     0.037 A
HETATM   14 CL1  UNL     1       6.532  13.672   1.347  1.00  0.00    -0.084 Cl
HETATM   15  C7  UNL     1       8.341  12.692   3.086  1.00  0.00     0.049 A
HETATM   16  C8  UNL     1       9.507  12.731   3.814  1.00  0.00     0.059 A
HETATM   17 CL2  UNL     1       9.981  11.423   4.883  1.00  0.00    -0.082 Cl
HETATM   18  C9  UNL     1      10.321  13.836   3.694  1.00  0.00     0.084 A
HETATM   19 CL3  UNL     1      11.801  13.891   4.615  1.00  0.00    -0.080 Cl
ENDBRANCH   1  11
TORSDOF 3
ENDMDL