MODEL 3
REMARK VINA RESULT: -4.906141052      2.843      4.404
REMARK  4 active torsions:
REMARK  status: ('A' for Active; 'I' for Inactive)
REMARK    1  A    between atoms: C2_2  and  C3_3
REMARK    2  A    between atoms: C6_6  and  N1_7
REMARK    3  A    between atoms: C6_6  and  N2_14
REMARK       I    between atoms: N1_7  and  C7_9
REMARK    4  A    between atoms: C7_9  and  C8_11
REMARK       I    between atoms: N2_14  and  C11_16
REMARK       I    between atoms: C11_16  and  N3_18
ROOT
HETATM    1  C3  UNL     1      21.786 -25.905 -55.242  1.00  0.00     0.006 A
HETATM    2  C4  UNL     1      21.086 -27.159 -55.441  1.00  0.00     0.026 A
HETATM    3  C5  UNL     1      20.809 -26.491 -54.189  1.00  0.00     0.051 A
HETATM    4  C6  UNL     1      20.316 -25.066 -54.069  1.00  0.00     0.132 C
HETATM    5  C14 UNL     1      20.899 -24.650 -55.354  1.00  0.00     0.144 C
HETATM    6 CL1  UNL     1      19.936 -24.547 -56.802  1.00  0.00    -0.119 Cl
ENDROOT
BRANCH   4   7
HETATM    7  N1  UNL     1      18.948 -24.918 -53.740  1.00  0.00    -0.332 N
HETATM    8  C7  UNL     1      18.249 -25.329 -52.593  1.00  0.00     0.223 C
HETATM    9  O1  UNL     1      18.831 -25.909 -51.665  1.00  0.00    -0.273 OA
ATOM     10  H1  UNL     1      18.383 -24.440 -54.443  1.00  0.00     0.165 HD
BRANCH   8  11
HETATM   11  C8  UNL     1      16.794 -25.099 -52.422  1.00  0.00     0.070 C
HETATM   12  C9  UNL     1      16.332 -25.397 -51.019  1.00  0.00     0.019 C
HETATM   13  C10 UNL     1      16.566 -23.608 -52.702  1.00  0.00     0.019 C
ENDBRANCH   8  11
ENDBRANCH   4   7
BRANCH   4  14
HETATM   14  N2  UNL     1      21.117 -24.393 -53.010  1.00  0.00    -0.314 N
HETATM   15  C11 UNL     1      20.835 -23.065 -52.611  1.00  0.00     0.319 C
HETATM   16  O2  UNL     1      19.899 -22.404 -53.138  1.00  0.00    -0.247 OA
HETATM   17  N3  UNL     1      21.613 -22.435 -51.589  1.00  0.00    -0.343 N
HETATM   18  C12 UNL     1      22.694 -23.154 -50.958  1.00  0.00     0.154 C
HETATM   19  C13 UNL     1      21.338 -21.083 -51.172  1.00  0.00     0.154 C
ATOM     20  H2  UNL     1      21.883 -24.898 -52.564  1.00  0.00     0.166 HD
ENDBRANCH   4  14
BRANCH   1  21
HETATM   21  C2  UNL     1      23.160 -25.774 -54.760  1.00  0.00    -0.025 C
HETATM   22  C1  UNL     1      24.074 -26.624 -55.146  1.00  0.00     0.008 C
ENDBRANCH   1  21
TORSDOF 4
ENDMDL