MODEL 1
REMARK VINA RESULT: -6.786489610      0.000      0.000
REMARK  3 active torsions:
REMARK  status: ('A' for Active; 'I' for Inactive)
REMARK    1  A    between atoms: C4_4  and  N1_5
REMARK       I    between atoms: N1_5  and  C5_7
REMARK    2  A    between atoms: C5_7  and  C6_9
REMARK       I    between atoms: N2_13  and  C10_14
REMARK       I    between atoms: C10_14  and  N3_16
REMARK    3  A    between atoms: N3_16  and  C11_18
ROOT
HETATM    1  C6  UNL     1      15.647 -12.131 -52.448  1.00  0.00     0.096 C
HETATM    2  C7  UNL     1      16.872 -12.950 -52.120  1.00  0.00     0.017 C
HETATM    3  C8  UNL     1      16.756 -14.400 -52.466  1.00  0.00     0.021 C
HETATM    4  C9  UNL     1      15.685 -14.636 -53.537  1.00  0.00     0.127 C
HETATM    5  N2  UNL     1      15.771 -13.501 -54.418  1.00  0.00    -0.333 N
HETATM    6  C10 UNL     1      16.320 -13.621 -55.710  1.00  0.00     0.318 C
HETATM    7  O2  UNL     1      16.363 -12.574 -56.445  1.00  0.00    -0.247 OA
HETATM    8  N3  UNL     1      16.830 -14.814 -56.263  1.00  0.00    -0.338 N
ATOM      9  H3  UNL     1      16.815 -15.672 -55.712  1.00  0.00     0.164 HD
HETATM   10  C15 UNL     1      15.272 -12.240 -53.911  1.00  0.00     0.141 C
ENDROOT
BRANCH   8  11
HETATM   11  C11 UNL     1      17.375 -14.834 -57.607  1.00  0.00     0.091 C
HETATM   12  C12 UNL     1      18.889 -14.963 -57.605  1.00  0.00     0.062 C
HETATM   13  C13 UNL     1      18.670 -16.474 -57.482  1.00  0.00     0.174 C
HETATM   14  F1  UNL     1      19.512 -17.232 -58.250  1.00  0.00    -0.249 F
HETATM   15  C14 UNL     1      17.329 -16.235 -58.183  1.00  0.00     0.062 C
ENDBRANCH   8  11
BRANCH   1  16
HETATM   16  C5  UNL     1      16.005 -10.704 -52.205  1.00  0.00     0.223 C
HETATM   17  N1  UNL     1      15.101  -9.701 -52.632  1.00  0.00    -0.356 N
ATOM     18  H1  UNL     1      14.234  -9.978 -53.091  1.00  0.00     0.162 HD
HETATM   19  O1  UNL     1      17.067 -10.345 -51.643  1.00  0.00    -0.273 OA
BRANCH  17  20
HETATM   20  C4  UNL     1      15.373  -8.295 -52.434  1.00  0.00     0.088 A
HETATM   21  C2  UNL     1      15.398  -7.422 -53.614  1.00  0.00     0.006 A
HETATM   22  C1  UNL     1      16.264  -6.183 -53.672  1.00  0.00     0.012 C
HETATM   23  C3  UNL     1      14.233  -7.362 -52.687  1.00  0.00     0.031 A
ENDBRANCH  17  20
ENDBRANCH   1  16
TORSDOF 3
ENDMDL