MODEL 2
REMARK VINA RESULT: -5.666166590      4.983      7.626
REMARK  3 active torsions:
REMARK  status: ('A' for Active; 'I' for Inactive)
REMARK    1  A    between atoms: C3_5  and  C4_6
REMARK    2  A    between atoms: C4_6  and  C6_8
REMARK    3  A    between atoms: C4_6  and  N2_11
ROOT
HETATM    1  C4  UNL     1      16.111 -11.453 -52.661  1.00  0.00     0.202 C
HETATM    2  C5  UNL     1      17.009 -11.817 -51.533  1.00  0.00     0.057 C
ENDROOT
BRANCH   1   3
HETATM    3  C3  UNL     1      15.984  -9.977 -52.882  1.00  0.00     0.057 A
HETATM    4  N1  UNL     1      14.803  -9.349 -53.016  1.00  0.00    -0.358 N
HETATM    5  C2  UNL     1      14.956  -8.017 -53.084  1.00  0.00     0.045 A
ATOM      6  H1  UNL     1      13.902  -9.825 -53.059  1.00  0.00     0.165 HD
HETATM    7  C1  UNL     1      13.853  -7.035 -53.234  1.00  0.00     0.071 C
HETATM    8  C15 UNL     1      16.302  -7.810 -52.986  1.00  0.00     0.146 A
HETATM    9  C13 UNL     1      16.980  -9.024 -52.858  1.00  0.00     0.004 A
HETATM   10  F1  UNL     1      16.911  -6.603 -53.007  1.00  0.00    -0.203 F
HETATM   11  C14 UNL     1      18.426  -9.218 -52.777  1.00  0.00     0.054 C
ENDBRANCH   1   3
BRANCH   1  12
HETATM   12  C6  UNL     1      14.704 -11.793 -52.197  1.00  0.00     0.030 A
HETATM   13  C7  UNL     1      14.348 -11.887 -50.776  1.00  0.00     0.008 A
HETATM   14  C8  UNL     1      14.312 -13.077 -51.598  1.00  0.00     0.008 A
ENDBRANCH   1  12
BRANCH   1  15
HETATM   15  N2  UNL     1      16.446 -12.034 -53.930  1.00  0.00     0.114 N
HETATM   16  C9  UNL     1      17.111 -13.326 -53.737  1.00  0.00     0.294 C
HETATM   17  C10 UNL     1      16.236 -14.529 -54.010  1.00  0.00     0.153 C
HETATM   18  N3  UNL     1      16.164 -14.530 -55.492  1.00  0.00    -0.358 N
HETATM   19  C11 UNL     1      15.959 -13.190 -55.928  1.00  0.00     0.246 C
ATOM     20  H3  UNL     1      16.247 -15.349 -56.094  1.00  0.00     0.162 HD
HETATM   21  O1  UNL     1      16.222 -12.862 -57.093  1.00  0.00    -0.272 OA
HETATM   22  C12 UNL     1      15.411 -12.276 -54.862  1.00  0.00     0.376 C
ENDBRANCH   1  15
TORSDOF 3
ENDMDL