MODEL 3
REMARK VINA RESULT: -6.984339509      6.958      9.780
REMARK  4 active torsions:
REMARK  status: ('A' for Active; 'I' for Inactive)
REMARK    1  A    between atoms: C2_2  and  N2_6
REMARK    2  A    between atoms: C5_9  and  N3_10
REMARK       I    between atoms: N3_10  and  C6_12
REMARK    3  A    between atoms: C6_12  and  C7_14
REMARK    4  A    between atoms: C7_14  and  N4_15
ROOT
HETATM    1  N3  UNL     1      16.227 -14.234 -55.616  1.00  0.00    -0.353 N
ATOM      2  H3  UNL     1      16.188 -15.091 -55.064  1.00  0.00     0.163 HD
HETATM    3  C6  UNL     1      16.529 -14.347 -56.985  1.00  0.00     0.246 C
HETATM    4  O1  UNL     1      16.600 -13.294 -57.732  1.00  0.00    -0.272 OA
ENDROOT
BRANCH   1   5
HETATM    5  C5  UNL     1      15.970 -12.988 -54.945  1.00  0.00     0.104 C
HETATM    6  C4  UNL     1      17.185 -12.311 -54.424  1.00  0.00     0.046 C
HETATM    7  C3  UNL     1      16.580 -11.277 -53.489  1.00  0.00     0.126 C
HETATM    8  N2  UNL     1      15.466 -12.025 -52.895  1.00  0.00    -0.369 N
HETATM    9  C13 UNL     1      15.037 -13.060 -53.806  1.00  0.00     0.149 C
BRANCH   8  10
HETATM   10  C2  UNL     1      14.945 -11.712 -51.604  1.00  0.00     0.068 C
HETATM   11  C1  UNL     1      14.695 -12.796 -50.617  1.00  0.00     0.088 C
HETATM   12  N1  UNL     1      14.682 -10.491 -51.276  1.00  0.00    -0.389 N
ATOM     13  H12 UNL     1      14.310 -10.267 -50.353  1.00  0.00     0.157 HD
ATOM     14  H11 UNL     1      14.853  -9.748 -51.952  1.00  0.00     0.157 HD
ENDBRANCH   8  10
ENDBRANCH   1   5
BRANCH   3  15
HETATM   15  C7  UNL     1      16.800 -15.575 -57.743  1.00  0.00     0.375 C
BRANCH  15  16
HETATM   16  N4  UNL     1      17.730 -15.490 -58.818  1.00  0.00     0.103 N
HETATM   17  C8  UNL     1      17.471 -16.728 -59.611  1.00  0.00     0.293 C
HETATM   18  C9  UNL     1      17.915 -17.837 -58.682  1.00  0.00     0.112 C
HETATM   19 CL1  UNL     1      18.523 -19.247 -59.558  1.00  0.00    -0.123 Cl
HETATM   20  C10 UNL     1      19.046 -17.242 -57.877  1.00  0.00     0.057 C
HETATM   21  C11 UNL     1      19.090 -15.819 -58.406  1.00  0.00     0.221 C
HETATM   22  C12 UNL     1      19.685 -14.942 -57.370  1.00  0.00     0.043 C
ENDBRANCH  15  16
ENDBRANCH   3  15
TORSDOF 4
ENDMDL