MODEL 3
REMARK VINA RESULT: -8.102916655      1.165      1.619
REMARK  3 active torsions:
REMARK  status: ('A' for Active; 'I' for Inactive)
REMARK    1  A    between atoms: C1_2  and  C2_3
REMARK       I    between atoms: C1_2  and  N3_14
REMARK    2  A    between atoms: C2_3  and  N1_4
REMARK       I    between atoms: N1_4  and  C3_6
REMARK       I    between atoms: C3_6  and  N2_8
REMARK    3  A    between atoms: N3_14  and  C9_16
ROOT
HETATM    1  O1  UNL     1      14.882 -13.337 -57.736  1.00  0.00    -0.272 OA
HETATM    2  C1  UNL     1      16.087 -13.460 -57.398  1.00  0.00     0.235 C
HETATM    3  N3  UNL     1      16.488 -13.462 -56.032  1.00  0.00    -0.352 N
ATOM      4  H3  UNL     1      17.480 -13.566 -55.823  1.00  0.00     0.163 HD
ENDROOT
BRANCH   2   5
HETATM    5  C2  UNL     1      17.109 -13.607 -58.454  1.00  0.00     0.227 C
BRANCH   5   6
HETATM    6  N1  UNL     1      17.227 -14.999 -58.806  1.00  0.00    -0.334 N
HETATM    7  C3  UNL     1      18.079 -15.845 -58.072  1.00  0.00     0.318 C
HETATM    8  O2  UNL     1      18.737 -15.358 -57.102  1.00  0.00    -0.247 OA
HETATM    9  N2  UNL     1      18.201 -17.217 -58.413  1.00  0.00    -0.334 N
HETATM   10  C4  UNL     1      17.459 -17.748 -59.497  1.00  0.00     0.127 C
HETATM   11  C8  UNL     1      19.088 -18.057 -57.643  1.00  0.00     0.127 C
HETATM   12  C5  UNL     1      17.445 -19.206 -59.666  1.00  0.00     0.020 C
HETATM   13  C6  UNL     1      18.054 -20.031 -58.602  1.00  0.00     0.003 C
HETATM   14  C7  UNL     1      18.291 -19.300 -57.303  1.00  0.00     0.020 C
ATOM     15  H1  UNL     1      16.691 -15.373 -59.589  1.00  0.00     0.164 HD
ENDBRANCH   5   6
ENDBRANCH   2   5
BRANCH   3  16
HETATM   16  C9  UNL     1      15.580 -13.326 -54.937  1.00  0.00     0.107 C
HETATM   17  C10 UNL     1      15.870 -14.175 -53.840  1.00  0.00    -0.006 C
HETATM   18  C11 UNL     1      16.226 -14.484 -52.926  1.00  0.00    -0.026 C
HETATM   19  C12 UNL     1      16.867 -14.429 -51.659  1.00  0.00     0.064 C
HETATM   20  C13 UNL     1      17.186 -12.792 -51.801  1.00  0.00     0.173 C
HETATM   21  F1  UNL     1      18.363 -12.695 -51.157  1.00  0.00    -0.249 F
HETATM   22  C14 UNL     1      17.325 -12.483 -53.252  1.00  0.00     0.040 C
HETATM   23  C15 UNL     1      16.219 -12.017 -54.126  1.00  0.00     0.032 C
ENDBRANCH   3  16
TORSDOF 3
ENDMDL