MODEL 4
REMARK VINA RESULT: -5.025890350      1.120      1.385
REMARK  4 active torsions:
REMARK  status: ('A' for Active; 'I' for Inactive)
REMARK    1  A    between atoms: C2_2  and  C3_4
REMARK    2  A    between atoms: C3_4  and  N1_5
REMARK    3  A    between atoms: C6_8  and  N2_9
REMARK    4  A    between atoms: N2_9  and  C7_11
ROOT
HETATM    1  N1  UNL     1      18.283 -17.383 -58.150  1.00  0.00     0.093 N
HETATM    2  C4  UNL     1      17.746 -16.321 -58.954  1.00  0.00     0.275 C
HETATM    3  C5  UNL     1      16.764 -15.548 -58.120  1.00  0.00     0.056 C
HETATM    4  C6  UNL     1      17.405 -15.114 -56.827  1.00  0.00     0.090 C
HETATM    5  C8  UNL     1      18.848 -15.484 -56.702  1.00  0.00     0.032 C
HETATM    6  C9  UNL     1      19.784 -14.570 -57.432  1.00  0.00     0.014 C
HETATM    7  C10 UNL     1      19.055 -16.942 -57.032  1.00  0.00     0.279 C
ENDROOT
BRANCH   4   8
HETATM    8  N2  UNL     1      17.162 -13.706 -56.634  1.00  0.00    -0.364 N
ATOM      9  H2  UNL     1      17.145 -13.091 -57.448  1.00  0.00     0.162 HD
BRANCH   8  10
HETATM   10  C7  UNL     1      16.945 -13.153 -55.350  1.00  0.00     0.181 C
HETATM   11  N3  UNL     1      17.980 -12.546 -54.598  1.00  0.00    -0.070 NA
HETATM   12  S1  UNL     1      15.442 -13.226 -54.729  1.00  0.00    -0.044 SA
ENDBRANCH   8  10
ENDBRANCH   4   8
BRANCH   1  13
HETATM   13  C3  UNL     1      18.971 -18.317 -59.007  1.00  0.00     0.317 C
BRANCH  13  14
HETATM   14  C2  UNL     1      18.232 -19.596 -59.164  1.00  0.00     0.007 C
HETATM   15  C1  UNL     1      17.328 -19.714 -60.113  1.00  0.00     0.029 C
HETATM   16 BR1  UNL     1      18.567 -21.073 -58.013  1.00  0.00    -0.055 Br
ENDBRANCH  13  14
ENDBRANCH   1  13
TORSDOF 4
ENDMDL