MODEL 3
REMARK VINA RESULT: -5.674089516     10.973     13.561
REMARK  3 active torsions:
REMARK  status: ('A' for Active; 'I' for Inactive)
REMARK    1  A    between atoms: C3_3  and  N1_4
REMARK       I    between atoms: N1_4  and  C4_6
REMARK    2  A    between atoms: C4_6  and  C5_8
REMARK       I    between atoms: N2_16  and  C12_17
REMARK       I    between atoms: C12_17  and  N3_19
REMARK    3  A    between atoms: N3_19  and  C13_21
ROOT
HETATM    1  C1  UNL     1      15.865 -16.899 -50.264  1.00  0.00     0.098 C
HETATM    2  C2  UNL     1      15.106 -16.057 -50.717  1.00  0.00    -0.168 C
HETATM    3  C3  UNL     1      14.198 -15.051 -51.260  1.00  0.00     0.202 C
ENDROOT
BRANCH   3   4
HETATM    4  N1  UNL     1      14.979 -14.046 -51.944  1.00  0.00    -0.350 N
HETATM    5  C4  UNL     1      14.848 -12.671 -51.649  1.00  0.00     0.241 C
HETATM    6  O1  UNL     1      14.031 -12.334 -50.773  1.00  0.00    -0.271 OA
ATOM      7  H1  UNL     1      15.645 -14.339 -52.661  1.00  0.00     0.163 HD
BRANCH   5   8
HETATM    8  C5  UNL     1      15.650 -11.702 -52.360  1.00  0.00     0.188 C
HETATM    9  C6  UNL     1      16.539 -10.888 -51.447  1.00  0.00     0.052 C
HETATM   10  C7  UNL     1      17.543 -11.795 -50.767  1.00  0.00     0.012 C
HETATM   11  C11 UNL     1      17.242  -9.882 -52.343  1.00  0.00     0.178 C
HETATM   12  C8  UNL     1      18.155 -12.747 -51.773  1.00  0.00     0.026 C
HETATM   13  C9  UNL     1      17.906 -12.157 -53.142  1.00  0.00     0.092 C
HETATM   14  C10 UNL     1      18.339 -10.683 -53.045  1.00  0.00     0.063 C
HETATM   15  N2  UNL     1      16.485 -12.240 -53.405  1.00  0.00    -0.315 N
HETATM   16  C12 UNL     1      15.946 -12.804 -54.593  1.00  0.00     0.319 C
HETATM   17  O2  UNL     1      14.682 -12.816 -54.700  1.00  0.00    -0.247 OA
HETATM   18  N3  UNL     1      16.688 -13.348 -55.658  1.00  0.00    -0.338 N
ATOM     19  H3  UNL     1      17.706 -13.349 -55.594  1.00  0.00     0.164 HD
HETATM   20  F1  UNL     1      16.307  -9.482 -53.286  1.00  0.00    -0.249 F
BRANCH  18  21
HETATM   21  C13 UNL     1      16.069 -13.901 -56.831  1.00  0.00     0.086 A
HETATM   22  C14 UNL     1      16.723 -14.980 -57.600  1.00  0.00     0.027 A
HETATM   23  C15 UNL     1      16.715 -13.548 -58.148  1.00  0.00     0.027 A
ENDBRANCH  18  21
ENDBRANCH   5   8
ENDBRANCH   3   4
TORSDOF 3
ENDMDL