MODEL 3
REMARK VINA RESULT: -5.693836201      3.804      7.920
REMARK  3 active torsions:
REMARK  status: ('A' for Active; 'I' for Inactive)
REMARK       I    between atoms: C1_2  and  N1_3
REMARK       I    between atoms: C1_2  and  N2_8
REMARK    1  A    between atoms: N1_3  and  C2_5
REMARK    2  A    between atoms: C2_5  and  C3_6
REMARK       I    between atoms: N3_11  and  C6_12
REMARK       I    between atoms: C6_12  and  N4_14
REMARK    3  A    between atoms: N4_14  and  C7_16
ROOT
HETATM    1  O1  UNL     1      16.958 -12.723 -52.074  1.00  0.00    -0.247 OA
HETATM    2  C1  UNL     1      16.766 -12.147 -53.165  1.00  0.00     0.318 C
HETATM    3  N1  UNL     1      16.998 -10.765 -53.318  1.00  0.00    -0.342 N
ATOM      4  H1  UNL     1      16.820 -10.348 -54.232  1.00  0.00     0.164 HD
HETATM    5  N2  UNL     1      16.307 -12.894 -54.264  1.00  0.00    -0.331 N
HETATM    6  C4  UNL     1      16.051 -14.306 -54.139  1.00  0.00     0.147 C
HETATM    7  C5  UNL     1      16.820 -15.016 -55.233  1.00  0.00     0.147 C
HETATM    8  N3  UNL     1      16.515 -14.445 -56.533  1.00  0.00    -0.331 N
HETATM    9  C6  UNL     1      16.945 -15.126 -57.688  1.00  0.00     0.318 C
HETATM   10  O2  UNL     1      16.688 -14.646 -58.848  1.00  0.00    -0.247 OA
HETATM   11  N4  UNL     1      17.666 -16.356 -57.572  1.00  0.00    -0.338 N
ATOM     12  H4  UNL     1      17.871 -16.741 -56.650  1.00  0.00     0.164 HD
HETATM   13  C11 UNL     1      15.788 -13.201 -56.669  1.00  0.00     0.147 C
HETATM   14  C12 UNL     1      16.085 -12.255 -55.529  1.00  0.00     0.147 C
ENDROOT
BRANCH  11  15
HETATM   15  C7  UNL     1      18.104 -17.053 -58.759  1.00  0.00     0.086 C
HETATM   16  C8  UNL     1      19.241 -18.008 -58.446  1.00  0.00     0.025 C
HETATM   17  C9  UNL     1      18.465 -19.072 -59.213  1.00  0.00     0.004 C
HETATM   18  C10 UNL     1      17.210 -18.223 -59.125  1.00  0.00     0.025 C
ENDBRANCH  11  15
BRANCH   3  19
HETATM   19  C2  UNL     1      17.476  -9.899 -52.256  1.00  0.00     0.139 C
BRANCH  19  20
HETATM   20  C3  UNL     1      18.533  -8.992 -52.798  1.00  0.00     0.134 C
HETATM   21 CL1  UNL     1      19.506  -9.815 -54.059  1.00  0.00    -0.129 Cl
ENDBRANCH  19  20
ENDBRANCH   3  19
TORSDOF 3
ENDMDL