MODEL 4
REMARK VINA RESULT: -9.388825068      1.084      1.901
REMARK  5 active torsions:
REMARK  status: ('A' for Active; 'I' for Inactive)
REMARK    1  A    between atoms: C2_2  and  N1_3
REMARK    2  A    between atoms: N2_6  and  C5_7
REMARK    3  A    between atoms: C9_14  and  N4_15
REMARK    4  A    between atoms: N5_19  and  O1_21
REMARK    5  A    between atoms: O1_21  and  C13_22
ROOT
HETATM    1  C5  UNL     1      38.031  36.323  52.051  1.00  0.00     0.683 A
HETATM    2  N3  UNL     1      37.548  37.343  52.781  1.00  0.00    -0.181 N
ATOM      3  H3  UNL     1      36.535  37.437  52.863  1.00  0.00     0.185 HD
HETATM    4  C6  UNL     1      38.321  38.246  53.408  1.00  0.00     0.126 A
HETATM    5  S1  UNL     1      37.681  39.484  54.294  1.00  0.00    -0.059 SA
HETATM    6  C7  UNL     1      39.681  38.136  53.308  1.00  0.00     0.021 A
HETATM    7  C8  UNL     1      40.556  39.120  53.986  1.00  0.00     0.056 C
HETATM    8  C9  UNL     1      40.212  37.105  52.569  1.00  0.00     0.128 A
HETATM    9  N6  UNL     1      39.382  36.224  51.959  1.00  0.00    -0.176 N
ATOM     10  H6  UNL     1      39.785  35.461  51.413  1.00  0.00     0.186 HD
ENDROOT
BRANCH   8  11
HETATM   11  N4  UNL     1      41.621  37.001  52.473  1.00  0.00    -0.366 N
HETATM   12  C10 UNL     1      42.321  35.968  53.213  1.00  0.00     0.130 C
HETATM   13  C11 UNL     1      43.655  35.708  52.590  1.00  0.00     0.074 C
HETATM   14  C12 UNL     1      44.447  36.965  52.631  1.00  0.00     0.013 C
HETATM   15  N5  UNL     1      45.722  36.949  52.831  1.00  0.00    -0.274 N
HETATM   16  C20 UNL     1      43.709  38.257  52.435  1.00  0.00     0.074 C
ATOM     17  H5  UNL     1      46.258  37.816  52.857  1.00  0.00     0.193 HD
HETATM   18  C21 UNL     1      42.440  37.894  51.657  1.00  0.00     0.130 C
BRANCH  15  19
HETATM   19  O1  UNL     1      46.337  35.742  53.005  1.00  0.00    -0.275 OA
BRANCH  19  20
HETATM   20  C13 UNL     1      47.712  35.498  52.624  1.00  0.00     0.153 C
HETATM   21  C14 UNL     1      48.356  35.277  53.990  1.00  0.00     0.045 C
HETATM   22  C15 UNL     1      49.907  35.072  53.872  1.00  0.00     0.082 C
HETATM   23  C16 UNL     1      50.264  35.553  52.606  1.00  0.00    -0.183 C
HETATM   24  C17 UNL     1      50.565  36.042  51.327  1.00  0.00     0.080 C
HETATM   25  C18 UNL     1      49.186  36.416  50.675  1.00  0.00     0.014 C
HETATM   26  C19 UNL     1      48.091  36.557  51.737  1.00  0.00     0.035 C
ENDBRANCH  19  20
ENDBRANCH  15  19
ENDBRANCH   8  11
BRANCH   1  27
HETATM   27  N2  UNL     1      37.182  35.382  51.398  1.00  0.00    -0.214 N
HETATM   28  C4  UNL     1      36.724  34.245  52.129  1.00  0.00     0.171 C
HETATM   29  C3  UNL     1      36.441  33.024  51.325  1.00  0.00     0.292 C
HETATM   30  N1  UNL     1      36.290  33.233  49.920  1.00  0.00     0.091 N
HETATM   31  C23 UNL     1      35.778  34.554  49.619  1.00  0.00     0.292 C
HETATM   32  C22 UNL     1      36.804  35.585  50.036  1.00  0.00     0.171 C
BRANCH  30  33
HETATM   33  C2  UNL     1      37.494  32.926  49.191  1.00  0.00     0.268 C
HETATM   34  C1  UNL     1      38.336  31.941  49.937  1.00  0.00     0.037 C
ENDBRANCH  30  33
ENDBRANCH   1  27
TORSDOF 5
ENDMDL