MODEL 1
REMARK VINA RESULT: -8.036613870      0.000      0.000
REMARK  7 active torsions:
REMARK  status: ('A' for Active; 'I' for Inactive)
REMARK    1  A    between atoms: C2_2  and  C3_3
REMARK    2  A    between atoms: C3_3  and  C4_4
REMARK    3  A    between atoms: C4_4  and  O1_5
REMARK    4  A    between atoms: O1_5  and  C5_6
REMARK    5  A    between atoms: C5_6  and  C6_8
REMARK    6  A    between atoms: C19_23  and  C20_24
REMARK    7  A    between atoms: C25_31  and  O7_32
ROOT
HETATM    1  C6  UNL     1      40.390  35.673  53.433  1.00  0.00     0.149 C
HETATM    2  C7  UNL     1      39.432  36.109  54.469  1.00  0.00    -0.003 C
HETATM    3  C8  UNL     1      39.848  36.893  55.643  1.00  0.00    -0.027 C
HETATM    4  C9  UNL     1      39.223  38.162  56.063  1.00  0.00     0.049 C
HETATM    5  C10 UNL     1      39.702  39.520  55.504  1.00  0.00     0.023 C
HETATM    6  C11 UNL     1      39.258  40.545  56.567  1.00  0.00     0.029 C
HETATM    7  C12 UNL     1      41.088  39.746  55.388  1.00  0.00    -0.139 C
HETATM    8  C13 UNL     1      42.446  40.149  55.443  1.00  0.00     0.133 C
HETATM    9  C14 UNL     1      43.064  39.731  54.111  1.00  0.00     0.290 C
HETATM   10  O3  UNL     1      44.211  40.241  53.888  1.00  0.00    -0.260 OA
HETATM   11  O4  UNL     1      42.518  38.897  53.179  1.00  0.00    -0.309 OA
HETATM   12  C15 UNL     1      41.769  37.746  53.215  1.00  0.00     0.176 A
HETATM   13  C16 UNL     1      40.453  37.931  52.729  1.00  0.00     0.057 A
HETATM   14  C17 UNL     1      40.297  39.287  52.176  1.00  0.00     0.011 C
HETATM   15  C18 UNL     1      39.434  40.210  53.008  1.00  0.00     0.011 C
HETATM   16  C19 UNL     1      38.816  39.766  54.279  1.00  0.00     0.040 C
HETATM   17  C24 UNL     1      41.070  36.784  52.568  1.00  0.00     0.122 A
HETATM   18  O6  UNL     1      41.177  35.831  51.616  1.00  0.00    -0.344 OA
HETATM   19  C25 UNL     1      39.883  35.417  52.057  1.00  0.00     0.283 C
ENDROOT
BRANCH   1  20
HETATM   20  C5  UNL     1      41.364  34.680  53.901  1.00  0.00     0.279 C
HETATM   21  O2  UNL     1      40.956  33.540  54.281  1.00  0.00    -0.264 OA
BRANCH  20  22
HETATM   22  O1  UNL     1      42.706  34.935  53.943  1.00  0.00    -0.320 OA
BRANCH  22  23
HETATM   23  C4  UNL     1      43.707  34.341  53.168  1.00  0.00     0.178 C
BRANCH  23  24
HETATM   24  C3  UNL     1      44.594  35.375  52.565  1.00  0.00     0.026 C
BRANCH  24  25
HETATM   25  C2  UNL     1      46.062  34.993  52.648  1.00  0.00    -0.002 C
HETATM   26  C1  UNL     1      46.527  34.895  54.081  1.00  0.00     0.005 C
ENDBRANCH  24  25
ENDBRANCH  23  24
ENDBRANCH  22  23
ENDBRANCH  20  22
ENDBRANCH   1  20
BRANCH  19  27
HETATM   27  O7  UNL     1      39.675  34.066  51.824  1.00  0.00    -0.369 OA
ATOM     28  H7  UNL     1      39.408  33.896  50.929  1.00  0.00     0.212 HD
ENDBRANCH  19  27
BRANCH  16  29
HETATM   29  C20 UNL     1      37.790  40.850  54.557  1.00  0.00    -0.028 A
HETATM   30  C21 UNL     1      36.620  40.775  55.292  1.00  0.00     0.034 A
HETATM   31  C22 UNL     1      35.982  41.995  55.265  1.00  0.00     0.142 A
HETATM   32  O5  UNL     1      36.735  42.765  54.546  1.00  0.00    -0.334 OA
HETATM   33  C23 UNL     1      37.802  42.165  54.103  1.00  0.00     0.148 A
ENDBRANCH  16  29
TORSDOF 7
ENDMDL