MODEL 3
REMARK VINA RESULT: -8.724513065      5.051     11.072
REMARK  5 active torsions:
REMARK  status: ('A' for Active; 'I' for Inactive)
REMARK    1  A    between atoms: O1_2  and  C2_3
REMARK    2  A    between atoms: N1_10  and  C9_11
REMARK    3  A    between atoms: C13_18  and  N3_19
REMARK    4  A    between atoms: N3_19  and  C14_22
REMARK    5  A    between atoms: C14_22  and  C15_23
ROOT
HETATM    1  C9  UNL     1      39.058  35.907  51.854  1.00  0.00     0.147 A
HETATM    2  N2  UNL     1      39.088  34.612  51.594  1.00  0.00    -0.339 N
ATOM      3  H2  UNL     1      39.839  34.036  51.973  1.00  0.00     0.168 HD
HETATM    4  C10 UNL     1      38.160  34.068  50.856  1.00  0.00     0.024 A
HETATM    5  C11 UNL     1      37.172  34.876  50.371  1.00  0.00     0.011 A
HETATM    6  S1  UNL     1      37.651  36.409  51.023  1.00  0.00    -0.057 SA
HETATM    7  C12 UNL     1      36.027  34.479  49.513  1.00  0.00     0.081 C
HETATM    8  C13 UNL     1      36.047  33.051  49.184  1.00  0.00     0.191 C
HETATM    9  C20 UNL     1      37.421  32.500  49.178  1.00  0.00     0.039 C
HETATM   10  C21 UNL     1      38.125  32.575  50.497  1.00  0.00     0.060 C
ENDROOT
BRANCH   1  11
HETATM   11  N1  UNL     1      39.987  36.668  52.622  1.00  0.00    -0.361 N
HETATM   12  C8  UNL     1      41.387  36.406  52.494  1.00  0.00     0.125 C
HETATM   13  C7  UNL     1      42.063  37.651  52.044  1.00  0.00     0.021 C
HETATM   14  C6  UNL     1      41.491  38.893  52.583  1.00  0.00     0.012 C
HETATM   15  C5  UNL     1      40.490  38.812  53.680  1.00  0.00    -0.024 C
HETATM   16  C4  UNL     1      41.105  38.759  55.043  1.00  0.00     0.013 C
HETATM   17  C22 UNL     1      39.504  37.676  53.504  1.00  0.00     0.134 C
HETATM   18  C23 UNL     1      39.653  40.094  53.634  1.00  0.00     0.013 C
HETATM   19  C3  UNL     1      41.830  39.991  55.450  1.00  0.00     0.033 C
HETATM   20  C2  UNL     1      40.922  41.207  55.375  1.00  0.00     0.120 C
HETATM   21  C24 UNL     1      40.471  41.307  53.921  1.00  0.00     0.033 C
BRANCH  20  22
HETATM   22  O1  UNL     1      41.593  42.364  55.767  1.00  0.00    -0.391 OA
HETATM   23  C1  UNL     1      42.794  42.404  55.063  1.00  0.00     0.202 C
ENDBRANCH  20  22
ENDBRANCH   1  11
BRANCH   8  24
HETATM   24  N3  UNL     1      35.090  32.211  49.880  1.00  0.00    -0.067 N
ATOM     25  H32 UNL     1      34.659  31.528  49.258  1.00  0.00     0.277 HD
ATOM     26  H31 UNL     1      35.548  31.562  50.521  1.00  0.00     0.277 HD
BRANCH  24  27
HETATM   27  C14 UNL     1      34.104  33.031  50.551  1.00  0.00     0.274 C
BRANCH  27  28
HETATM   28  C15 UNL     1      33.729  32.442  51.854  1.00  0.00     0.008 A
HETATM   29  C16 UNL     1      34.571  32.112  52.877  1.00  0.00     0.118 A
HETATM   30  N4  UNL     1      33.831  31.598  53.898  1.00  0.00    -0.309 N
HETATM   31  N5  UNL     1      32.567  31.612  53.507  1.00  0.00    -0.301 N
ATOM     32  H4  UNL     1      34.185  31.265  54.795  1.00  0.00     0.186 HD
HETATM   33  C17 UNL     1      31.429  31.144  54.289  1.00  0.00     0.177 C
HETATM   34  C18 UNL     1      32.459  32.123  52.253  1.00  0.00     0.033 A
HETATM   35  C19 UNL     1      31.187  32.279  51.520  1.00  0.00     0.070 C
ENDBRANCH  27  28
ENDBRANCH  24  27
ENDBRANCH   8  24
TORSDOF 5
ENDMDL