MODEL 2
REMARK VINA RESULT: -7.535234688      2.444      3.262
REMARK  6 active torsions:
REMARK  status: ('A' for Active; 'I' for Inactive)
REMARK    1  A    between atoms: C2_2  and  O1_3
REMARK    2  A    between atoms: O1_3  and  C3_4
REMARK    3  A    between atoms: C3_4  and  C4_6
REMARK    4  A    between atoms: C4_6  and  C5_7
REMARK    5  A    between atoms: C13_17  and  N1_18
REMARK    6  A    between atoms: N1_18  and  C14_20
ROOT
HETATM    1  C5  UNL     1      38.568  36.971  53.651  1.00  0.00     0.162 C
HETATM    2  S1  UNL     1      40.208  37.612  53.434  1.00  0.00    -0.105 SA
HETATM    3  C6  UNL     1      40.568  38.680  54.799  1.00  0.00     0.021 C
HETATM    4  C7  UNL     1      39.769  38.831  55.850  1.00  0.00     0.069 C
HETATM    5  C8  UNL     1      40.203  39.747  56.894  1.00  0.00     0.165 C
HETATM    6  O3  UNL     1      39.869  39.493  58.078  1.00  0.00    -0.292 OA
HETATM    7  C9  UNL     1      41.026  40.977  56.624  1.00  0.00     0.095 C
HETATM    8  C10 UNL     1      41.472  40.927  55.173  1.00  0.00    -0.016 C
HETATM    9  C11 UNL     1      42.781  41.679  55.083  1.00  0.00     0.018 C
HETATM   10  C12 UNL     1      40.499  41.528  54.220  1.00  0.00     0.018 C
HETATM   11  C13 UNL     1      41.811  39.460  54.807  1.00  0.00     0.126 C
HETATM   12  C19 UNL     1      38.492  38.093  55.936  1.00  0.00     0.119 C
HETATM   13  N2  UNL     1      37.800  38.316  56.994  1.00  0.00    -0.354 N
ATOM     14  H2  UNL     1      38.197  38.976  57.663  1.00  0.00     0.166 HD
HETATM   15  C20 UNL     1      36.555  37.755  57.337  1.00  0.00     0.073 C
HETATM   16  C21 UNL     1      35.883  37.040  56.217  1.00  0.00     0.001 C
HETATM   17  C22 UNL     1      34.996  35.948  56.832  1.00  0.00     0.022 C
HETATM   18  C23 UNL     1      34.945  37.960  55.476  1.00  0.00     0.022 C
HETATM   19  C24 UNL     1      36.839  36.387  55.270  1.00  0.00     0.140 C
HETATM   20  N3  UNL     1      38.017  37.205  54.974  1.00  0.00    -0.351 N
ENDROOT
BRANCH  11  21
HETATM   21  N1  UNL     1      42.603  39.474  53.674  1.00  0.00    -0.408 N
ATOM     22  H1  UNL     1      42.334  40.104  52.918  1.00  0.00     0.154 HD
BRANCH  21  23
HETATM   23  C14 UNL     1      43.736  38.696  53.486  1.00  0.00     0.077 C
HETATM   24  C15 UNL     1      45.044  39.454  53.386  1.00  0.00     0.024 C
HETATM   25  C16 UNL     1      45.858  38.486  52.539  1.00  0.00     0.002 C
HETATM   26  C17 UNL     1      44.888  38.365  51.356  1.00  0.00     0.002 C
HETATM   27  C18 UNL     1      43.606  38.054  52.083  1.00  0.00     0.024 C
ENDBRANCH  21  23
ENDBRANCH  11  21
BRANCH   1  28
HETATM   28  C4  UNL     1      38.600  35.470  53.361  1.00  0.00     0.147 C
BRANCH  28  29
HETATM   29  C3  UNL     1      38.621  35.181  51.915  1.00  0.00     0.261 C
HETATM   30  O2  UNL     1      38.001  36.012  51.159  1.00  0.00    -0.265 OA
BRANCH  29  31
HETATM   31  O1  UNL     1      39.260  34.078  51.332  1.00  0.00    -0.322 OA
BRANCH  31  32
HETATM   32  C2  UNL     1      38.585  32.838  51.261  1.00  0.00     0.174 C
HETATM   33  C1  UNL     1      38.601  32.379  49.799  1.00  0.00     0.034 C
ENDBRANCH  31  32
ENDBRANCH  29  31
ENDBRANCH  28  29
ENDBRANCH   1  28
TORSDOF 6
ENDMDL