MODEL 2
REMARK VINA RESULT: -8.636074276      1.699      3.270
REMARK  6 active torsions:
REMARK  status: ('A' for Active; 'I' for Inactive)
REMARK    1  A    between atoms: C2_2  and  O2_4
REMARK    2  A    between atoms: O2_4  and  C3_5
REMARK    3  A    between atoms: C18_21  and  C20_23
REMARK    4  A    between atoms: C20_23  and  C21_24
REMARK    5  A    between atoms: C21_24  and  C22_25
REMARK    6  A    between atoms: C22_25  and  N1_26
ROOT
HETATM    1  C3  UNL     1      39.477  40.349  54.807  1.00  0.00     0.151 C
HETATM    2  C4  UNL     1      40.134  40.883  56.069  1.00  0.00     0.112 C
HETATM    3  C5  UNL     1      41.579  41.115  55.877  1.00  0.00     0.133 C
HETATM    4  O3  UNL     1      42.108  42.052  56.429  1.00  0.00    -0.298 OA
HETATM    5  C6  UNL     1      42.385  40.230  55.032  1.00  0.00     0.113 C
HETATM    6  C7  UNL     1      41.553  39.274  54.226  1.00  0.00    -0.066 C
HETATM    7  C8  UNL     1      42.188  38.668  53.239  1.00  0.00    -0.022 C
HETATM    8  C9  UNL     1      41.582  37.693  52.319  1.00  0.00     0.033 C
HETATM    9  C10 UNL     1      40.316  37.153  52.982  1.00  0.00    -0.001 C
HETATM   10  C11 UNL     1      39.496  38.341  53.310  1.00  0.00     0.005 C
HETATM   11  C12 UNL     1      38.055  38.105  53.559  1.00  0.00     0.007 C
HETATM   12  C13 UNL     1      37.538  36.764  53.119  1.00  0.00     0.011 C
HETATM   13  C14 UNL     1      38.243  36.212  51.917  1.00  0.00    -0.033 C
HETATM   14  C15 UNL     1      37.748  36.900  50.662  1.00  0.00     0.016 C
HETATM   15  C16 UNL     1      39.722  36.139  52.070  1.00  0.00    -0.000 C
HETATM   16  C17 UNL     1      39.526  34.757  52.651  1.00  0.00     0.015 C
HETATM   17  C18 UNL     1      38.257  34.707  51.838  1.00  0.00    -0.036 C
HETATM   18  C19 UNL     1      37.098  34.000  52.460  1.00  0.00     0.016 C
HETATM   19  C24 UNL     1      40.134  39.021  54.502  1.00  0.00     0.011 C
HETATM   20  C25 UNL     1      39.901  38.136  55.707  1.00  0.00     0.023 C
ENDROOT
BRANCH  17  21
HETATM   21  C20 UNL     1      38.563  34.143  50.464  1.00  0.00     0.011 C
BRANCH  21  22
HETATM   22  C21 UNL     1      38.485  32.632  50.466  1.00  0.00     0.023 C
BRANCH  22  23
HETATM   23  C22 UNL     1      37.709  32.066  49.308  1.00  0.00     0.151 C
BRANCH  23  24
HETATM   24  N1  UNL     1      36.317  31.977  49.688  1.00  0.00    -0.271 N
HETATM   25  C23 UNL     1      35.394  32.972  49.524  1.00  0.00     0.219 A
HETATM   26  N2  UNL     1      34.198  32.556  49.968  1.00  0.00    -0.279 N
HETATM   27  N3  UNL     1      34.372  31.326  50.402  1.00  0.00    -0.227 N
ATOM     28  H2  UNL     1      33.328  33.087  49.968  1.00  0.00     0.189 HD
HETATM   29  N4  UNL     1      35.633  30.983  50.234  1.00  0.00    -0.225 N
ATOM     30  H3  UNL     1      33.646  30.733  50.805  1.00  0.00     0.210 HD
ATOM     31  H4  UNL     1      36.026  30.077  50.488  1.00  0.00     0.210 HD
ENDBRANCH  23  24
ENDBRANCH  22  23
ENDBRANCH  21  22
ENDBRANCH  17  21
BRANCH   1  32
HETATM   32  O2  UNL     1      39.718  41.306  53.797  1.00  0.00    -0.315 OA
BRANCH  32  33
HETATM   33  C2  UNL     1      38.849  42.381  53.701  1.00  0.00     0.255 C
HETATM   34  C1  UNL     1      37.396  42.263  54.046  1.00  0.00     0.126 C
HETATM   35  O1  UNL     1      39.266  43.507  53.314  1.00  0.00    -0.266 OA
ENDBRANCH  32  33
ENDBRANCH   1  32
TORSDOF 6
ENDMDL