MODEL 2
REMARK VINA RESULT: -9.205308939      3.977      8.136
REMARK  5 active torsions:
REMARK  status: ('A' for Active; 'I' for Inactive)
REMARK    1  A    between atoms: C3_4  and  C4_5
REMARK    2  A    between atoms: C5_10  and  C6_11
REMARK    3  A    between atoms: C6_11  and  N4_12
REMARK    4  A    between atoms: N5_23  and  C15_24
REMARK    5  A    between atoms: C15_24  and  C16_25
ROOT
HETATM    1  C1  UNL     1      41.080  33.527  54.050  1.00  0.00     0.156 C
HETATM    2  N1  UNL     1      41.505  34.857  53.641  1.00  0.00    -0.358 N
HETATM    3  C2  UNL     1      42.737  35.182  53.242  1.00  0.00     0.109 A
HETATM    4  C3  UNL     1      42.792  36.553  52.920  1.00  0.00     0.061 A
HETATM    5  C11 UNL     1      41.523  37.024  53.152  1.00  0.00     0.078 A
HETATM    6  C12 UNL     1      40.729  35.954  53.601  1.00  0.00     0.070 A
HETATM    7  C13 UNL     1      39.460  36.427  53.827  1.00  0.00    -0.006 A
HETATM    8  C14 UNL     1      39.448  37.764  53.529  1.00  0.00     0.020 A
HETATM    9  N5  UNL     1      40.711  38.096  53.125  1.00  0.00    -0.347 N
HETATM   10  C22 UNL     1      38.170  38.490  53.671  1.00  0.00     0.058 C
HETATM   11  C23 UNL     1      37.032  37.657  53.135  1.00  0.00     0.006 C
HETATM   12  C24 UNL     1      36.968  36.273  53.688  1.00  0.00     0.005 C
HETATM   13  C25 UNL     1      38.226  35.762  54.301  1.00  0.00     0.043 C
ENDROOT
BRANCH   4  14
HETATM   14  C4  UNL     1      43.976  37.245  52.440  1.00  0.00     0.178 A
HETATM   15  N2  UNL     1      44.223  38.325  51.724  1.00  0.00    -0.277 N
HETATM   16  N3  UNL     1      45.509  38.539  51.556  1.00  0.00    -0.280 N
ATOM     17  H2  UNL     1      43.495  38.928  51.342  1.00  0.00     0.189 HD
HETATM   18  C5  UNL     1      46.123  37.551  52.192  1.00  0.00     0.169 A
ATOM     19  H3  UNL     1      45.944  39.305  51.042  1.00  0.00     0.189 HD
HETATM   20  O2  UNL     1      45.216  36.789  52.713  1.00  0.00    -0.275 OA
BRANCH  18  21
HETATM   21  C6  UNL     1      47.578  37.270  52.345  1.00  0.00     0.358 C
BRANCH  21  22
HETATM   22  N4  UNL     1      48.080  36.277  51.456  1.00  0.00     0.100 N
HETATM   23  C7  UNL     1      47.869  34.980  52.063  1.00  0.00     0.299 C
HETATM   24  C8  UNL     1      49.000  34.687  53.033  1.00  0.00     0.198 C
HETATM   25  O1  UNL     1      50.163  34.597  52.271  1.00  0.00    -0.388 OA
HETATM   26  C9  UNL     1      50.474  35.878  51.836  1.00  0.00     0.198 C
HETATM   27  C10 UNL     1      49.396  36.468  50.960  1.00  0.00     0.299 C
ENDBRANCH  21  22
ENDBRANCH  18  21
ENDBRANCH   4  14
BRANCH   9  28
HETATM   28  C15 UNL     1      41.060  39.420  52.720  1.00  0.00     0.134 C
BRANCH  28  29
HETATM   29  C16 UNL     1      41.476  40.358  53.817  1.00  0.00     0.004 C
HETATM   30  C17 UNL     1      42.662  39.853  54.564  1.00  0.00     0.006 C
HETATM   31  C18 UNL     1      43.109  40.845  55.639  1.00  0.00     0.000 C
HETATM   32  C19 UNL     1      41.917  41.464  56.326  1.00  0.00     0.000 C
HETATM   33  C20 UNL     1      40.704  40.563  56.163  1.00  0.00     0.000 C
HETATM   34  C21 UNL     1      40.287  40.623  54.719  1.00  0.00     0.006 C
ENDBRANCH  28  29
ENDBRANCH   9  28
TORSDOF 5
ENDMDL