MODEL 3
REMARK VINA RESULT: -8.747279981      1.507      1.846
REMARK  5 active torsions:
REMARK  status: ('A' for Active; 'I' for Inactive)
REMARK    1  A    between atoms: C2_2  and  N1_3
REMARK    2  A    between atoms: N1_3  and  C3_5
REMARK    3  A    between atoms: C3_5  and  C4_6
REMARK    4  A    between atoms: N2_9  and  C7_10
REMARK    5  A    between atoms: C8_13  and  N4_14
ROOT
HETATM    1  C7  UNL     1      41.359  36.811  52.673  1.00  0.00     0.131 A
HETATM    2  N3  UNL     1      40.569  35.835  52.129  1.00  0.00    -0.176 N
ATOM      3  H3  UNL     1      40.984  34.937  51.880  1.00  0.00     0.186 HD
HETATM    4  C8  UNL     1      39.268  36.033  51.917  1.00  0.00     0.682 A
HETATM    5  N5  UNL     1      38.775  37.232  52.261  1.00  0.00    -0.191 N
ATOM      6  H5  UNL     1      37.780  37.396  52.103  1.00  0.00     0.184 HD
HETATM    7  C16 UNL     1      39.492  38.230  52.796  1.00  0.00     0.065 A
HETATM    8  C17 UNL     1      38.905  39.422  53.105  1.00  0.00     0.063 A
HETATM    9  C18 UNL     1      39.696  40.419  53.641  1.00  0.00     0.064 A
HETATM   10  C19 UNL     1      41.040  40.220  53.862  1.00  0.00     0.061 A
HETATM   11  C20 UNL     1      41.649  39.008  53.552  1.00  0.00     0.049 A
HETATM   12  C21 UNL     1      40.853  38.020  53.017  1.00  0.00     0.038 A
HETATM   13  N6  UNL     1      41.555  41.353  54.388  1.00  0.00    -0.350 N
ATOM     14  H6  UNL     1      42.525  41.511  54.659  1.00  0.00     0.166 HD
HETATM   15  C22 UNL     1      40.536  42.235  54.486  1.00  0.00     0.183 A
HETATM   16  N7  UNL     1      39.402  41.673  54.033  1.00  0.00    -0.345 N
HETATM   17  C23 UNL     1      38.084  42.262  53.959  1.00  0.00     0.157 C
ENDROOT
BRANCH   1  18
HETATM   18  N2  UNL     1      42.737  36.519  52.913  1.00  0.00    -0.366 N
HETATM   19  C6  UNL     1      43.818  37.401  52.558  1.00  0.00     0.125 C
HETATM   20  C5  UNL     1      45.181  36.844  52.657  1.00  0.00     0.030 C
HETATM   21  C4  UNL     1      45.347  35.370  52.725  1.00  0.00     0.026 C
HETATM   22  C25 UNL     1      44.059  34.570  52.703  1.00  0.00     0.030 C
HETATM   23  C24 UNL     1      43.057  35.270  53.562  1.00  0.00     0.125 C
BRANCH  21  24
HETATM   24  C3  UNL     1      46.210  34.807  51.643  1.00  0.00     0.060 C
BRANCH  24  25
HETATM   25  N1  UNL     1      47.601  34.954  51.723  1.00  0.00    -0.402 N
ATOM     26  H1  UNL     1      48.168  34.213  52.136  1.00  0.00     0.158 HD
BRANCH  25  27
HETATM   27  C2  UNL     1      48.224  36.127  51.230  1.00  0.00     0.114 C
HETATM   28  C1  UNL     1      49.697  36.096  50.972  1.00  0.00     0.026 C
ENDBRANCH  25  27
ENDBRANCH  24  25
ENDBRANCH  21  24
ENDBRANCH   1  18
BRANCH   4  29
HETATM   29  N4  UNL     1      38.423  35.028  51.346  1.00  0.00    -0.217 N
HETATM   30  C9  UNL     1      37.396  35.394  50.439  1.00  0.00     0.145 C
HETATM   31  C10 UNL     1      36.798  34.317  49.613  1.00  0.00     0.000 C
HETATM   32  C11 UNL     1      35.289  34.265  49.896  1.00  0.00     0.011 C
HETATM   33  C12 UNL     1      37.303  32.938  49.827  1.00  0.00     0.011 C
HETATM   34  C13 UNL     1      38.710  32.892  50.373  1.00  0.00     0.000 C
HETATM   35  C14 UNL     1      39.087  31.453  50.573  1.00  0.00     0.011 C
HETATM   36  C15 UNL     1      38.639  33.648  51.706  1.00  0.00     0.145 C
ENDBRANCH   4  29
TORSDOF 5
ENDMDL