MODEL 5
REMARK VINA RESULT: -8.522726460      3.108      4.944
REMARK  6 active torsions:
REMARK  status: ('A' for Active; 'I' for Inactive)
REMARK       I    between atoms: C1_2  and  N1_3
REMARK    1  A    between atoms: C1_2  and  C18_29
REMARK    2  A    between atoms: N1_3  and  C2_5
REMARK    3  A    between atoms: C3_10  and  S1_11
REMARK    4  A    between atoms: S1_11  and  C4_12
REMARK    5  A    between atoms: C4_12  and  C5_14
REMARK    6  A    between atoms: N4_17  and  C8_18
ROOT
HETATM    1  S1  UNL     1      42.374  41.315  55.821  1.00  0.00    -0.025 SA
ENDROOT
BRANCH   1   2
HETATM    2  C3  UNL     1      43.480  40.468  54.673  1.00  0.00     0.137 A
HETATM    3  N3  UNL     1      44.764  40.679  54.427  1.00  0.00    -0.286 N
HETATM    4  N2  UNL     1      45.378  39.972  53.574  1.00  0.00    -0.278 N
ATOM      5  H3  UNL     1      45.261  41.416  54.927  1.00  0.00     0.188 HD
HETATM    6  C2  UNL     1      44.711  39.010  52.931  1.00  0.00     0.168 A
ATOM      7  H2  UNL     1      46.367  40.134  53.382  1.00  0.00     0.189 HD
HETATM    8  S2  UNL     1      43.143  39.166  53.608  1.00  0.00    -0.026 SA
BRANCH   6   9
HETATM    9  N1  UNL     1      45.143  38.177  52.013  1.00  0.00    -0.300 N
HETATM   10  C1  UNL     1      46.480  37.760  52.091  1.00  0.00     0.281 C
HETATM   11  O1  UNL     1      47.307  38.179  51.232  1.00  0.00    -0.265 OA
ATOM     12  H1  UNL     1      44.529  37.845  51.269  1.00  0.00     0.171 HD
BRANCH  10  13
HETATM   13  C18 UNL     1      46.937  36.865  53.129  1.00  0.00     0.142 A
HETATM   14  C19 UNL     1      47.938  37.098  54.028  1.00  0.00     0.045 A
HETATM   15  C20 UNL     1      48.039  35.988  54.832  1.00  0.00     0.027 A
HETATM   16  C21 UNL     1      47.056  35.112  54.355  1.00  0.00     0.143 A
HETATM   17  O3  UNL     1      46.422  35.660  53.348  1.00  0.00    -0.317 OA
ENDBRANCH  10  13
ENDBRANCH   6   9
ENDBRANCH   1   2
BRANCH   1  18
HETATM   18  C4  UNL     1      40.710  41.151  55.174  1.00  0.00     0.197 C
HETATM   19  O2  UNL     1      40.379  41.500  54.058  1.00  0.00    -0.285 OA
BRANCH  18  20
HETATM   20  C5  UNL     1      39.650  40.553  56.043  1.00  0.00     0.070 C
HETATM   21  C6  UNL     1      40.329  39.518  56.916  1.00  0.00     0.043 C
HETATM   22  C7  UNL     1      39.376  38.758  57.769  1.00  0.00     0.273 C
HETATM   23  N4  UNL     1      38.020  38.689  57.266  1.00  0.00     0.093 N
HETATM   24  C16 UNL     1      38.013  38.752  55.862  1.00  0.00     0.273 C
HETATM   25  C17 UNL     1      38.559  39.979  55.220  1.00  0.00     0.043 C
BRANCH  23  26
HETATM   26  C8  UNL     1      37.193  39.549  58.025  1.00  0.00     0.223 C
HETATM   27  C9  UNL     1      35.733  39.462  57.863  1.00  0.00     0.036 C
HETATM   28  C10 UNL     1      34.933  39.068  59.069  1.00  0.00     0.002 C
HETATM   29  C11 UNL     1      34.838  40.049  60.168  1.00  0.00     0.000 C
HETATM   30  C12 UNL     1      35.180  41.464  59.845  1.00  0.00     0.000 C
HETATM   31  C13 UNL     1      36.633  41.782  59.772  1.00  0.00     0.000 C
HETATM   32  C14 UNL     1      37.568  40.722  60.230  1.00  0.00     0.002 C
HETATM   33  C15 UNL     1      37.638  39.456  59.486  1.00  0.00     0.036 C
ENDBRANCH  23  26
ENDBRANCH  18  20
ENDBRANCH   1  18
TORSDOF 6
ENDMDL