MODEL 2
REMARK VINA RESULT: -8.309117990      1.506      2.892
REMARK  8 active torsions:
REMARK  status: ('A' for Active; 'I' for Inactive)
REMARK    1  A    between atoms: O1_2  and  C2_3
REMARK    2  A    between atoms: N1_5  and  C3_6
REMARK    3  A    between atoms: C3_6  and  C4_7
REMARK    4  A    between atoms: C4_7  and  C5_8
REMARK    5  A    between atoms: C14_18  and  C15_19
REMARK    6  A    between atoms: C18_22  and  O4_23
REMARK    7  A    between atoms: C23_29  and  O5_30
REMARK    8  A    between atoms: O5_30  and  C24_31
ROOT
HETATM    1  C5  UNL     1      41.130  39.119  53.503  1.00  0.00     0.054 C
HETATM    2  O3  UNL     1      40.853  40.464  53.378  1.00  0.00    -0.351 OA
HETATM    3  C6  UNL     1      41.004  41.215  54.580  1.00  0.00     0.202 C
HETATM    4  C7  UNL     1      40.289  40.629  55.726  1.00  0.00    -0.004 C
HETATM    5  C8  UNL     1      40.391  40.443  56.988  1.00  0.00    -0.029 C
HETATM    6  C9  UNL     1      39.623  39.835  58.105  1.00  0.00     0.027 C
HETATM    7  C10 UNL     1      39.775  38.304  58.161  1.00  0.00     0.004 C
HETATM    8  C11 UNL     1      38.847  37.600  57.233  1.00  0.00     0.000 C
HETATM    9  C12 UNL     1      39.538  36.531  56.368  1.00  0.00     0.000 C
HETATM   10  C13 UNL     1      38.887  36.506  55.032  1.00  0.00     0.007 C
HETATM   11  C14 UNL     1      39.699  36.116  53.837  1.00  0.00     0.018 C
HETATM   12  C18 UNL     1      39.688  37.110  52.783  1.00  0.00     0.132 C
HETATM   13  C19 UNL     1      40.639  38.185  52.504  1.00  0.00     0.067 C
HETATM   14  C20 UNL     1      39.841  39.062  51.487  1.00  0.00     0.020 C
ENDROOT
BRANCH   1  15
HETATM   15  C4  UNL     1      42.515  38.970  53.994  1.00  0.00     0.052 C
BRANCH  15  16
HETATM   16  C3  UNL     1      43.736  39.311  53.290  1.00  0.00     0.119 C
BRANCH  16  17
HETATM   17  N1  UNL     1      44.563  38.418  52.607  1.00  0.00    -0.267 N
HETATM   18  O2  UNL     1      44.944  37.333  53.316  1.00  0.00    -0.243 OA
HETATM   19  C2  UNL     1      45.487  36.365  52.476  1.00  0.00     0.317 C
HETATM   20  C23 UNL     1      46.824  36.816  51.986  1.00  0.00     0.191 C
HETATM   21  C22 UNL     1      46.952  38.288  52.169  1.00  0.00     0.060 C
HETATM   22  C21 UNL     1      45.590  38.874  51.743  1.00  0.00     0.158 C
BRANCH  19  23
HETATM   23  O1  UNL     1      45.672  35.200  53.198  1.00  0.00    -0.361 OA
HETATM   24  C1  UNL     1      44.883  34.178  52.714  1.00  0.00     0.205 C
ENDBRANCH  19  23
BRANCH  20  25
HETATM   25  O5  UNL     1      47.897  36.069  52.488  1.00  0.00    -0.311 OA
BRANCH  25  26
HETATM   26  C24 UNL     1      48.841  35.393  51.772  1.00  0.00     0.255 C
HETATM   27  C25 UNL     1      49.961  36.069  51.090  1.00  0.00     0.126 C
HETATM   28  O6  UNL     1      48.734  34.145  51.701  1.00  0.00    -0.266 OA
ENDBRANCH  25  26
ENDBRANCH  20  25
ENDBRANCH  16  17
ENDBRANCH  15  16
ENDBRANCH   1  15
BRANCH  12  29
HETATM   29  O4  UNL     1      38.400  37.735  52.864  1.00  0.00    -0.394 OA
ATOM     30  H4  UNL     1      37.966  37.524  52.046  1.00  0.00     0.210 HD
ENDBRANCH  12  29
BRANCH  11  31
HETATM   31  C15 UNL     1      40.931  35.335  54.162  1.00  0.00    -0.016 C
HETATM   32  C16 UNL     1      40.596  33.850  54.287  1.00  0.00     0.010 C
HETATM   33  C17 UNL     1      41.971  35.460  53.101  1.00  0.00     0.010 C
ENDBRANCH  11  31
TORSDOF 8
ENDMDL