MODEL 1
REMARK VINA RESULT: -7.775137783      0.000      0.000
REMARK  5 active torsions:
REMARK  status: ('A' for Active; 'I' for Inactive)
REMARK    1  A    between atoms: C2_2  and  O1_3
REMARK    2  A    between atoms: O1_3  and  C3_4
REMARK    3  A    between atoms: C14_22  and  O4_23
REMARK    4  A    between atoms: O4_23  and  C15_24
REMARK    5  A    between atoms: N4_30  and  C21_31
ROOT
HETATM    1  C3  UNL     1      41.529  40.059  54.384  1.00  0.00     0.104 A
HETATM    2  C4  UNL     1      40.794  41.077  55.014  1.00  0.00     0.043 A
HETATM    3  C5  UNL     1      41.301  42.495  55.059  1.00  0.00     0.071 C
HETATM    4  N1  UNL     1      39.622  40.750  55.560  1.00  0.00    -0.323 N
ATOM      5  H1  UNL     1      39.078  41.479  56.023  1.00  0.00     0.169 HD
HETATM    6  C6  UNL     1      39.123  39.488  55.527  1.00  0.00     0.273 A
HETATM    7  O2  UNL     1      38.032  39.342  56.072  1.00  0.00    -0.266 OA
HETATM    8  C7  UNL     1      39.772  38.449  54.935  1.00  0.00     0.118 A
HETATM    9  C8  UNL     1      41.009  38.772  54.351  1.00  0.00     0.044 A
HETATM   10  C9  UNL     1      41.457  37.633  53.775  1.00  0.00     0.012 A
HETATM   11  C10 UNL     1      42.631  37.517  53.053  1.00  0.00     0.043 C
HETATM   12  C11 UNL     1      43.351  36.333  52.912  1.00  0.00     0.113 C
HETATM   13  C12 UNL     1      44.681  36.520  52.458  1.00  0.00     0.105 C
HETATM   14  N2  UNL     1      45.757  36.668  52.105  1.00  0.00    -0.191 NA
HETATM   15  C13 UNL     1      42.933  35.028  53.156  1.00  0.00     0.268 C
HETATM   16  O3  UNL     1      43.769  34.131  53.024  1.00  0.00    -0.266 OA
HETATM   17  N3  UNL     1      41.692  34.597  53.529  1.00  0.00    -0.301 N
ATOM     18  H3  UNL     1      41.604  33.620  53.806  1.00  0.00     0.171 HD
HETATM   19  C14 UNL     1      40.569  35.349  53.566  1.00  0.00     0.174 C
HETATM   20  C20 UNL     1      40.496  36.648  54.023  1.00  0.00     0.098 A
HETATM   21  N4  UNL     1      39.472  37.154  54.737  1.00  0.00    -0.333 N
ENDROOT
BRANCH  19  22
HETATM   22  O4  UNL     1      39.368  34.835  53.123  1.00  0.00    -0.329 OA
BRANCH  22  23
HETATM   23  C15 UNL     1      39.039  34.714  51.751  1.00  0.00     0.130 C
HETATM   24  C16 UNL     1      38.093  35.777  51.291  1.00  0.00     0.032 C
HETATM   25  C17 UNL     1      36.827  35.117  50.865  1.00  0.00     0.002 C
HETATM   26  C18 UNL     1      37.039  33.642  50.967  1.00  0.00     0.002 C
HETATM   27  C19 UNL     1      38.476  33.392  51.365  1.00  0.00     0.032 C
ENDBRANCH  22  23
ENDBRANCH  19  22
BRANCH   1  28
HETATM   28  O1  UNL     1      42.712  40.468  53.855  1.00  0.00    -0.349 OA
BRANCH  28  29
HETATM   29  C2  UNL     1      43.921  40.458  54.556  1.00  0.00     0.171 C
HETATM   30  C1  UNL     1      45.169  40.109  53.844  1.00  0.00     0.034 C
ENDBRANCH  28  29
ENDBRANCH   1  28
BRANCH  21  31
HETATM   31  C21 UNL     1      38.361  36.435  55.202  1.00  0.00     0.091 C
HETATM   32  C22 UNL     1      36.992  36.710  54.714  1.00  0.00     0.026 C
HETATM   33  C23 UNL     1      36.028  36.360  55.840  1.00  0.00     0.002 C
HETATM   34  C24 UNL     1      36.847  36.118  57.078  1.00  0.00     0.002 C
HETATM   35  C25 UNL     1      38.284  36.300  56.745  1.00  0.00     0.026 C
ENDBRANCH  21  31
TORSDOF 5
ENDMDL