MODEL 5
REMARK VINA RESULT: -4.460508792      1.769      6.979
REMARK  7 active torsions:
REMARK  status: ('A' for Active; 'I' for Inactive)
REMARK    1  A    between atoms: N1_1  and  C1_4
REMARK    2  A    between atoms: C4_11  and  N5_12
REMARK    3  A    between atoms: N5_12  and  C5_14
REMARK    4  A    between atoms: C7_16  and  C8_17
REMARK    5  A    between atoms: C8_17  and  C9_18
REMARK    6  A    between atoms: C9_18  and  N6_19
REMARK    7  A    between atoms: C11_26  and  C12_27
ROOT
HETATM    1  C1  UNL     1      46.052  28.943  10.379  1.00  0.00     0.115 A
HETATM    2  N2  UNL     1      46.806  29.461   9.366  1.00  0.00    -0.329 N
ATOM      3  H2  UNL     1      46.386  29.576   8.444  1.00  0.00     0.168 HD
HETATM    4  C2  UNL     1      48.085  29.824   9.550  1.00  0.00     0.144 A
HETATM    5  N3  UNL     1      48.844  30.364   8.475  1.00  0.00    -0.081 NA
HETATM    6  C3  UNL     1      48.609  29.643  10.825  1.00  0.00     0.115 A
HETATM    7  N4  UNL     1      49.956  30.052  10.982  1.00  0.00    -0.096 NA
HETATM    8  C4  UNL     1      47.909  29.130  11.871  1.00  0.00     0.075 A
HETATM    9  C11 UNL     1      46.576  28.767  11.639  1.00  0.00     0.073 A
ENDROOT
BRANCH   8  10
HETATM   10  N5  UNL     1      48.520  28.968  13.142  1.00  0.00    -0.361 N
ATOM     11  H5  UNL     1      48.441  29.762  13.777  1.00  0.00     0.162 HD
BRANCH  10  12
HETATM   12  C5  UNL     1      49.219  27.856  13.638  1.00  0.00     0.233 C
HETATM   13  C6  UNL     1      50.404  28.059  14.508  1.00  0.00     0.092 C
HETATM   14  C7  UNL     1      50.621  26.618  14.990  1.00  0.00    -0.026 C
HETATM   15  C10 UNL     1      49.440  26.057  14.959  1.00  0.00     0.156 C
HETATM   16  N7  UNL     1      49.145  24.713  15.322  1.00  0.00    -0.075 NA
HETATM   17  O1  UNL     1      48.459  26.990  14.503  1.00  0.00    -0.312 OA
BRANCH  14  18
HETATM   18  C8  UNL     1      51.959  26.149  15.388  1.00  0.00     0.065 C
BRANCH  18  19
HETATM   19  C9  UNL     1      52.563  25.025  14.655  1.00  0.00     0.234 C
BRANCH  19  20
HETATM   20  N6  UNL     1      51.971  23.734  14.860  1.00  0.00    -0.079 N
ATOM     21  H63 UNL     1      52.636  23.006  14.597  1.00  0.00     0.274 HD
ATOM     22  H62 UNL     1      51.882  23.553  15.860  1.00  0.00     0.274 HD
ATOM     23  H61 UNL     1      51.077  23.565  14.400  1.00  0.00     0.274 HD
ENDBRANCH  19  20
ENDBRANCH  18  19
ENDBRANCH  14  18
ENDBRANCH  10  12
ENDBRANCH   8  10
BRANCH   9  24
HETATM   24  C12 UNL     1      45.705  28.295  12.699  1.00  0.00     0.276 C
HETATM   25  O2  UNL     1      45.201  27.139  12.733  1.00  0.00    -0.301 OA
ENDBRANCH   9  24
BRANCH   1  26
HETATM   26  N1  UNL     1      44.857  28.637  10.080  1.00  0.00    -0.385 N
ATOM     27  H12 UNL     1      44.056  28.909  10.649  1.00  0.00     0.157 HD
ATOM     28  H11 UNL     1      44.737  28.094   9.225  1.00  0.00     0.157 HD
ENDBRANCH   1  26
TORSDOF 7
ENDMDL