MODEL 4
REMARK VINA RESULT: -4.937133387      3.019      7.182
REMARK  8 active torsions:
REMARK  status: ('A' for Active; 'I' for Inactive)
REMARK       I    between atoms: N1_1  and  C1_5
REMARK       I    between atoms: C1_5  and  N2_6
REMARK       I    between atoms: C1_5  and  N3_10
REMARK    1  A    between atoms: N3_10  and  C2_12
REMARK    2  A    between atoms: C2_12  and  C3_13
REMARK    3  A    between atoms: C3_13  and  S1_14
REMARK    4  A    between atoms: S1_14  and  S2_15
REMARK    5  A    between atoms: S2_15  and  C4_16
REMARK    6  A    between atoms: C9_21  and  N4_22
REMARK    7  A    between atoms: C9_21  and  N5_26
REMARK    8  A    between atoms: N5_26  and  O1_27
ROOT
HETATM    1  S1  UNL     1      50.002  27.910  14.876  1.00  0.00    -0.096 SA
ENDROOT
BRANCH   1   2
HETATM    2  C3  UNL     1      50.083  26.065  14.922  1.00  0.00     0.105 C
BRANCH   2   3
HETATM    3  C2  UNL     1      51.529  25.733  15.087  1.00  0.00     0.128 C
BRANCH   3   4
HETATM    4  N3  UNL     1      51.991  24.496  14.578  1.00  0.00    -0.373 N
HETATM    5  C1  UNL     1      51.131  23.374  14.715  1.00  0.00     0.476 C
HETATM    6  N1  UNL     1      51.776  22.266  13.960  1.00  0.00    -0.033 N
HETATM    7  N2  UNL     1      50.915  22.961  16.071  1.00  0.00    -0.033 N
ATOM      8  H13 UNL     1      52.633  21.941  14.406  1.00  0.00     0.278 HD
ATOM      9  H12 UNL     1      51.245  21.397  14.020  1.00  0.00     0.278 HD
ATOM     10  H11 UNL     1      51.929  22.559  12.995  1.00  0.00     0.278 HD
ATOM     11  H23 UNL     1      50.384  22.093  16.131  1.00  0.00     0.278 HD
ATOM     12  H22 UNL     1      51.773  22.637  16.517  1.00  0.00     0.278 HD
ATOM     13  H21 UNL     1      50.473  23.721  16.589  1.00  0.00     0.278 HD
ATOM     14  H3  UNL     1      52.904  24.414  14.131  1.00  0.00     0.156 HD
ENDBRANCH   3   4
ENDBRANCH   2   3
ENDBRANCH   1   2
BRANCH   1  15
HETATM   15  S2  UNL     1      47.983  28.407  14.439  1.00  0.00    -0.089 SA
BRANCH  15  16
HETATM   16  C4  UNL     1      47.952  29.219  12.811  1.00  0.00     0.113 C
HETATM   17  C5  UNL     1      49.286  29.721  12.384  1.00  0.00     0.020 C
HETATM   18  C6  UNL     1      49.562  29.663  10.932  1.00  0.00     0.001 C
HETATM   19  C7  UNL     1      48.360  29.695  10.044  1.00  0.00     0.004 C
HETATM   20  C8  UNL     1      47.207  28.878  10.514  1.00  0.00     0.060 C
HETATM   21  C9  UNL     1      47.392  28.210  11.830  1.00  0.00     0.231 C
BRANCH  21  22
HETATM   22  N4  UNL     1      48.149  27.000  11.800  1.00  0.00    -0.053 N
ATOM     23  H43 UNL     1      47.595  26.230  11.424  1.00  0.00     0.277 HD
ATOM     24  H42 UNL     1      48.877  27.041  11.087  1.00  0.00     0.277 HD
ATOM     25  H41 UNL     1      48.541  26.762  12.711  1.00  0.00     0.277 HD
ENDBRANCH  21  22
BRANCH  21  26
HETATM   26  N5  UNL     1      46.050  27.879  12.348  1.00  0.00    -0.062 NA
BRANCH  26  27
HETATM   27  O1  UNL     1      45.143  28.149  11.378  1.00  0.00    -0.294 OA
ATOM     28  H1  UNL     1      44.670  27.349  11.182  1.00  0.00     0.238 HD
ENDBRANCH  26  27
ENDBRANCH  21  26
ENDBRANCH  15  16
ENDBRANCH   1  15
TORSDOF 8
ENDMDL