MODEL 2
REMARK VINA RESULT: -5.784224484      1.555      6.923
REMARK  9 active torsions:
REMARK  status: ('A' for Active; 'I' for Inactive)
REMARK    1  A    between atoms: C2_2  and  C3_3
REMARK    2  A    between atoms: C3_3  and  C4_4
REMARK    3  A    between atoms: C4_4  and  N1_5
REMARK    4  A    between atoms: N1_5  and  C5_8
REMARK    5  A    between atoms: C5_8  and  C6_9
REMARK    6  A    between atoms: C6_9  and  N2_10
REMARK    7  A    between atoms: C8_14  and  N4_15
REMARK    8  A    between atoms: C9_20  and  N6_21
REMARK    9  A    between atoms: C11_29  and  N9_30
ROOT
HETATM    1  N2  UNL     1      49.249  28.075  13.928  1.00  0.00    -0.122 N
HETATM    2  N3  UNL     1      49.391  28.707  12.777  1.00  0.00    -0.277 N
ATOM      3  H3  UNL     1      50.312  29.061  12.518  1.00  0.00     0.188 HD
HETATM    4  C7  UNL     1      48.375  28.894  11.952  1.00  0.00     0.138 A
HETATM    5  C8  UNL     1      48.473  29.545  10.743  1.00  0.00     0.146 A
HETATM    6  N5  UNL     1      47.392  29.681   9.986  1.00  0.00    -0.175 N
ATOM      7  H5  UNL     1      47.487  30.165   9.093  1.00  0.00     0.186 HD
HETATM    8  C9  UNL     1      46.178  29.215  10.328  1.00  0.00     0.679 A
HETATM    9  N7  UNL     1      46.059  28.578  11.501  1.00  0.00    -0.174 N
ATOM     10  H7  UNL     1      45.149  28.215  11.784  1.00  0.00     0.186 HD
HETATM   11  C10 UNL     1      47.132  28.407  12.322  1.00  0.00     0.168 A
HETATM   12  N8  UNL     1      47.009  27.769  13.493  1.00  0.00    -0.172 N
ATOM     13  H8  UNL     1      46.097  27.408  13.772  1.00  0.00     0.186 HD
HETATM   14  C11 UNL     1      48.066  27.595  14.312  1.00  0.00     0.694 A
ENDROOT
BRANCH   1  15
HETATM   15  C6  UNL     1      50.426  27.916  14.740  1.00  0.00     0.195 C
BRANCH  15  16
HETATM   16  C5  UNL     1      51.179  26.659  14.377  1.00  0.00     0.254 C
BRANCH  16  17
HETATM   17  N1  UNL     1      52.285  26.471  15.258  1.00  0.00    -0.074 N
ATOM     18  H12 UNL     1      52.057  26.807  16.194  1.00  0.00     0.277 HD
ATOM     19  H11 UNL     1      53.043  27.112  15.022  1.00  0.00     0.277 HD
BRANCH  17  20
HETATM   20  C4  UNL     1      52.769  25.116  15.313  1.00  0.00     0.232 C
BRANCH  20  21
HETATM   21  C3  UNL     1      51.854  24.276  14.420  1.00  0.00     0.027 C
BRANCH  21  22
HETATM   22  C2  UNL     1      51.062  23.349  15.335  1.00  0.00    -0.003 C
HETATM   23  C1  UNL     1      49.585  23.635  15.253  1.00  0.00     0.005 C
ENDBRANCH  21  22
ENDBRANCH  20  21
ENDBRANCH  17  20
ENDBRANCH  16  17
ENDBRANCH  15  16
ENDBRANCH   1  15
BRANCH  14  24
HETATM   24  N9  UNL     1      47.882  26.973  15.457  1.00  0.00    -0.233 N
ATOM     25  H92 UNL     1      47.730  25.964  15.447  1.00  0.00     0.174 HD
ATOM     26  H91 UNL     1      47.875  27.455  16.355  1.00  0.00     0.174 HD
ENDBRANCH  14  24
BRANCH   5  27
HETATM   27  N4  UNL     1      49.652  29.991  10.424  1.00  0.00    -0.383 N
ATOM     28  H42 UNL     1      50.513  29.738  10.910  1.00  0.00     0.157 HD
ATOM     29  H41 UNL     1      49.692  30.633   9.634  1.00  0.00     0.157 HD
ENDBRANCH   5  27
BRANCH   8  30
HETATM   30  N6  UNL     1      45.144  29.381   9.536  1.00  0.00    -0.234 N
ATOM     31  H62 UNL     1      44.578  28.588   9.235  1.00  0.00     0.174 HD
ATOM     32  H61 UNL     1      44.883  30.308   9.202  1.00  0.00     0.174 HD
ENDBRANCH   8  30
TORSDOF 9
ENDMDL