MODEL 5
REMARK VINA RESULT: -6.185469441      1.578      2.728
REMARK  9 active torsions:
REMARK  status: ('A' for Active; 'I' for Inactive)
REMARK    1  A    between atoms: N1_1  and  C1_4
REMARK    2  A    between atoms: C3_9  and  N4_10
REMARK    3  A    between atoms: N5_12  and  C4_14
REMARK    4  A    between atoms: C4_14  and  C5_15
REMARK    5  A    between atoms: C5_15  and  C6_16
REMARK    6  A    between atoms: C6_16  and  S1_17
REMARK    7  A    between atoms: S1_17  and  C7_18
REMARK    8  A    between atoms: C7_18  and  C8_19
REMARK    9  A    between atoms: C9_22  and  N6_23
ROOT
HETATM    1  C1  UNL     1      51.880  22.635  14.761  1.00  0.00     0.678 A
HETATM    2  N2  UNL     1      50.597  22.997  14.851  1.00  0.00    -0.177 N
ATOM      3  H2  UNL     1      49.873  22.282  14.791  1.00  0.00     0.185 HD
HETATM    4  C2  UNL     1      50.239  24.275  15.018  1.00  0.00     0.163 A
HETATM    5  N3  UNL     1      48.838  24.642  15.113  1.00  0.00    -0.080 NA
HETATM    6  C3  UNL     1      51.203  25.256  15.101  1.00  0.00     0.134 A
HETATM    7  C9  UNL     1      52.522  24.864  15.006  1.00  0.00     0.146 A
HETATM    8  N7  UNL     1      52.839  23.570  14.838  1.00  0.00    -0.175 N
ATOM      9  H7  UNL     1      53.819  23.295  14.768  1.00  0.00     0.186 HD
ENDROOT
BRANCH   6  10
HETATM   10  N4  UNL     1      50.796  26.590  15.292  1.00  0.00    -0.299 N
HETATM   11  N5  UNL     1      50.068  27.244  14.516  1.00  0.00    -0.336 N
ATOM     12  H5  UNL     1      49.722  26.802  13.664  1.00  0.00     0.180 HD
ATOM     13  H4  UNL     1      51.124  27.062  16.134  1.00  0.00     0.186 HD
BRANCH  11  14
HETATM   14  C4  UNL     1      49.703  28.615  14.799  1.00  0.00     0.140 C
BRANCH  14  15
HETATM   15  C5  UNL     1      48.425  29.025  14.100  1.00  0.00     0.031 C
BRANCH  15  16
HETATM   16  C6  UNL     1      48.739  29.442  12.710  1.00  0.00     0.076 C
BRANCH  16  17
HETATM   17  S1  UNL     1      47.779  28.571  11.460  1.00  0.00    -0.158 SA
BRANCH  17  18
HETATM   18  C7  UNL     1      47.950  29.336   9.849  1.00  0.00     0.186 C
BRANCH  18  19
HETATM   19  C8  UNL     1      46.747  30.042   9.405  1.00  0.00     0.182 C
HETATM   20  O1  UNL     1      46.747  31.272   9.103  1.00  0.00    -0.647 OA
HETATM   21  O2  UNL     1      45.545  29.330   9.314  1.00  0.00    -0.647 OA
ENDBRANCH  18  19
ENDBRANCH  17  18
ENDBRANCH  16  17
ENDBRANCH  15  16
ENDBRANCH  14  15
ENDBRANCH  11  14
ENDBRANCH   6  10
BRANCH   7  22
HETATM   22  N6  UNL     1      53.404  25.770  15.089  1.00  0.00    -0.383 N
ATOM     23  H62 UNL     1      53.558  26.300  15.947  1.00  0.00     0.157 HD
ATOM     24  H61 UNL     1      53.961  25.958  14.256  1.00  0.00     0.157 HD
ENDBRANCH   7  22
BRANCH   1  25
HETATM   25  N1  UNL     1      52.146  21.364  14.604  1.00  0.00    -0.234 N
ATOM     26  H12 UNL     1      51.540  20.738  14.072  1.00  0.00     0.174 HD
ATOM     27  H11 UNL     1      52.997  20.999  15.031  1.00  0.00     0.174 HD
ENDBRANCH   1  25
TORSDOF 9
ENDMDL