MODEL 1
REMARK VINA RESULT: -4.733452475      0.000      0.000
REMARK  7 active torsions:
REMARK  status: ('A' for Active; 'I' for Inactive)
REMARK    1  A    between atoms: C2_2  and  C3_3
REMARK    2  A    between atoms: C3_3  and  C4_4
REMARK    3  A    between atoms: C4_4  and  C5_5
REMARK    4  A    between atoms: C5_5  and  C6_6
REMARK    5  A    between atoms: C6_6  and  N1_7
REMARK    6  A    between atoms: C8_13  and  N4_14
REMARK    7  A    between atoms: C9_19  and  N6_20
REMARK       I    between atoms: N7_24  and  C11_25
ROOT
HETATM    1  N1  UNL     1      48.988  27.041  14.951  1.00  0.00    -0.129 NA
HETATM    2  N2  UNL     1      48.635  25.831  15.609  1.00  0.00    -0.284 N
ATOM      3  H2  UNL     1      47.803  25.636  16.166  1.00  0.00     0.184 HD
HETATM    4  C7  UNL     1      49.729  24.947  15.304  1.00  0.00     0.165 A
HETATM    5  N3  UNL     1      49.795  23.609  15.263  1.00  0.00    -0.173 N
ATOM      6  H3  UNL     1      48.978  23.034  15.472  1.00  0.00     0.186 HD
HETATM    7  C8  UNL     1      50.982  23.044  14.937  1.00  0.00     0.679 A
HETATM    8  N5  UNL     1      52.052  23.816  14.665  1.00  0.00    -0.175 N
ATOM      9  H5  UNL     1      52.934  23.365  14.420  1.00  0.00     0.186 HD
HETATM   10  C9  UNL     1      52.000  25.178  14.703  1.00  0.00     0.147 A
HETATM   11  C10 UNL     1      50.809  25.756  15.031  1.00  0.00     0.145 A
HETATM   12  N7  UNL     1      50.400  27.110  15.164  1.00  0.00    -0.224 N
HETATM   13  C11 UNL     1      51.165  28.300  15.429  1.00  0.00     0.220 C
HETATM   14  N8  UNL     1      51.256  29.208  14.301  1.00  0.00    -0.065 NA
HETATM   15  N9  UNL     1      52.321  28.178  16.229  1.00  0.00    -0.065 NA
ENDROOT
BRANCH   1  16
HETATM   16  C6  UNL     1      48.706  26.820  13.548  1.00  0.00     0.139 C
BRANCH  16  17
HETATM   17  C5  UNL     1      48.019  28.075  12.996  1.00  0.00     0.018 C
BRANCH  17  18
HETATM   18  C4  UNL     1      48.000  28.027  11.499  1.00  0.00     0.001 C
BRANCH  18  19
HETATM   19  C3  UNL     1      48.569  29.256  10.865  1.00  0.00    -0.000 C
BRANCH  19  20
HETATM   20  C2  UNL     1      47.845  29.623   9.591  1.00  0.00    -0.005 C
HETATM   21  C1  UNL     1      46.342  29.553   9.796  1.00  0.00     0.005 C
ENDBRANCH  19  20
ENDBRANCH  18  19
ENDBRANCH  17  18
ENDBRANCH  16  17
ENDBRANCH   1  16
BRANCH  10  22
HETATM   22  N6  UNL     1      53.012  25.904  14.432  1.00  0.00    -0.383 N
ATOM     23  H62 UNL     1      53.275  26.077  13.461  1.00  0.00     0.157 HD
ATOM     24  H61 UNL     1      53.591  26.322  15.160  1.00  0.00     0.157 HD
ENDBRANCH  10  22
BRANCH   7  25
HETATM   25  N4  UNL     1      51.042  21.750  14.898  1.00  0.00    -0.234 N
ATOM     26  H42 UNL     1      50.387  21.196  14.346  1.00  0.00     0.174 HD
ATOM     27  H41 UNL     1      51.773  21.294  15.443  1.00  0.00     0.174 HD
ENDBRANCH   7  25
TORSDOF 7
ENDMDL