MODEL 4
REMARK VINA RESULT: -7.012216138      1.065      1.139
REMARK  9 active torsions:
REMARK  status: ('A' for Active; 'I' for Inactive)
REMARK    1  A    between atoms: N2_3  and  O1_4
REMARK    2  A    between atoms: N2_3  and  N3_6
REMARK    3  A    between atoms: N3_6  and  C2_7
REMARK    4  A    between atoms: C2_7  and  C3_8
REMARK    5  A    between atoms: C3_8  and  C4_9
REMARK    6  A    between atoms: C4_9  and  C5_10
REMARK    7  A    between atoms: C5_10  and  N4_11
REMARK    8  A    between atoms: C6_12  and  N5_13
REMARK    9  A    between atoms: C8_21  and  N8_22
ROOT
HETATM    1  N1  UNL     1      46.134  30.071   9.287  1.00  0.00    -0.168 NA
HETATM    2  C1  UNL     1      46.390  29.360  10.164  1.00  0.00     0.224 C
HETATM    3  N2  UNL     1      46.693  28.508  11.229  1.00  0.00    -0.096 N
ENDROOT
BRANCH   3   4
HETATM    4  O1  UNL     1      45.673  27.976  11.976  1.00  0.00    -0.262 OA
ATOM      5  H1  UNL     1      45.010  27.448  11.548  1.00  0.00     0.247 HD
ENDBRANCH   3   4
BRANCH   3   6
HETATM    6  N3  UNL     1      47.993  28.156  11.590  1.00  0.00    -0.102 NA
BRANCH   6   7
HETATM    7  C2  UNL     1      48.773  29.331  11.973  1.00  0.00     0.138 C
BRANCH   7   8
HETATM    8  C3  UNL     1      48.946  29.310  13.493  1.00  0.00     0.019 C
BRANCH   8   9
HETATM    9  C4  UNL     1      48.839  27.939  14.047  1.00  0.00     0.022 C
BRANCH   9  10
HETATM   10  C5  UNL     1      49.471  27.714  15.397  1.00  0.00     0.148 C
BRANCH  10  11
HETATM   11  N4  UNL     1      50.635  26.895  15.327  1.00  0.00    -0.176 N
HETATM   12  C6  UNL     1      51.876  27.455  15.360  1.00  0.00     0.680 A
HETATM   13  N6  UNL     1      52.756  26.473  15.243  1.00  0.00    -0.174 N
HETATM   14  C7  UNL     1      52.093  25.293  15.132  1.00  0.00     0.167 A
ATOM     15  H6  UNL     1      53.770  26.584  15.236  1.00  0.00     0.186 HD
HETATM   16  N7  UNL     1      52.504  24.035  14.977  1.00  0.00    -0.174 N
HETATM   17  C10 UNL     1      50.716  25.560  15.186  1.00  0.00     0.140 A
HETATM   18  C8  UNL     1      51.652  23.022  14.870  1.00  0.00     0.679 A
ATOM     19  H7  UNL     1      53.504  23.843  14.939  1.00  0.00     0.186 HD
HETATM   20  N9  UNL     1      50.346  23.265  14.918  1.00  0.00    -0.175 N
HETATM   21  C9  UNL     1      49.808  24.524  15.075  1.00  0.00     0.146 A
ATOM     22  H9  UNL     1      49.706  22.474  14.834  1.00  0.00     0.186 HD
HETATM   23  N10 UNL     1      48.575  24.673  15.087  1.00  0.00    -0.383 N
ATOM     24 2H10 UNL     1      47.904  23.909  15.005  1.00  0.00     0.157 HD
ATOM     25 1H10 UNL     1      48.177  25.605  15.203  1.00  0.00     0.157 HD
BRANCH  12  26
HETATM   26  N5  UNL     1      52.180  28.698  15.480  1.00  0.00    -0.234 N
ATOM     27  H52 UNL     1      51.826  29.314  16.211  1.00  0.00     0.174 HD
ATOM     28  H51 UNL     1      52.800  29.251  14.889  1.00  0.00     0.174 HD
ENDBRANCH  12  26
BRANCH  18  29
HETATM   29  N8  UNL     1      52.046  21.782  14.718  1.00  0.00    -0.234 N
ATOM     30  H82 UNL     1      51.986  21.369  13.788  1.00  0.00     0.174 HD
ATOM     31  H81 UNL     1      52.406  21.222  15.490  1.00  0.00     0.174 HD
ENDBRANCH  18  29
ENDBRANCH  10  11
ENDBRANCH   9  10
ENDBRANCH   8   9
ENDBRANCH   7   8
ENDBRANCH   6   7
ENDBRANCH   3   6
TORSDOF 9
ENDMDL