MODEL 2
REMARK VINA RESULT: -5.629872581      3.566      6.271
REMARK  10 active torsions:
REMARK  status: ('A' for Active; 'I' for Inactive)
REMARK    1  A    between atoms: N1_1  and  C1_4
REMARK    2  A    between atoms: C2_7  and  S1_8
REMARK    3  A    between atoms: S1_8  and  C3_9
REMARK    4  A    between atoms: C3_9  and  C4_10
REMARK    5  A    between atoms: C4_10  and  C5_11
REMARK    6  A    between atoms: C5_11  and  C6_12
REMARK    7  A    between atoms: C6_12  and  N3_13
REMARK    8  A    between atoms: C6_12  and  N4_17
REMARK    9  A    between atoms: C7_21  and  N5_22
REMARK   10  A    between atoms: C8_25  and  N6_26
ROOT
HETATM    1  C1  UNL     1      48.997  26.744  14.979  1.00  0.00     0.678 A
HETATM    2  N2  UNL     1      49.235  25.433  14.872  1.00  0.00    -0.183 N
ATOM      3  H2  UNL     1      48.455  24.793  14.720  1.00  0.00     0.185 HD
HETATM    4  C2  UNL     1      50.507  24.933  14.961  1.00  0.00     0.123 A
HETATM    5  C7  UNL     1      51.507  25.832  15.165  1.00  0.00     0.180 A
HETATM    6  C8  UNL     1      51.236  27.204  15.275  1.00  0.00     0.150 A
HETATM    7  N7  UNL     1      49.980  27.642  15.180  1.00  0.00    -0.175 N
ATOM      8  H7  UNL     1      49.769  28.636  15.257  1.00  0.00     0.186 HD
ENDROOT
BRANCH   4   9
HETATM    9  S1  UNL     1      50.652  23.198  14.760  1.00  0.00    -0.109 SA
BRANCH   9  10
HETATM   10  C3  UNL     1      51.979  22.571  13.786  1.00  0.00     0.081 C
BRANCH  10  11
HETATM   11  C4  UNL     1      51.969  21.019  13.910  1.00  0.00     0.014 C
BRANCH  11  12
HETATM   12  C5  UNL     1      52.432  20.503  12.584  1.00  0.00     0.063 C
BRANCH  12  13
HETATM   13  C6  UNL     1      51.360  19.791  11.812  1.00  0.00     0.378 C
BRANCH  13  14
HETATM   14  N3  UNL     1      51.277  18.376  12.098  1.00  0.00    -0.051 N
ATOM     15  H33 UNL     1      51.801  18.150  12.943  1.00  0.00     0.276 HD
ATOM     16  H32 UNL     1      50.337  18.127  12.407  1.00  0.00     0.276 HD
ATOM     17  H31 UNL     1      51.570  17.782  11.322  1.00  0.00     0.276 HD
ENDBRANCH  13  14
BRANCH  13  18
HETATM   18  N4  UNL     1      51.712  19.938  10.391  1.00  0.00    -0.051 N
ATOM     19  H43 UNL     1      50.989  19.599   9.757  1.00  0.00     0.276 HD
ATOM     20  H42 UNL     1      51.715  20.906  10.071  1.00  0.00     0.276 HD
ATOM     21  H41 UNL     1      52.610  19.468  10.270  1.00  0.00     0.276 HD
ENDBRANCH  13  18
ENDBRANCH  12  13
ENDBRANCH  11  12
ENDBRANCH  10  11
ENDBRANCH   9  10
ENDBRANCH   4   9
BRANCH   5  22
HETATM   22  N5  UNL     1      52.878  25.466  15.262  1.00  0.00    -0.109 N
HETATM   23  O1  UNL     1      53.555  25.390  14.233  1.00  0.00    -0.532 OA
HETATM   24  O2  UNL     1      53.404  25.166  16.488  1.00  0.00    -0.532 OA
ENDBRANCH   5  22
BRANCH   1  25
HETATM   25  N1  UNL     1      47.761  27.177  14.885  1.00  0.00    -0.234 N
ATOM     26  H12 UNL     1      47.307  27.542  15.724  1.00  0.00     0.174 HD
ATOM     27  H11 UNL     1      47.289  27.137  13.982  1.00  0.00     0.174 HD
ENDBRANCH   1  25
BRANCH   6  28
HETATM   28  N6  UNL     1      52.184  28.043  15.466  1.00  0.00    -0.383 N
ATOM     29  H62 UNL     1      53.138  27.789  15.213  1.00  0.00     0.157 HD
ATOM     30  H61 UNL     1      51.991  28.961  15.867  1.00  0.00     0.157 HD
ENDBRANCH   6  28
TORSDOF 10
ENDMDL