MODEL 5
REMARK VINA RESULT: -5.672812587      1.324      7.380
REMARK  10 active torsions:
REMARK  status: ('A' for Active; 'I' for Inactive)
REMARK    1  A    between atoms: C2_3  and  N2_4
REMARK    2  A    between atoms: C2_3  and  N3_8
REMARK    3  A    between atoms: C2_3  and  N4_12
REMARK    4  A    between atoms: N5_14  and  C3_16
REMARK    5  A    between atoms: C4_21  and  C5_22
REMARK    6  A    between atoms: C5_22  and  N9_26
REMARK    7  A    between atoms: N9_26  and  C6_28
REMARK    8  A    between atoms: C6_28  and  C7_29
REMARK    9  A    between atoms: C7_29  and  C8_30
REMARK   10  A    between atoms: C8_30  and  N10_31
ROOT
HETATM    1  N1  UNL     1      46.251  28.522  11.718  1.00  0.00    -0.191 NA
HETATM    2  C1  UNL     1      47.032  28.520  12.576  1.00  0.00     0.153 C
HETATM    3  C2  UNL     1      48.026  28.543  13.663  1.00  0.00     0.460 C
ENDROOT
BRANCH   3   4
HETATM    4  N2  UNL     1      47.318  28.736  14.884  1.00  0.00    -0.012 N
ATOM      5  H23 UNL     1      46.481  29.309  14.774  1.00  0.00     0.280 HD
ATOM      6  H22 UNL     1      46.855  27.889  15.215  1.00  0.00     0.280 HD
ATOM      7  H21 UNL     1      47.976  29.120  15.562  1.00  0.00     0.280 HD
ENDBRANCH   3   4
BRANCH   3   8
HETATM    8  N3  UNL     1      48.978  29.622  13.407  1.00  0.00    -0.012 N
ATOM      9  H33 UNL     1      48.768  30.131  12.549  1.00  0.00     0.280 HD
ATOM     10  H32 UNL     1      48.874  30.397  14.061  1.00  0.00     0.280 HD
ATOM     11  H31 UNL     1      49.921  29.235  13.409  1.00  0.00     0.280 HD
ENDBRANCH   3   8
BRANCH   3  12
HETATM   12  N4  UNL     1      48.792  27.291  13.706  1.00  0.00    -0.264 N
HETATM   13  N5  UNL     1      49.711  27.229  14.550  1.00  0.00    -0.283 N
ATOM     14  H5  UNL     1      49.849  28.054  15.134  1.00  0.00     0.188 HD
ATOM     15  H4  UNL     1      48.584  26.512  13.081  1.00  0.00     0.186 HD
BRANCH  13  16
HETATM   16  C3  UNL     1      50.576  26.145  14.784  1.00  0.00     0.161 A
HETATM   17  N6  UNL     1      51.909  26.208  14.852  1.00  0.00    -0.282 N
HETATM   18  N7  UNL     1      52.385  25.005  15.070  1.00  0.00    -0.294 N
ATOM     19  H6  UNL     1      52.467  27.056  14.752  1.00  0.00     0.188 HD
HETATM   20  C4  UNL     1      51.358  24.109  15.153  1.00  0.00     0.119 A
ATOM     21  H7  UNL     1      53.374  24.774  15.164  1.00  0.00     0.187 HD
HETATM   22  C9  UNL     1      50.223  24.829  14.972  1.00  0.00     0.124 A
HETATM   23  N11 UNL     1      48.877  24.372  14.975  1.00  0.00    -0.096 NA
BRANCH  20  24
HETATM   24  C5  UNL     1      51.571  22.694  15.378  1.00  0.00     0.125 C
HETATM   25  N8  UNL     1      51.108  22.158  16.453  1.00  0.00    -0.384 N
ATOM     26  H82 UNL     1      50.599  22.742  17.116  1.00  0.00     0.157 HD
ATOM     27  H81 UNL     1      51.258  21.161  16.612  1.00  0.00     0.157 HD
BRANCH  24  28
HETATM   28  N9  UNL     1      52.272  21.888  14.466  1.00  0.00    -0.375 N
ATOM     29  H9  UNL     1      53.190  21.520  14.712  1.00  0.00     0.161 HD
BRANCH  28  30
HETATM   30  C6  UNL     1      51.676  21.573  13.143  1.00  0.00     0.123 C
BRANCH  30  31
HETATM   31  C7  UNL     1      52.258  20.268  12.692  1.00  0.00     0.047 C
BRANCH  31  32
HETATM   32  C8  UNL     1      52.360  20.236  11.161  1.00  0.00     0.231 C
BRANCH  32  33
HETATM   33  N10 UNL     1      53.427  21.152  10.808  1.00  0.00    -0.079 N
ATOM     34 3H10 UNL     1      53.279  21.623   9.914  1.00  0.00     0.274 HD
ATOM     35 2H10 UNL     1      53.451  21.991  11.388  1.00  0.00     0.274 HD
ATOM     36 1H10 UNL     1      54.291  20.610  10.843  1.00  0.00     0.274 HD
ENDBRANCH  32  33
ENDBRANCH  31  32
ENDBRANCH  30  31
ENDBRANCH  28  30
ENDBRANCH  24  28
ENDBRANCH  20  24
ENDBRANCH  13  16
ENDBRANCH   3  12
TORSDOF 10
ENDMDL