MODEL 1
REMARK VINA RESULT: -6.213554896      0.000      0.000
REMARK  8 active torsions:
REMARK  status: ('A' for Active; 'I' for Inactive)
REMARK    1  A    between atoms: N1_1  and  C1_4
REMARK    2  A    between atoms: C2_10  and  C3_11
REMARK       I    between atoms: C3_11  and  N4_13
REMARK    3  A    between atoms: N4_13  and  C4_15
REMARK    4  A    between atoms: C6_23  and  N7_24
REMARK    5  A    between atoms: N7_24  and  C7_26
REMARK    6  A    between atoms: C7_26  and  C8_27
REMARK    7  A    between atoms: C8_27  and  C9_28
REMARK    8  A    between atoms: C9_28  and  N8_29
ROOT
HETATM    1  C4  UNL     1      48.316  27.481  13.435  1.00  0.00     0.203 A
HETATM    2  O3  UNL     1      47.248  27.517  14.274  1.00  0.00    -0.215 OA
HETATM    3  N5  UNL     1      46.227  28.016  13.690  1.00  0.00    -0.241 N
ATOM      4  H5  UNL     1      45.308  28.148  14.113  1.00  0.00     0.196 HD
HETATM    5  C5  UNL     1      46.557  28.338  12.434  1.00  0.00     0.150 A
HETATM    6  N6  UNL     1      45.806  28.859  11.560  1.00  0.00    -0.382 N
ATOM      7  H61 UNL     1      46.058  29.105  10.603  1.00  0.00     0.157 HD
ATOM      8  H62 UNL     1      44.826  29.109  11.692  1.00  0.00     0.157 HD
HETATM    9  C6  UNL     1      47.916  27.991  12.252  1.00  0.00     0.128 A
ENDROOT
BRANCH   1  10
HETATM   10  N4  UNL     1      49.534  26.967  13.903  1.00  0.00    -0.298 N
HETATM   11  C3  UNL     1      49.884  25.864  14.650  1.00  0.00     0.280 C
HETATM   12  O2  UNL     1      49.116  25.016  15.079  1.00  0.00    -0.265 OA
ATOM     13  H4  UNL     1      50.336  27.535  13.630  1.00  0.00     0.171 HD
BRANCH  11  14
HETATM   14  C2  UNL     1      51.319  25.653  14.983  1.00  0.00     0.169 A
HETATM   15  C1  UNL     1      51.984  24.452  15.027  1.00  0.00     0.155 A
HETATM   16  N2  UNL     1      53.269  24.763  15.376  1.00  0.00    -0.224 N
HETATM   17  O1  UNL     1      53.362  26.029  15.526  1.00  0.00    -0.155 OA
ATOM     18  H2  UNL     1      54.029  24.093  15.497  1.00  0.00     0.198 HD
HETATM   19  N3  UNL     1      52.223  26.609  15.302  1.00  0.00    -0.233 N
ATOM     20  H3  UNL     1      52.040  27.612  15.357  1.00  0.00     0.197 HD
BRANCH  15  21
HETATM   21  N1  UNL     1      51.564  23.294  14.804  1.00  0.00    -0.382 N
ATOM     22  H12 UNL     1      51.324  22.845  13.920  1.00  0.00     0.157 HD
ATOM     23  H11 UNL     1      51.393  22.588  15.521  1.00  0.00     0.157 HD
ENDBRANCH  15  21
ENDBRANCH  11  14
ENDBRANCH   1  10
BRANCH   9  24
HETATM   24  N7  UNL     1      48.600  28.085  11.013  1.00  0.00    -0.383 N
ATOM     25  H7  UNL     1      48.866  27.234  10.517  1.00  0.00     0.159 HD
BRANCH  24  26
HETATM   26  C7  UNL     1      48.928  29.389  10.437  1.00  0.00     0.121 C
BRANCH  26  27
HETATM   27  C8  UNL     1      48.285  29.475   9.047  1.00  0.00     0.047 C
BRANCH  27  28
HETATM   28  C9  UNL     1      47.104  30.393   9.173  1.00  0.00     0.231 C
BRANCH  28  29
HETATM   29  N8  UNL     1      46.965  31.148   7.924  1.00  0.00    -0.079 N
ATOM     30  H83 UNL     1      47.684  30.909   7.240  1.00  0.00     0.274 HD
ATOM     31  H82 UNL     1      46.152  30.858   7.381  1.00  0.00     0.274 HD
ATOM     32  H81 UNL     1      46.953  32.143   8.146  1.00  0.00     0.274 HD
ENDBRANCH  28  29
ENDBRANCH  27  28
ENDBRANCH  26  27
ENDBRANCH  24  26
ENDBRANCH   9  24
TORSDOF 8
ENDMDL