MODEL 1
REMARK VINA RESULT: -7.163620641      0.000      0.000
REMARK  12 active torsions:
REMARK  status: ('A' for Active; 'I' for Inactive)
REMARK    1  A    between atoms: O1_2  and  C2_3
REMARK    2  A    between atoms: C2_3  and  C3_4
REMARK    3  A    between atoms: C3_4  and  O3_6
REMARK    4  A    between atoms: O3_6  and  C4_7
REMARK    5  A    between atoms: C6_9  and  N1_10
REMARK    6  A    between atoms: N1_10  and  N2_12
REMARK    7  A    between atoms: N2_12  and  N3_13
REMARK    8  A    between atoms: C7_16  and  O4_17
REMARK    9  A    between atoms: C8_19  and  O5_20
REMARK   10  A    between atoms: C9_22  and  O6_23
REMARK   11  A    between atoms: C11_26  and  O7_27
REMARK   12  A    between atoms: C13_30  and  O8_31
ROOT
HETATM    1  C4  UNL     1      16.098  19.927  30.182  1.00  0.00     0.165 C
HETATM    2  C5  UNL     1      15.333  20.033  28.878  1.00  0.00     0.065 C
HETATM    3  C6  UNL     1      14.915  21.427  28.548  1.00  0.00     0.148 C
HETATM    4  C7  UNL     1      15.563  22.476  29.398  1.00  0.00     0.174 C
HETATM    5  C8  UNL     1      15.561  22.204  30.851  1.00  0.00     0.180 C
HETATM    6  C9  UNL     1      15.406  20.735  31.206  1.00  0.00     0.179 C
ENDROOT
BRANCH   1   7
HETATM    7  O3  UNL     1      16.303  18.586  30.439  1.00  0.00    -0.311 OA
BRANCH   7   8
HETATM    8  C3  UNL     1      17.424  17.977  30.912  1.00  0.00     0.297 C
HETATM    9  O2  UNL     1      18.375  17.937  30.085  1.00  0.00    -0.262 OA
BRANCH   8  10
HETATM   10  C2  UNL     1      17.648  17.382  32.234  1.00  0.00     0.175 C
HETATM   11  C10 UNL     1      18.345  16.008  32.023  1.00  0.00     0.083 C
HETATM   12  C11 UNL     1      18.203  15.428  33.412  1.00  0.00     0.124 C
HETATM   13  C12 UNL     1      16.814  15.804  33.826  1.00  0.00     0.067 C
HETATM   14  C13 UNL     1      16.385  16.950  32.922  1.00  0.00     0.165 C
BRANCH  10  15
HETATM   15  O1  UNL     1      18.452  18.093  33.066  1.00  0.00    -0.372 OA
HETATM   16  C1  UNL     1      18.069  19.361  33.383  1.00  0.00     0.203 C
ENDBRANCH  10  15
BRANCH  12  17
HETATM   17  O7  UNL     1      19.139  16.080  34.217  1.00  0.00    -0.395 OA
ATOM     18  H7  UNL     1      19.531  15.417  34.773  1.00  0.00     0.210 HD
ENDBRANCH  12  17
BRANCH  14  19
HETATM   19  O8  UNL     1      15.408  16.522  32.030  1.00  0.00    -0.392 OA
ATOM     20  H8  UNL     1      14.637  16.180  32.467  1.00  0.00     0.210 HD
ENDBRANCH  14  19
ENDBRANCH   8  10
ENDBRANCH   7   8
ENDBRANCH   1   7
BRANCH   6  21
HETATM   21  O6  UNL     1      14.057  20.488  31.341  1.00  0.00    -0.390 OA
ATOM     22  H6  UNL     1      13.655  20.841  32.126  1.00  0.00     0.210 HD
ENDBRANCH   6  21
BRANCH   3  23
HETATM   23  N1  UNL     1      13.474  21.491  28.551  1.00  0.00    -0.245 N
ATOM     24  H1  UNL     1      13.042  22.370  28.269  1.00  0.00     0.197 HD
BRANCH  23  25
HETATM   25  N2  UNL     1      12.740  20.585  28.863  1.00  0.00    -0.248 NA
BRANCH  25  26
HETATM   26  N3  UNL     1      11.968  19.739  29.268  1.00  0.00    -0.261 N
ATOM     27  H32 UNL     1      11.481  20.570  29.607  1.00  0.00     0.193 HD
ATOM     28  H31 UNL     1      11.379  18.961  29.569  1.00  0.00     0.193 HD
ENDBRANCH  25  26
ENDBRANCH  23  25
ENDBRANCH   3  23
BRANCH   5  29
HETATM   29  O5  UNL     1      16.758  22.709  31.386  1.00  0.00    -0.390 OA
ATOM     30  H5  UNL     1      16.603  23.610  31.648  1.00  0.00     0.210 HD
ENDBRANCH   5  29
BRANCH   4  31
HETATM   31  O4  UNL     1      14.905  23.695  29.172  1.00  0.00    -0.391 OA
ATOM     32  H4  UNL     1      15.454  24.396  29.503  1.00  0.00     0.210 HD
ENDBRANCH   4  31
TORSDOF 12
ENDMDL