MODEL 2
REMARK VINA RESULT: -6.811337925      1.616      4.396
REMARK  9 active torsions:
REMARK  status: ('A' for Active; 'I' for Inactive)
REMARK    1  A    between atoms: C3_3  and  O1_4
REMARK    2  A    between atoms: C4_6  and  O2_7
REMARK    3  A    between atoms: C7_12  and  O4_13
REMARK    4  A    between atoms: C9_15  and  O5_16
REMARK    5  A    between atoms: C11_18  and  C12_19
REMARK    6  A    between atoms: C12_19  and  O6_21
REMARK    7  A    between atoms: C14_23  and  O7_24
REMARK    8  A    between atoms: C15_26  and  O8_27
REMARK    9  A    between atoms: O8_27  and  O9_28
ROOT
HETATM    1  C1  UNL     1      15.827  21.151  29.474  1.00  0.00     0.020 C
HETATM    2  C2  UNL     1      16.042  20.417  30.553  1.00  0.00    -0.018 C
HETATM    3  C3  UNL     1      16.612  21.195  31.697  1.00  0.00     0.204 C
HETATM    4  C4  UNL     1      17.971  20.519  31.956  1.00  0.00     0.291 C
HETATM    5  O3  UNL     1      17.643  19.327  32.532  1.00  0.00    -0.342 OA
HETATM    6  C5  UNL     1      17.750  18.215  31.744  1.00  0.00     0.130 C
HETATM    7  C6  UNL     1      19.226  17.902  31.546  1.00  0.00     0.052 C
HETATM    8  C7  UNL     1      17.084  17.051  32.437  1.00  0.00     0.197 C
HETATM    9  C9  UNL     1      15.976  17.136  31.335  1.00  0.00     0.139 C
HETATM   10  C11 UNL     1      15.085  18.315  31.630  1.00  0.00     0.097 C
HETATM   11  C14 UNL     1      15.696  18.998  30.466  1.00  0.00     0.132 C
HETATM   12  C15 UNL     1      16.870  18.051  30.597  1.00  0.00     0.198 C
ENDROOT
BRANCH  10  13
HETATM   13  C12 UNL     1      13.622  17.994  31.509  1.00  0.00     0.124 C
HETATM   14  C13 UNL     1      12.771  19.220  31.861  1.00  0.00     0.040 C
BRANCH  13  15
HETATM   15  O6  UNL     1      13.238  17.037  32.460  1.00  0.00    -0.395 OA
ATOM     16  H6  UNL     1      12.560  16.468  32.116  1.00  0.00     0.210 HD
ENDBRANCH  13  15
ENDBRANCH  10  13
BRANCH   9  17
HETATM   17  O5  UNL     1      15.626  15.965  31.013  1.00  0.00    -0.378 OA
HETATM   18  C10 UNL     1      15.036  15.273  30.118  1.00  0.00     0.202 C
ENDBRANCH   9  17
BRANCH  11  19
HETATM   19  O7  UNL     1      14.981  18.719  29.301  1.00  0.00    -0.381 OA
ATOM     20  H7  UNL     1      15.445  18.099  28.749  1.00  0.00     0.211 HD
ENDBRANCH  11  19
BRANCH   8  21
HETATM   21  O4  UNL     1      17.742  15.861  32.448  1.00  0.00    -0.384 OA
HETATM   22  C8  UNL     1      17.787  15.374  33.753  1.00  0.00     0.202 C
ENDBRANCH   8  21
BRANCH  12  23
HETATM   23  O8  UNL     1      17.352  17.782  29.371  1.00  0.00    -0.222 OA
BRANCH  23  24
HETATM   24  O9  UNL     1      17.833  16.653  29.069  1.00  0.00    -0.249 OA
ATOM     25  H9  UNL     1      18.731  16.416  29.267  1.00  0.00     0.253 HD
ENDBRANCH  23  24
ENDBRANCH  12  23
BRANCH   3  26
HETATM   26  O1  UNL     1      16.765  22.527  31.409  1.00  0.00    -0.386 OA
ATOM     27  H1  UNL     1      17.472  22.692  30.795  1.00  0.00     0.210 HD
ENDBRANCH   3  26
BRANCH   4  28
HETATM   28  O2  UNL     1      18.764  21.330  32.765  1.00  0.00    -0.368 OA
ATOM     29  H2  UNL     1      19.107  20.829  33.495  1.00  0.00     0.212 HD
ENDBRANCH   4  28
TORSDOF 9
ENDMDL