MODEL 1
REMARK VINA RESULT: -7.685102308      0.000      0.000
REMARK  9 active torsions:
REMARK  status: ('A' for Active; 'I' for Inactive)
REMARK    1  A    between atoms: S1_2  and  C2_3
REMARK    2  A    between atoms: C3_5  and  C4_6
REMARK    3  A    between atoms: C4_6  and  O2_7
REMARK    4  A    between atoms: C5_9  and  O3_11
REMARK    5  A    between atoms: C8_14  and  O4_15
REMARK    6  A    between atoms: O4_15  and  C9_16
REMARK    7  A    between atoms: C12_20  and  O6_21
REMARK    8  A    between atoms: C13_23  and  O7_24
REMARK    9  A    between atoms: C14_26  and  O8_27
ROOT
HETATM    1  C2  UNL     1      17.063  17.637  31.618  1.00  0.00     0.212 C
HETATM    2  O1  UNL     1      17.932  17.464  32.693  1.00  0.00    -0.363 OA
HETATM    3  C3  UNL     1      18.857  18.473  32.766  1.00  0.00     0.180 C
HETATM    4  C5  UNL     1      18.266  19.826  32.965  1.00  0.00     0.085 C
HETATM    5  C6  UNL     1      18.560  20.328  34.369  1.00  0.00     0.049 C
HETATM    6  C7  UNL     1      16.781  19.877  32.729  1.00  0.00     0.075 C
HETATM    7  C8  UNL     1      16.337  18.945  31.616  1.00  0.00     0.166 C
ENDROOT
BRANCH   7   8
HETATM    8  O4  UNL     1      16.624  19.583  30.395  1.00  0.00    -0.350 OA
BRANCH   8   9
HETATM    9  C9  UNL     1      15.490  20.130  29.792  1.00  0.00     0.292 C
HETATM   10  O5  UNL     1      14.458  19.269  30.107  1.00  0.00    -0.351 OA
HETATM   11  C10 UNL     1      13.190  19.684  29.961  1.00  0.00     0.152 C
HETATM   12  C11 UNL     1      12.327  18.887  30.938  1.00  0.00     0.042 C
HETATM   13  C12 UNL     1      12.916  21.133  30.208  1.00  0.00     0.178 C
HETATM   14  C13 UNL     1      13.998  22.045  29.746  1.00  0.00     0.183 C
HETATM   15  C14 UNL     1      15.298  21.507  30.369  1.00  0.00     0.204 C
BRANCH  13  16
HETATM   16  O6  UNL     1      12.782  21.307  31.605  1.00  0.00    -0.390 OA
ATOM     17  H6  UNL     1      13.120  22.169  31.819  1.00  0.00     0.210 HD
ENDBRANCH  13  16
BRANCH  14  18
HETATM   18  O7  UNL     1      13.787  23.326  30.232  1.00  0.00    -0.390 OA
ATOM     19  H7  UNL     1      12.875  23.441  30.473  1.00  0.00     0.210 HD
ENDBRANCH  14  18
BRANCH  15  20
HETATM   20  O8  UNL     1      16.355  22.335  30.107  1.00  0.00    -0.388 OA
ATOM     21  H8  UNL     1      16.163  22.963  29.421  1.00  0.00     0.210 HD
ENDBRANCH  15  20
ENDBRANCH   8   9
ENDBRANCH   7   8
BRANCH   1  22
HETATM   22  S1  UNL     1      15.809  16.308  31.808  1.00  0.00    -0.139 SA
HETATM   23  C1  UNL     1      14.602  16.725  33.068  1.00  0.00     0.092 C
ENDBRANCH   1  22
BRANCH   4  24
HETATM   24  O3  UNL     1      18.868  20.733  32.099  1.00  0.00    -0.387 OA
ATOM     25  H3  UNL     1      19.136  20.286  31.305  1.00  0.00     0.210 HD
ENDBRANCH   4  24
BRANCH   3  26
HETATM   26  C4  UNL     1      19.816  18.498  31.614  1.00  0.00     0.199 C
BRANCH  26  27
HETATM   27  O2  UNL     1      21.050  19.075  31.983  1.00  0.00    -0.398 OA
ATOM     28  H2  UNL     1      21.629  18.432  32.375  1.00  0.00     0.209 HD
ENDBRANCH  26  27
ENDBRANCH   3  26
TORSDOF 9
ENDMDL