MODEL 1
REMARK VINA RESULT: -9.205166879      0.000      0.000
REMARK  8 active torsions:
REMARK  status: ('A' for Active; 'I' for Inactive)
REMARK    1  A    between atoms: C7_8  and  S1_9
REMARK    2  A    between atoms: S1_9  and  C8_10
REMARK    3  A    between atoms: C9_11  and  O2_12
REMARK    4  A    between atoms: C10_14  and  O3_15
REMARK    5  A    between atoms: C11_17  and  O4_18
REMARK    6  A    between atoms: C12_20  and  O5_21
REMARK    7  A    between atoms: C12_20  and  C13_23
REMARK    8  A    between atoms: C15_27  and  O7_28
ROOT
HETATM    1  C1  UNL     1      15.321  18.247  33.379  1.00  0.00     0.210 C
HETATM    2  O1  UNL     1      15.386  17.462  32.363  1.00  0.00    -0.355 OA
HETATM    3  C2  UNL     1      15.460  16.663  31.347  1.00  0.00     0.085 A
HETATM    4  C3  UNL     1      16.177  15.456  31.382  1.00  0.00     0.038 A
HETATM    5  C4  UNL     1      16.228  14.646  30.298  1.00  0.00     0.003 A
HETATM    6  C5  UNL     1      15.566  15.000  29.122  1.00  0.00     0.002 A
HETATM    7  C6  UNL     1      14.860  16.179  29.076  1.00  0.00     0.021 A
HETATM    8  C7  UNL     1      14.795  17.005  30.149  1.00  0.00     0.034 A
ENDROOT
BRANCH   8   9
HETATM    9  S1  UNL     1      13.836  18.500  30.138  1.00  0.00    -0.117 SA
BRANCH   9  10
HETATM   10  C8  UNL     1      14.776  19.940  29.527  1.00  0.00     0.116 C
HETATM   11  C9  UNL     1      15.312  20.630  30.737  1.00  0.00     0.166 C
HETATM   12  C10 UNL     1      14.544  21.891  31.021  1.00  0.00     0.180 C
HETATM   13  C11 UNL     1      14.736  22.811  29.842  1.00  0.00     0.195 C
HETATM   14  C12 UNL     1      14.133  22.212  28.612  1.00  0.00     0.187 C
HETATM   15  C15 UNL     1      13.860  20.761  28.688  1.00  0.00     0.180 C
BRANCH  11  16
HETATM   16  O2  UNL     1      16.696  20.873  30.667  1.00  0.00    -0.392 OA
ATOM     17  H2  UNL     1      17.210  20.244  31.159  1.00  0.00     0.210 HD
ENDBRANCH  11  16
BRANCH  12  18
HETATM   18  O3  UNL     1      13.238  21.549  31.275  1.00  0.00    -0.390 OA
ATOM     19  H3  UNL     1      12.938  22.058  32.019  1.00  0.00     0.210 HD
ENDBRANCH  12  18
BRANCH  13  20
HETATM   20  O4  UNL     1      14.183  24.046  30.176  1.00  0.00    -0.389 OA
ATOM     21  H4  UNL     1      14.714  24.719  29.766  1.00  0.00     0.210 HD
ENDBRANCH  13  20
BRANCH  14  22
HETATM   22  O5  UNL     1      12.881  22.858  28.443  1.00  0.00    -0.376 OA
ATOM     23  H5  UNL     1      12.280  22.412  29.027  1.00  0.00     0.211 HD
ENDBRANCH  14  22
BRANCH  14  24
HETATM   24  C13 UNL     1      14.930  22.620  27.405  1.00  0.00     0.267 C
HETATM   25  O6  UNL     1      15.947  21.991  27.011  1.00  0.00    -0.278 OA
HETATM   26  C14 UNL     1      14.561  23.779  26.611  1.00  0.00     0.141 C
HETATM   27  N1  UNL     1      14.280  24.691  25.965  1.00  0.00    -0.188 NA
ENDBRANCH  14  24
BRANCH  15  28
HETATM   28  O7  UNL     1      13.794  20.246  27.404  1.00  0.00    -0.391 OA
ATOM     29  H7  UNL     1      13.279  20.817  26.847  1.00  0.00     0.210 HD
ENDBRANCH  15  28
ENDBRANCH   9  10
ENDBRANCH   8   9
TORSDOF 8
ENDMDL