MODEL 1
REMARK VINA RESULT: -7.978254690      0.000      0.000
REMARK  10 active torsions:
REMARK  status: ('A' for Active; 'I' for Inactive)
REMARK    1  A    between atoms: O1_2  and  C2_3
REMARK    2  A    between atoms: C6_7  and  C7_8
REMARK    3  A    between atoms: C7_8  and  O3_10
REMARK    4  A    between atoms: O3_10  and  C8_11
REMARK    5  A    between atoms: C9_12  and  O4_13
REMARK    6  A    between atoms: C10_15  and  O5_16
REMARK    7  A    between atoms: C11_18  and  S1_19
REMARK    8  A    between atoms: S1_19  and  O6_20
REMARK    9  A    between atoms: C12_22  and  O7_23
REMARK   10  A    between atoms: C13_25  and  O8_26
ROOT
HETATM    1  C8  UNL     1      17.287  17.337  32.810  1.00  0.00     0.194 C
HETATM    2  C9  UNL     1      16.124  17.357  31.811  1.00  0.00     0.180 C
HETATM    3  C10 UNL     1      15.479  18.699  31.935  1.00  0.00     0.168 C
HETATM    4  C11 UNL     1      16.512  19.787  32.074  1.00  0.00     0.138 C
HETATM    5  C12 UNL     1      17.854  19.404  31.501  1.00  0.00     0.168 C
HETATM    6  C13 UNL     1      18.376  18.186  32.190  1.00  0.00     0.180 C
ENDROOT
BRANCH   1   7
HETATM    7  O3  UNL     1      17.736  15.988  32.838  1.00  0.00    -0.307 OA
BRANCH   7   8
HETATM    8  C7  UNL     1      18.274  15.381  33.944  1.00  0.00     0.293 C
HETATM    9  O2  UNL     1      19.321  15.862  34.446  1.00  0.00    -0.259 OA
BRANCH   8  10
HETATM   10  C6  UNL     1      17.632  14.183  34.527  1.00  0.00     0.042 A
HETATM   11  C5  UNL     1      18.276  12.967  34.450  1.00  0.00     0.018 A
HETATM   12  C4  UNL     1      17.703  11.841  34.981  1.00  0.00     0.004 A
HETATM   13  C3  UNL     1      16.476  11.948  35.591  1.00  0.00     0.037 A
HETATM   14  C2  UNL     1      15.810  13.172  35.677  1.00  0.00     0.069 A
HETATM   15  C14 UNL     1      16.404  14.294  35.137  1.00  0.00     0.054 A
BRANCH  14  16
HETATM   16  O1  UNL     1      14.571  13.297  36.290  1.00  0.00    -0.356 OA
HETATM   17  C1  UNL     1      13.745  12.158  36.358  1.00  0.00     0.210 C
ENDBRANCH  14  16
ENDBRANCH   8  10
ENDBRANCH   7   8
ENDBRANCH   1   7
BRANCH   2  18
HETATM   18  O4  UNL     1      16.699  17.148  30.553  1.00  0.00    -0.390 OA
ATOM     19  H4  UNL     1      17.302  17.870  30.421  1.00  0.00     0.210 HD
ENDBRANCH   2  18
BRANCH   6  20
HETATM   20  O8  UNL     1      19.347  18.465  33.142  1.00  0.00    -0.390 OA
ATOM     21  H8  UNL     1      20.208  18.297  32.777  1.00  0.00     0.210 HD
ENDBRANCH   6  20
BRANCH   3  22
HETATM   22  O5  UNL     1      14.721  18.694  33.114  1.00  0.00    -0.392 OA
ATOM     23  H5  UNL     1      15.238  19.120  33.787  1.00  0.00     0.210 HD
ENDBRANCH   3  22
BRANCH   5  24
HETATM   24  O7  UNL     1      18.730  20.465  31.825  1.00  0.00    -0.392 OA
ATOM     25  H7  UNL     1      19.579  20.065  31.973  1.00  0.00     0.210 HD
ENDBRANCH   5  24
BRANCH   4  26
HETATM   26  S1  UNL     1      15.845  21.269  31.270  1.00  0.00    -0.005 SA
BRANCH  26  27
HETATM   27  O6  UNL     1      16.903  22.599  31.413  1.00  0.00    -0.329 OA
ATOM     28  H6  UNL     1      17.108  22.790  32.321  1.00  0.00     0.227 HD
ENDBRANCH  26  27
ENDBRANCH   4  26
TORSDOF 10
ENDMDL