MODEL 2
REMARK VINA RESULT: -7.745666462      0.989      1.320
REMARK  9 active torsions:
REMARK  status: ('A' for Active; 'I' for Inactive)
REMARK    1  A    between atoms: O1_2  and  C2_3
REMARK    2  A    between atoms: C5_6  and  O2_7
REMARK    3  A    between atoms: C8_11  and  O3_12
REMARK    4  A    between atoms: C9_14  and  O4_15
REMARK    5  A    between atoms: C10_17  and  O5_18
REMARK    6  A    between atoms: C10_17  and  C11_20
REMARK    7  A    between atoms: C11_20  and  C12_21
REMARK    8  A    between atoms: C13_24  and  O8_25
REMARK    9  A    between atoms: O8_25  and  C14_26
ROOT
HETATM    1  C2  UNL     1      14.820  21.447  31.078  1.00  0.00     0.111 A
HETATM    2  C3  UNL     1      14.140  20.289  30.970  1.00  0.00     0.008 A
HETATM    3  C4  UNL     1      12.671  20.349  30.632  1.00  0.00     0.054 C
HETATM    4  C5  UNL     1      14.769  19.052  31.162  1.00  0.00     0.088 A
HETATM    5  C6  UNL     1      16.133  19.001  31.476  1.00  0.00     0.047 A
HETATM    6  C7  UNL     1      16.857  20.194  31.592  1.00  0.00     0.048 A
HETATM    7  C8  UNL     1      16.178  21.384  31.390  1.00  0.00     0.113 A
HETATM    8  C9  UNL     1      18.100  19.943  31.907  1.00  0.00     0.099 C
HETATM    9  C10 UNL     1      18.270  18.474  32.017  1.00  0.00     0.166 C
HETATM   10  C13 UNL     1      16.896  17.978  31.807  1.00  0.00     0.112 C
ENDROOT
BRANCH   9  11
HETATM   11  O5  UNL     1      18.813  18.082  33.216  1.00  0.00    -0.375 OA
ATOM     12  H5  UNL     1      19.175  17.204  33.192  1.00  0.00     0.211 HD
ENDBRANCH   9  11
BRANCH   9  13
HETATM   13  C11 UNL     1      19.104  18.031  30.829  1.00  0.00     0.165 C
BRANCH  13  14
HETATM   14  C12 UNL     1      19.723  16.726  30.902  1.00  0.00     0.176 C
HETATM   15  O6  UNL     1      19.979  16.156  31.967  1.00  0.00    -0.648 OA
HETATM   16  O7  UNL     1      20.043  16.088  29.712  1.00  0.00    -0.648 OA
ENDBRANCH  13  14
ENDBRANCH   9  13
BRANCH   8  17
HETATM   17  O4  UNL     1      19.119  20.899  32.108  1.00  0.00    -0.360 OA
ATOM     18  H4  UNL     1      19.815  20.851  32.753  1.00  0.00     0.217 HD
ENDBRANCH   8  17
BRANCH  10  19
HETATM   19  O8  UNL     1      16.445  16.654  31.940  1.00  0.00    -0.279 OA
BRANCH  19  20
HETATM   20  C14 UNL     1      16.514  15.864  30.780  1.00  0.00     0.259 C
HETATM   21  C15 UNL     1      16.921  14.453  30.860  1.00  0.00     0.126 C
HETATM   22  O9  UNL     1      16.220  16.398  29.687  1.00  0.00    -0.265 OA
ENDBRANCH  19  20
ENDBRANCH  10  19
BRANCH   7  23
HETATM   23  O3  UNL     1      16.840  22.570  31.491  1.00  0.00    -0.357 OA
ATOM     24  H3  UNL     1      17.707  22.544  31.877  1.00  0.00     0.217 HD
ENDBRANCH   7  23
BRANCH   4  25
HETATM   25  O2  UNL     1      13.946  17.971  31.011  1.00  0.00    -0.359 OA
ATOM     26  H2  UNL     1      14.239  17.344  30.361  1.00  0.00     0.217 HD
ENDBRANCH   4  25
BRANCH   1  27
HETATM   27  O1  UNL     1      14.183  22.670  30.885  1.00  0.00    -0.352 OA
HETATM   28  C1  UNL     1      14.361  23.248  29.583  1.00  0.00     0.210 C
ENDBRANCH   1  27
TORSDOF 9
ENDMDL