MODEL 3
REMARK VINA RESULT: -8.588234090      2.031      3.152
REMARK  6 active torsions:
REMARK  status: ('A' for Active; 'I' for Inactive)
REMARK    1  A    between atoms: C2_2  and  N1_4
REMARK    2  A    between atoms: N1_4  and  C4_6
REMARK    3  A    between atoms: C5_9  and  N3_10
REMARK    4  A    between atoms: N3_10  and  C6_12
REMARK    5  A    between atoms: C7_17  and  C8_18
REMARK    6  A    between atoms: C10_25  and  C11_26
ROOT
HETATM    1  C4  UNL     1      16.286  17.759  31.634  1.00  0.00     0.132 A
HETATM    2  N2  UNL     1      15.336  18.621  31.237  1.00  0.00    -0.176 N
ATOM      3  H2  UNL     1      15.406  19.014  30.299  1.00  0.00     0.186 HD
HETATM    4  C5  UNL     1      14.295  18.998  32.008  1.00  0.00     0.685 A
HETATM    5  N7  UNL     1      14.182  18.493  33.250  1.00  0.00    -0.201 N
ATOM      6  H7  UNL     1      13.404  18.764  33.851  1.00  0.00     0.183 HD
HETATM    7  C9  UNL     1      15.106  17.632  33.682  1.00  0.00     0.125 A
HETATM    8  C10 UNL     1      16.185  17.231  32.905  1.00  0.00     0.071 A
ENDROOT
BRANCH   4   9
HETATM    9  N3  UNL     1      13.306  19.908  31.570  1.00  0.00    -0.168 N
ATOM     10  H3  UNL     1      12.346  19.826  31.904  1.00  0.00     0.186 HD
BRANCH   9  11
HETATM   11  C6  UNL     1      13.637  20.852  30.736  1.00  0.00     0.180 A
HETATM   12  N4  UNL     1      13.821  22.146  31.013  1.00  0.00    -0.278 N
HETATM   13  N5  UNL     1      14.142  22.932  30.070  1.00  0.00    -0.287 N
ATOM     14  H4  UNL     1      13.705  22.496  31.965  1.00  0.00     0.189 HD
HETATM   15  C7  UNL     1      14.294  22.493  28.837  1.00  0.00     0.158 A
ATOM     16  H5  UNL     1      14.286  23.922  30.270  1.00  0.00     0.188 HD
HETATM   17  S1  UNL     1      13.946  20.813  29.057  1.00  0.00    -0.028 SA
BRANCH  15  18
HETATM   18  C8  UNL     1      14.656  23.200  27.607  1.00  0.00     0.289 C
HETATM   19  N6  UNL     1      16.023  23.355  27.306  1.00  0.00    -0.055 NA
HETATM   20  O1  UNL     1      13.794  23.646  26.859  1.00  0.00    -0.269 OA
ENDBRANCH  15  18
ENDBRANCH   9  11
ENDBRANCH   4   9
BRANCH   1  21
HETATM   21  N1  UNL     1      17.259  17.408  30.910  1.00  0.00    -0.371 N
ATOM     22  H1  UNL     1      18.183  17.657  31.262  1.00  0.00     0.161 HD
BRANCH  21  23
HETATM   23  C2  UNL     1      17.241  16.716  29.676  1.00  0.00     0.075 C
HETATM   24  C1  UNL     1      16.525  15.405  29.685  1.00  0.00     0.031 C
HETATM   25  C3  UNL     1      18.650  16.521  29.182  1.00  0.00     0.031 C
ENDBRANCH  21  23
ENDBRANCH   1  21
BRANCH   8  26
HETATM   26  C11 UNL     1      17.159  16.293  33.426  1.00  0.00     0.152 A
HETATM   27  N8  UNL     1      16.994  14.965  33.499  1.00  0.00    -0.268 N
HETATM   28  N9  UNL     1      18.089  14.433  34.029  1.00  0.00    -0.227 N
ATOM     29  H8  UNL     1      16.167  14.449  33.198  1.00  0.00     0.190 HD
HETATM   30  N10 UNL     1      18.946  15.393  34.293  1.00  0.00    -0.227 N
ATOM     31  H9  UNL     1      18.241  13.439  34.202  1.00  0.00     0.210 HD
HETATM   32  N11 UNL     1      18.376  16.522  33.924  1.00  0.00    -0.268 N
ATOM     33  H10 UNL     1      19.873  15.285  34.704  1.00  0.00     0.210 HD
ATOM     34  H11 UNL     1      18.804  17.443  34.009  1.00  0.00     0.190 HD
ENDBRANCH   8  26
TORSDOF 6
ENDMDL