MODEL 5
REMARK VINA RESULT: -8.508080936      1.919      3.132
REMARK  7 active torsions:
REMARK  status: ('A' for Active; 'I' for Inactive)
REMARK    1  A    between atoms: N1_1  and  C1_4
REMARK    2  A    between atoms: N3_8  and  N4_10
REMARK    3  A    between atoms: N4_10  and  C3_12
REMARK    4  A    between atoms: C3_12  and  C4_13
REMARK    5  A    between atoms: C9_18  and  N5_19
REMARK    6  A    between atoms: C11_26  and  S1_27
REMARK    7  A    between atoms: S1_27  and  N8_28
ROOT
HETATM    1  C1  UNL     1      16.911  19.908  31.366  1.00  0.00     0.141 A
HETATM    2  N2  UNL     1      17.243  18.569  31.370  1.00  0.00    -0.174 N
ATOM      3  H2  UNL     1      18.079  18.243  31.856  1.00  0.00     0.186 HD
HETATM    4  C2  UNL     1      16.464  17.721  30.735  1.00  0.00     0.700 A
HETATM    5  N3  UNL     1      16.701  16.479  30.629  1.00  0.00    -0.125 N
ATOM      6  H3  UNL     1      16.019  15.932  30.105  1.00  0.00     0.206 HD
HETATM    7  N6  UNL     1      15.340  18.178  30.084  1.00  0.00    -0.176 N
ATOM      8  H6  UNL     1      14.739  17.512  29.598  1.00  0.00     0.185 HD
HETATM    9  C10 UNL     1      15.013  19.495  30.075  1.00  0.00     0.159 A
HETATM   10  N7  UNL     1      13.850  19.942  29.417  1.00  0.00    -0.080 NA
HETATM   11  C11 UNL     1      15.809  20.396  30.729  1.00  0.00     0.164 A
ENDROOT
BRANCH   5  12
HETATM   12  N4  UNL     1      17.811  15.765  31.160  1.00  0.00    -0.250 N
ATOM     13  H4  UNL     1      18.725  15.614  30.733  1.00  0.00     0.197 HD
BRANCH  12  14
HETATM   14  C3  UNL     1      17.368  15.330  32.371  1.00  0.00    -0.011 C
BRANCH  14  15
HETATM   15  C4  UNL     1      16.933  14.933  33.522  1.00  0.00     0.061 A
HETATM   16  C5  UNL     1      17.461  13.723  34.123  1.00  0.00     0.024 A
HETATM   17  C6  UNL     1      16.814  13.184  35.213  1.00  0.00     0.002 A
HETATM   18  C7  UNL     1      15.698  13.736  35.754  1.00  0.00     0.003 A
HETATM   19  C8  UNL     1      15.202  14.864  35.195  1.00  0.00     0.037 A
HETATM   20  C9  UNL     1      15.776  15.488  34.107  1.00  0.00     0.122 A
BRANCH  20  21
HETATM   21  N5  UNL     1      15.160  16.695  33.692  1.00  0.00    -0.114 N
HETATM   22  O1  UNL     1      14.229  16.535  32.806  1.00  0.00    -0.532 OA
HETATM   23  O2  UNL     1      15.446  17.971  34.059  1.00  0.00    -0.532 OA
ENDBRANCH  20  21
ENDBRANCH  14  15
ENDBRANCH  12  14
ENDBRANCH   5  12
BRANCH   1  24
HETATM   24  N1  UNL     1      17.659  20.744  32.021  1.00  0.00    -0.384 N
ATOM     25  H12 UNL     1      18.657  20.544  32.091  1.00  0.00     0.157 HD
ATOM     26  H11 UNL     1      17.232  21.580  32.421  1.00  0.00     0.157 HD
ENDBRANCH   1  24
BRANCH  11  27
HETATM   27  S1  UNL     1      15.481  22.110  30.554  1.00  0.00     0.263 S
HETATM   28  O3  UNL     1      15.800  22.589  29.139  1.00  0.00    -0.200 OA
HETATM   29  O4  UNL     1      16.431  22.910  31.427  1.00  0.00    -0.200 OA
BRANCH  27  30
HETATM   30  N8  UNL     1      13.820  22.438  30.896  1.00  0.00    -0.324 N
ATOM     31  H82 UNL     1      13.126  21.719  31.101  1.00  0.00     0.169 HD
ATOM     32  H81 UNL     1      13.645  23.441  30.861  1.00  0.00     0.169 HD
ENDBRANCH  27  30
ENDBRANCH  11  27
TORSDOF 7
ENDMDL