MODEL 4
REMARK VINA RESULT: -7.749809653      2.917      7.566
REMARK  11 active torsions:
REMARK  status: ('A' for Active; 'I' for Inactive)
REMARK    1  A    between atoms: O1_2  and  C2_3
REMARK    2  A    between atoms: C5_6  and  C6_7
REMARK    3  A    between atoms: C6_7  and  C7_8
REMARK    4  A    between atoms: C7_8  and  C8_9
REMARK    5  A    between atoms: C8_9  and  O3_11
REMARK    6  A    between atoms: O3_11  and  C9_12
REMARK    7  A    between atoms: C10_13  and  O4_14
REMARK    8  A    between atoms: C11_16  and  O5_17
REMARK    9  A    between atoms: C12_19  and  O6_20
REMARK   10  A    between atoms: C13_22  and  O7_23
REMARK   11  A    between atoms: C14_25  and  O8_26
ROOT
HETATM    1  C9  UNL     1      15.051  19.841  29.914  1.00  0.00     0.194 C
HETATM    2  C10 UNL     1      16.056  20.696  30.664  1.00  0.00     0.181 C
HETATM    3  C11 UNL     1      15.530  22.032  31.006  1.00  0.00     0.180 C
HETATM    4  C12 UNL     1      14.704  22.698  29.952  1.00  0.00     0.180 C
HETATM    5  C13 UNL     1      13.747  21.772  29.256  1.00  0.00     0.180 C
HETATM    6  C14 UNL     1      14.497  20.558  28.708  1.00  0.00     0.181 C
ENDROOT
BRANCH   1   7
HETATM    7  O3  UNL     1      15.514  18.564  29.661  1.00  0.00    -0.307 OA
BRANCH   7   8
HETATM    8  C8  UNL     1      15.019  17.397  30.218  1.00  0.00     0.283 C
HETATM    9  O2  UNL     1      14.727  17.455  31.437  1.00  0.00    -0.260 OA
BRANCH   8  10
HETATM   10  C7  UNL     1      14.827  16.169  29.500  1.00  0.00     0.083 C
BRANCH  10  11
HETATM   11  C6  UNL     1      15.844  15.418  29.137  1.00  0.00     0.025 C
BRANCH  11  12
HETATM   12  C5  UNL     1      17.098  15.452  29.926  1.00  0.00     0.007 A
HETATM   13  C4  UNL     1      18.237  16.144  29.645  1.00  0.00     0.022 A
HETATM   14  C3  UNL     1      19.262  16.032  30.502  1.00  0.00     0.046 A
HETATM   15  C2  UNL     1      19.075  15.224  31.595  1.00  0.00     0.109 A
HETATM   16  S1  UNL     1      17.483  14.655  31.385  1.00  0.00    -0.066 SA
BRANCH  15  17
HETATM   17  O1  UNL     1      19.994  14.945  32.631  1.00  0.00    -0.349 OA
HETATM   18  C1  UNL     1      19.573  14.227  33.748  1.00  0.00     0.211 C
ENDBRANCH  15  17
ENDBRANCH  11  12
ENDBRANCH  10  11
ENDBRANCH   8  10
ENDBRANCH   7   8
ENDBRANCH   1   7
BRANCH   2  19
HETATM   19  O4  UNL     1      16.294  20.008  31.879  1.00  0.00    -0.390 OA
ATOM     20  H4  UNL     1      16.927  19.334  31.663  1.00  0.00     0.210 HD
ENDBRANCH   2  19
BRANCH   6  21
HETATM   21  O8  UNL     1      15.481  21.016  27.851  1.00  0.00    -0.390 OA
ATOM     22  H8  UNL     1      15.963  20.315  27.429  1.00  0.00     0.210 HD
ENDBRANCH   6  21
BRANCH   3  23
HETATM   23  O5  UNL     1      16.596  22.882  31.314  1.00  0.00    -0.390 OA
ATOM     24  H5  UNL     1      16.471  23.237  32.186  1.00  0.00     0.210 HD
ENDBRANCH   3  23
BRANCH   5  25
HETATM   25  O7  UNL     1      13.166  22.507  28.203  1.00  0.00    -0.390 OA
ATOM     26  H7  UNL     1      13.530  22.164  27.396  1.00  0.00     0.210 HD
ENDBRANCH   5  25
BRANCH   4  27
HETATM   27  O6  UNL     1      13.955  23.706  30.567  1.00  0.00    -0.390 OA
ATOM     28  H6  UNL     1      13.117  23.758  30.124  1.00  0.00     0.210 HD
ENDBRANCH   4  27
TORSDOF 11
ENDMDL