MODEL 5
REMARK VINA RESULT: -4.466874614      3.828      5.483
REMARK  2 active torsions:
REMARK  status: ('A' for Active; 'I' for Inactive)
REMARK    1  A    between atoms: O1_2  and  N1_3
REMARK    2  A    between atoms: C3_8  and  N3_9
ROOT
HETATM    1  N1  UNL     1       9.913  37.086  12.389  1.00  0.00    -0.246 N
ATOM      2  H1  UNL     1       9.889  36.201  12.894  1.00  0.00     0.196 HD
HETATM    3  C2  UNL     1       8.968  37.392  11.603  1.00  0.00     0.209 C
HETATM    4  N2  UNL     1       7.935  36.508  11.462  1.00  0.00    -0.170 N
ATOM      5  H2  UNL     1       7.974  35.675  12.048  1.00  0.00     0.186 HD
HETATM    6  C3  UNL     1       6.873  36.605  10.642  1.00  0.00     0.680 C
HETATM    7  N4  UNL     1       6.734  37.406   9.563  1.00  0.00    -0.163 N
ATOM      8  H4  UNL     1       5.899  37.225   9.005  1.00  0.00     0.187 HD
HETATM    9  C4  UNL     1       7.515  38.406   9.099  1.00  0.00     0.209 C
HETATM   10  N5  UNL     1       7.393  38.787   7.743  1.00  0.00    -0.062 NA
HETATM   11  N6  UNL     1       8.415  39.067   9.873  1.00  0.00    -0.294 N
ATOM     12  H6  UNL     1       8.613  40.030   9.602  1.00  0.00     0.172 HD
HETATM   13  C5  UNL     1       9.085  38.608  10.962  1.00  0.00     0.294 C
HETATM   14  O2  UNL     1       9.941  39.398  11.471  1.00  0.00    -0.264 OA
ENDROOT
BRANCH   1  15
HETATM   15  O1  UNL     1      10.962  37.937  12.560  1.00  0.00    -0.284 OA
HETATM   16  C1  UNL     1      11.774  37.950  13.716  1.00  0.00     0.237 C
ENDBRANCH   1  15
BRANCH   6  17
HETATM   17  N3  UNL     1       5.864  35.838  10.923  1.00  0.00    -0.234 N
ATOM     18  H32 UNL     1       5.401  36.008  11.816  1.00  0.00     0.174 HD
ATOM     19  H31 UNL     1       5.628  35.134  10.223  1.00  0.00     0.174 HD
ENDBRANCH   6  17
TORSDOF 2
ENDMDL