MODEL 2
REMARK VINA RESULT: -4.615144876      1.937      2.685
REMARK  3 active torsions:
REMARK  status: ('A' for Active; 'I' for Inactive)
REMARK    1  A    between atoms: C6_10  and  N3_11
REMARK    2  A    between atoms: N3_11  and  N4_13
REMARK    3  A    between atoms: N5_16  and  N6_17
ROOT
HETATM    1  C1  UNL     1       9.684  37.857  11.297  1.00  0.00     0.051 C
HETATM    2  C2  UNL     1       8.425  37.765  11.636  1.00  0.00     0.116 A
HETATM    3  C3  UNL     1       7.880  38.597  12.716  1.00  0.00     0.274 A
HETATM    4  O1  UNL     1       8.608  39.417  13.339  1.00  0.00    -0.266 OA
HETATM    5  N1  UNL     1       6.497  38.419  13.005  1.00  0.00    -0.310 N
ATOM      6  H1  UNL     1       6.081  38.979  13.749  1.00  0.00     0.170 HD
HETATM    7  C4  UNL     1       5.669  37.504  12.314  1.00  0.00     0.164 A
HETATM    8  C5  UNL     1       4.262  37.338  12.624  1.00  0.00     0.122 C
HETATM    9  N2  UNL     1       3.132  37.220  12.863  1.00  0.00    -0.190 NA
HETATM   10  C6  UNL     1       6.177  36.762  11.343  1.00  0.00     0.179 A
HETATM   11  N5  UNL     1       7.566  36.856  10.961  1.00  0.00    -0.238 N
ENDROOT
BRANCH  10  12
HETATM   12  N3  UNL     1       5.339  35.841  10.649  1.00  0.00    -0.288 N
ATOM     13  H3  UNL     1       5.266  34.883  10.988  1.00  0.00     0.188 HD
BRANCH  12  14
HETATM   14  N4  UNL     1       4.614  36.220   9.512  1.00  0.00    -0.343 N
ATOM     15  H42 UNL     1       3.610  36.038   9.499  1.00  0.00     0.176 HD
ATOM     16  H41 UNL     1       5.066  36.666   8.714  1.00  0.00     0.176 HD
ENDBRANCH  12  14
ENDBRANCH  10  12
BRANCH  11  17
HETATM   17  N6  UNL     1       8.087  36.079   9.949  1.00  0.00    -0.336 N
ATOM     18  H62 UNL     1       7.835  36.236   8.974  1.00  0.00     0.177 HD
ATOM     19  H61 UNL     1       8.740  35.334  10.191  1.00  0.00     0.177 HD
ENDBRANCH  11  17
TORSDOF 3
ENDMDL