MODEL 4
REMARK VINA RESULT: -4.708730045      1.574      4.474
REMARK  4 active torsions:
REMARK  status: ('A' for Active; 'I' for Inactive)
REMARK    1  A    between atoms: N1_1  and  C1_4
REMARK    2  A    between atoms: C3_11  and  C4_12
REMARK       I    between atoms: C4_12  and  N4_14
REMARK    3  A    between atoms: N4_14  and  N5_16
REMARK    4  A    between atoms: N6_19  and  N7_20
ROOT
HETATM    1  C1  UNL     1       7.136  37.338  10.285  1.00  0.00     0.193 A
HETATM    2  C2  UNL     1       6.410  36.323  10.874  1.00  0.00     0.305 A
HETATM    3  O1  UNL     1       5.332  35.884  10.373  1.00  0.00    -0.263 OA
HETATM    4  N2  UNL     1       6.905  35.815  12.017  1.00  0.00    -0.262 N
ATOM      5  H2  UNL     1       6.396  35.063  12.483  1.00  0.00     0.190 HD
HETATM    6  N3  UNL     1       8.030  36.255  12.562  1.00  0.00    -0.276 N
ATOM      7  H3  UNL     1       8.359  35.832  13.430  1.00  0.00     0.189 HD
HETATM    8  C3  UNL     1       8.751  37.244  12.003  1.00  0.00     0.214 A
HETATM    9  N6  UNL     1       8.277  37.767  10.860  1.00  0.00    -0.219 N
ENDROOT
BRANCH   8  10
HETATM   10  C4  UNL     1      10.006  37.732  12.614  1.00  0.00     0.306 C
HETATM   11  O2  UNL     1      11.081  37.233  12.187  1.00  0.00    -0.262 OA
HETATM   12  N4  UNL     1      10.008  38.709  13.627  1.00  0.00    -0.270 N
ATOM     13  H4  UNL     1       9.129  39.103  13.961  1.00  0.00     0.189 HD
BRANCH  12  14
HETATM   14  N5  UNL     1      11.209  39.133  14.168  1.00  0.00    -0.342 N
ATOM     15  H52 UNL     1      11.871  38.438  14.515  1.00  0.00     0.176 HD
ATOM     16  H51 UNL     1      11.419  40.130  14.214  1.00  0.00     0.176 HD
ENDBRANCH  12  14
ENDBRANCH   8  10
BRANCH   9  17
HETATM   17  N7  UNL     1       9.002  38.790  10.259  1.00  0.00    -0.335 N
ATOM     18  H72 UNL     1       9.608  38.551   9.473  1.00  0.00     0.177 HD
ATOM     19  H71 UNL     1       8.914  39.742  10.613  1.00  0.00     0.177 HD
ENDBRANCH   9  17
BRANCH   1  20
HETATM   20  N1  UNL     1       6.675  37.835   9.189  1.00  0.00    -0.379 N
ATOM     21  H12 UNL     1       5.853  38.438   9.158  1.00  0.00     0.158 HD
ATOM     22  H11 UNL     1       7.168  37.604   8.327  1.00  0.00     0.158 HD
ENDBRANCH   1  20
TORSDOF 4
ENDMDL