MODEL 4
REMARK VINA RESULT: -4.737223740      3.567      3.893
REMARK  3 active torsions:
REMARK  status: ('A' for Active; 'I' for Inactive)
REMARK    1  A    between atoms: N1_2  and  N2_3
REMARK       I    between atoms: N1_2  and  C2_6
REMARK       I    between atoms: C2_6  and  N3_8
REMARK       I    between atoms: N3_8  and  C3_9
REMARK       I    between atoms: C3_9  and  N5_13
REMARK    2  A    between atoms: N5_13  and  N6_15
REMARK    3  A    between atoms: N7_17  and  N8_19
ROOT
HETATM    1  C1  UNL     1      10.071  37.305  12.864  1.00  0.00     0.183 C
HETATM    2  N1  UNL     1       9.288  38.493  13.095  1.00  0.00    -0.242 N
HETATM    3  C2  UNL     1       8.024  38.701  12.403  1.00  0.00     0.416 C
HETATM    4  O1  UNL     1       7.500  39.831  12.739  1.00  0.00    -0.228 OA
HETATM    5  N3  UNL     1       7.557  37.782  11.547  1.00  0.00    -0.314 NA
HETATM    6  C3  UNL     1       7.078  36.843  10.672  1.00  0.00     0.273 C
HETATM    7  N4  UNL     1       7.694  35.712  10.409  1.00  0.00    -0.358 N
ATOM      8  H41 UNL     1       7.337  35.013   9.757  1.00  0.00     0.160 HD
ATOM      9  H42 UNL     1       8.555  35.667  10.955  1.00  0.00     0.160 HD
HETATM   10  N5  UNL     1       5.855  36.907   9.895  1.00  0.00    -0.244 N
ATOM     11  H5  UNL     1       5.813  37.461   9.040  1.00  0.00     0.192 HD
ENDROOT
BRANCH  10  12
HETATM   12  N6  UNL     1       4.737  36.198  10.336  1.00  0.00    -0.225 N
HETATM   13  N7  UNL     1       3.778  36.686  10.955  1.00  0.00    -0.235 N
ATOM     14  H7  UNL     1       3.760  37.680  11.183  1.00  0.00     0.209 HD
ATOM     15  H6  UNL     1       4.705  35.199  10.133  1.00  0.00     0.210 HD
BRANCH  13  16
HETATM   16  N8  UNL     1       2.731  35.861  11.331  1.00  0.00    -0.330 N
ATOM     17  H82 UNL     1       1.949  35.719  10.692  1.00  0.00     0.178 HD
ATOM     18  H81 UNL     1       2.760  35.409  12.245  1.00  0.00     0.178 HD
ENDBRANCH  13  16
ENDBRANCH  10  12
BRANCH   2  19
HETATM   19  N2  UNL     1       9.784  39.420  13.987  1.00  0.00    -0.339 N
ATOM     20  H22 UNL     1      10.674  39.891  13.828  1.00  0.00     0.177 HD
ATOM     21  H21 UNL     1       9.228  39.619  14.818  1.00  0.00     0.177 HD
ENDBRANCH   2  19
TORSDOF 3
ENDMDL