MODEL 4
REMARK VINA RESULT: -4.293275108      1.505      3.407
REMARK  2 active torsions:
REMARK  status: ('A' for Active; 'I' for Inactive)
REMARK    1  A    between atoms: C1_2  and  C2_4
REMARK    2  A    between atoms: N4_13  and  N5_14
ROOT
HETATM    1  C2  UNL     1       9.115  38.191  10.864  1.00  0.00     0.155 A
HETATM    2  C3  UNL     1       8.662  38.748   9.686  1.00  0.00     0.148 A
HETATM    3  N2  UNL     1       9.354  39.848   9.098  1.00  0.00    -0.094 NA
HETATM    4  C4  UNL     1       7.538  38.220   9.102  1.00  0.00     0.276 A
HETATM    5  O2  UNL     1       7.119  38.719   8.031  1.00  0.00    -0.266 OA
HETATM    6  N3  UNL     1       6.867  37.173   9.649  1.00  0.00    -0.272 N
ATOM      7  H3  UNL     1       6.031  36.778   9.217  1.00  0.00     0.174 HD
HETATM    8  C5  UNL     1       7.375  36.690  10.796  1.00  0.00     0.348 A
HETATM    9  O3  UNL     1       6.765  35.710  11.326  1.00  0.00    -0.245 OA
HETATM   10  N4  UNL     1       8.450  37.137  11.425  1.00  0.00    -0.205 N
ENDROOT
BRANCH   1  11
HETATM   11  C1  UNL     1      10.295  38.702  11.529  1.00  0.00     0.285 C
HETATM   12  N1  UNL     1      10.222  39.719  12.515  1.00  0.00    -0.056 NA
HETATM   13  O1  UNL     1      11.412  38.228  11.218  1.00  0.00    -0.269 OA
ENDBRANCH   1  11
BRANCH  10  14
HETATM   14  N5  UNL     1       8.937  36.592  12.624  1.00  0.00    -0.334 N
ATOM     15  H52 UNL     1       9.434  35.703  12.682  1.00  0.00     0.177 HD
ATOM     16  H51 UNL     1       8.791  37.108  13.492  1.00  0.00     0.177 HD
ENDBRANCH  10  14
TORSDOF 2
ENDMDL