MODEL 4
REMARK VINA RESULT: -5.210514231      2.746      5.930
REMARK  2 active torsions:
REMARK  status: ('A' for Active; 'I' for Inactive)
REMARK       I    between atoms: C1_4  and  N3_6
REMARK    1  A    between atoms: N3_6  and  N4_8
REMARK       I    between atoms: N4_8  and  C2_10
REMARK    2  A    between atoms: C2_10  and  C3_12
ROOT
HETATM    1  N4  UNL     1       3.772  36.194  10.771  1.00  0.00    -0.261 N
ATOM      2  H4  UNL     1       3.925  35.422  10.123  1.00  0.00     0.190 HD
HETATM    3  C2  UNL     1       4.872  36.942  11.212  1.00  0.00     0.306 C
HETATM    4  O1  UNL     1       4.695  37.919  12.023  1.00  0.00    -0.262 OA
ENDROOT
BRANCH   3   5
HETATM    5  C3  UNL     1       6.245  36.683  10.797  1.00  0.00     0.208 A
HETATM    6  N5  UNL     1       7.161  35.908  11.424  1.00  0.00    -0.264 N
HETATM    7  N6  UNL     1       8.286  35.920  10.715  1.00  0.00    -0.226 N
ATOM      8  H5  UNL     1       7.012  35.400  12.295  1.00  0.00     0.190 HD
HETATM    9  N7  UNL     1       8.110  36.681   9.656  1.00  0.00    -0.226 N
ATOM     10  H6  UNL     1       9.143  35.422  10.952  1.00  0.00     0.210 HD
HETATM   11  N8  UNL     1       6.875  37.149   9.697  1.00  0.00    -0.264 N
ATOM     12  H7  UNL     1       8.803  36.874   8.934  1.00  0.00     0.210 HD
ATOM     13  H8  UNL     1       6.460  37.770   9.001  1.00  0.00     0.190 HD
ENDBRANCH   3   5
BRANCH   1  14
HETATM   14  N3  UNL     1       2.485  36.475  11.192  1.00  0.00    -0.271 N
HETATM   15  C1  UNL     1       1.814  35.774  12.224  1.00  0.00     0.200 C
HETATM   16  N1  UNL     1       1.217  34.653  11.986  1.00  0.00    -0.372 N
HETATM   17  N2  UNL     1       1.754  36.259  13.561  1.00  0.00    -0.062 NA
ATOM     18  H12 UNL     1       0.733  34.149  12.729  1.00  0.00     0.158 HD
ATOM     19  H11 UNL     1       1.259  34.306  11.028  1.00  0.00     0.158 HD
ATOM     20  H3  UNL     1       1.986  37.235  10.730  1.00  0.00     0.189 HD
ENDBRANCH   1  14
TORSDOF 2
ENDMDL