MODEL 2
REMARK VINA RESULT: -4.901540174      2.120      3.230
REMARK  4 active torsions:
REMARK  status: ('A' for Active; 'I' for Inactive)
REMARK    1  A    between atoms: N1_1  and  C1_4
REMARK    2  A    between atoms: C2_7  and  C3_8
REMARK    3  A    between atoms: C4_13  and  N5_14
REMARK    4  A    between atoms: N5_14  and  N6_16
ROOT
HETATM    1  C1  UNL     1       9.252  37.237  11.927  1.00  0.00     0.692 A
HETATM    2  N2  UNL     1       9.543  37.751  10.733  1.00  0.00    -0.171 N
ATOM      3  H2  UNL     1      10.423  38.255  10.629  1.00  0.00     0.186 HD
HETATM    4  C2  UNL     1       8.747  37.644   9.660  1.00  0.00     0.201 A
HETATM    5  N4  UNL     1       7.580  36.959   9.851  1.00  0.00    -0.169 N
ATOM      6  H4  UNL     1       6.944  36.854   9.061  1.00  0.00     0.186 HD
HETATM    7  C4  UNL     1       7.230  36.418  11.028  1.00  0.00     0.712 A
HETATM    8  N7  UNL     1       8.088  36.574  12.052  1.00  0.00    -0.021 N
ATOM      9  H7  UNL     1       7.848  36.173  12.959  1.00  0.00     0.203 HD
ENDROOT
BRANCH   7  10
HETATM   10  N5  UNL     1       6.144  35.773  11.236  1.00  0.00    -0.138 N
ATOM     11  H5  UNL     1       6.125  35.155  12.047  1.00  0.00     0.205 HD
BRANCH  10  12
HETATM   12  N6  UNL     1       5.008  35.830  10.479  1.00  0.00    -0.331 N
ATOM     13  H62 UNL     1       4.229  36.346  10.889  1.00  0.00     0.177 HD
ATOM     14  H61 UNL     1       4.872  35.412   9.558  1.00  0.00     0.177 HD
ENDBRANCH  10  12
ENDBRANCH   7  10
BRANCH   4  15
HETATM   15  C3  UNL     1       9.080  38.212   8.365  1.00  0.00     0.299 C
HETATM   16  N3  UNL     1      10.330  37.948   7.779  1.00  0.00    -0.054 NA
HETATM   17  O1  UNL     1       8.259  38.932   7.775  1.00  0.00    -0.268 OA
ENDBRANCH   4  15
BRANCH   1  18
HETATM   18  N1  UNL     1      10.078  37.388  12.904  1.00  0.00    -0.234 N
ATOM     19  H12 UNL     1      10.497  38.287  13.141  1.00  0.00     0.174 HD
ATOM     20  H11 UNL     1      10.335  36.583  13.476  1.00  0.00     0.174 HD
ENDBRANCH   1  18
TORSDOF 4
ENDMDL