MODEL 5
REMARK VINA RESULT: -4.850803117      2.947      4.040
REMARK  4 active torsions:
REMARK  status: ('A' for Active; 'I' for Inactive)
REMARK    1  A    between atoms: C2_3  and  C3_5
REMARK    2  A    between atoms: C4_8  and  N3_9
REMARK    3  A    between atoms: N3_9  and  N4_11
REMARK    4  A    between atoms: C5_16  and  N6_17
ROOT
HETATM    1  C1  UNL     1      10.439  39.188  10.388  1.00  0.00     0.264 C
HETATM    2  N1  UNL     1       9.282  38.829   9.671  1.00  0.00    -0.414 NA
HETATM    3  C2  UNL     1       8.191  38.492   8.991  1.00  0.00     0.355 C
HETATM    4  O1  UNL     1       7.876  38.839   7.791  1.00  0.00    -0.248 OA
ENDROOT
BRANCH   3   5
HETATM    5  C3  UNL     1       7.122  37.627   9.576  1.00  0.00     0.218 A
HETATM    6  N2  UNL     1       5.903  37.643   9.077  1.00  0.00    -0.167 N
HETATM    7  C4  UNL     1       4.919  36.876   9.614  1.00  0.00     0.712 A
ATOM      8  H2  UNL     1       5.695  38.240   8.276  1.00  0.00     0.186 HD
HETATM    9  N5  UNL     1       5.270  36.135  10.659  1.00  0.00    -0.021 N
HETATM   10  C5  UNL     1       6.532  36.112  11.186  1.00  0.00     0.692 A
ATOM     11  H5  UNL     1       4.556  35.549  11.093  1.00  0.00     0.203 HD
HETATM   12  N7  UNL     1       7.491  36.874  10.634  1.00  0.00    -0.169 N
ATOM     13  H7  UNL     1       8.445  36.882  10.995  1.00  0.00     0.186 HD
BRANCH   7  14
HETATM   14  N3  UNL     1       3.723  36.860   9.107  1.00  0.00    -0.138 N
ATOM     15  H3  UNL     1       2.939  37.134   9.700  1.00  0.00     0.205 HD
BRANCH  14  16
HETATM   16  N4  UNL     1       3.464  36.489   7.799  1.00  0.00    -0.331 N
ATOM     17  H42 UNL     1       2.569  36.771   7.399  1.00  0.00     0.177 HD
ATOM     18  H41 UNL     1       4.122  35.954   7.234  1.00  0.00     0.177 HD
ENDBRANCH  14  16
ENDBRANCH   7  14
BRANCH  10  19
HETATM   19  N6  UNL     1       6.817  35.383  12.200  1.00  0.00    -0.234 N
ATOM     20  H62 UNL     1       6.631  34.381  12.162  1.00  0.00     0.174 HD
ATOM     21  H61 UNL     1       7.229  35.783  13.043  1.00  0.00     0.174 HD
ENDBRANCH  10  19
ENDBRANCH   3   5
TORSDOF 3
ENDMDL