MODEL 4
REMARK VINA RESULT: -4.991626105      2.182      2.992
REMARK  3 active torsions:
REMARK  status: ('A' for Active; 'I' for Inactive)
REMARK    1  A    between atoms: N1_1  and  C1_4
REMARK    2  A    between atoms: C2_9  and  C3_10
REMARK       I    between atoms: C3_10  and  N4_12
REMARK       I    between atoms: N4_12  and  C4_14
REMARK    3  A    between atoms: N6_17  and  N7_18
ROOT
HETATM    1  C1  UNL     1       5.678  36.684  10.245  1.00  0.00     0.713 A
HETATM    2  N2  UNL     1       5.515  37.492   9.179  1.00  0.00    -0.129 N
ATOM      3  H2  UNL     1       4.654  37.667   8.660  1.00  0.00     0.205 HD
HETATM    4  N3  UNL     1       6.701  38.008   8.948  1.00  0.00    -0.265 N
ATOM      5  H3  UNL     1       6.897  38.667   8.195  1.00  0.00     0.189 HD
HETATM    6  C2  UNL     1       7.617  37.572   9.812  1.00  0.00     0.228 A
HETATM    7  N6  UNL     1       6.981  36.732  10.639  1.00  0.00    -0.068 N
ENDROOT
BRANCH   6   8
HETATM    8  C3  UNL     1       9.047  37.924   9.869  1.00  0.00     0.297 C
HETATM    9  O1  UNL     1       9.586  38.093  10.993  1.00  0.00    -0.264 OA
HETATM   10  N4  UNL     1       9.795  38.071   8.671  1.00  0.00    -0.275 N
HETATM   11  C4  UNL     1      11.157  38.408   8.750  1.00  0.00     0.335 C
ATOM     12  H4  UNL     1       9.349  37.933   7.764  1.00  0.00     0.173 HD
HETATM   13  N5  UNL     1      11.988  38.576   7.606  1.00  0.00    -0.040 NA
HETATM   14  O2  UNL     1      11.720  38.581   9.865  1.00  0.00    -0.251 OA
ENDBRANCH   6   8
BRANCH   7  15
HETATM   15  N7  UNL     1       7.531  36.024  11.713  1.00  0.00    -0.322 N
ATOM     16  H72 UNL     1       7.061  35.341  12.307  1.00  0.00     0.178 HD
ATOM     17  H71 UNL     1       8.491  36.106  12.045  1.00  0.00     0.178 HD
ENDBRANCH   7  15
BRANCH   1  18
HETATM   18  N1  UNL     1       4.739  35.986  10.789  1.00  0.00    -0.232 N
ATOM     19  H12 UNL     1       4.293  36.169  11.687  1.00  0.00     0.174 HD
ATOM     20  H11 UNL     1       4.321  35.152  10.377  1.00  0.00     0.174 HD
ENDBRANCH   1  18
TORSDOF 3
ENDMDL