MODEL 2
REMARK VINA RESULT: -4.514101674      0.029      2.269
REMARK  4 active torsions:
REMARK  status: ('A' for Active; 'I' for Inactive)
REMARK    1  A    between atoms: N1_1  and  C1_4
REMARK    2  A    between atoms: C2_7  and  S1_8
REMARK    3  A    between atoms: S1_8  and  N3_9
REMARK    4  A    between atoms: C3_16  and  N5_17
ROOT
HETATM    1  C1  UNL     1       8.902  36.992  11.818  1.00  0.00     0.692 A
HETATM    2  N2  UNL     1       9.315  37.691  10.723  1.00  0.00    -0.164 N
ATOM      3  H2  UNL     1      10.234  38.134  10.736  1.00  0.00     0.186 HD
HETATM    4  C2  UNL     1       8.551  37.815   9.633  1.00  0.00     0.252 A
HETATM    5  N4  UNL     1       7.344  37.221   9.650  1.00  0.00    -0.164 N
ATOM      6  H4  UNL     1       6.742  37.302   8.830  1.00  0.00     0.186 HD
HETATM    7  C3  UNL     1       6.900  36.516  10.727  1.00  0.00     0.692 A
HETATM    8  N6  UNL     1       7.704  36.411  11.816  1.00  0.00    -0.023 N
ATOM      9  H6  UNL     1       7.390  35.888  12.633  1.00  0.00     0.203 HD
ENDROOT
BRANCH   4  10
HETATM   10  S1  UNL     1       9.091  38.720   8.219  1.00  0.00     0.289 S
HETATM   11  O1  UNL     1       7.939  38.978   7.293  1.00  0.00    -0.198 OA
HETATM   12  O2  UNL     1      10.085  37.883   7.424  1.00  0.00    -0.198 OA
BRANCH  10  13
HETATM   13  N3  UNL     1       9.871  40.172   8.638  1.00  0.00    -0.322 N
ATOM     14  H32 UNL     1       9.754  40.624   9.546  1.00  0.00     0.169 HD
ATOM     15  H31 UNL     1      10.460  40.529   7.886  1.00  0.00     0.169 HD
ENDBRANCH  10  13
ENDBRANCH   4  10
BRANCH   1  16
HETATM   16  N1  UNL     1       9.635  36.870  12.872  1.00  0.00    -0.234 N
ATOM     17  H12 UNL     1      10.646  36.954  12.767  1.00  0.00     0.174 HD
ATOM     18  H11 UNL     1       9.236  36.695  13.794  1.00  0.00     0.174 HD
ENDBRANCH   1  16
BRANCH   7  19
HETATM   19  N5  UNL     1       5.769  35.945  10.774  1.00  0.00    -0.234 N
ATOM     20  H52 UNL     1       5.394  35.565   9.904  1.00  0.00     0.174 HD
ATOM     21  H51 UNL     1       5.221  35.847  11.629  1.00  0.00     0.174 HD
ENDBRANCH   7  19
TORSDOF 4
ENDMDL