MODEL 5
REMARK VINA RESULT: -7.629210877      3.908      5.491
REMARK  18 active torsions:
REMARK  status: ('A' for Active; 'I' for Inactive)
REMARK    1  A    between atoms: O1_2  and  C2_3
REMARK    2  A    between atoms: C2_3  and  C3_5
REMARK       I    between atoms: C3_5  and  N1_7
REMARK    3  A    between atoms: N1_7  and  C4_9
REMARK    4  A    between atoms: C4_9  and  C5_10
REMARK    5  A    between atoms: C5_10  and  C6_11
REMARK    6  A    between atoms: C7_12  and  C8_13
REMARK    7  A    between atoms: C9_14  and  N2_15
REMARK    8  A    between atoms: N2_15  and  C10_17
REMARK    9  A    between atoms: C10_17  and  C11_18
REMARK   10  A    between atoms: C14_23  and  O4_24
REMARK   11  A    between atoms: O4_24  and  C15_25
REMARK   12  A    between atoms: C15_25  and  C16_26
REMARK   13  A    between atoms: C16_26  and  C17_27
REMARK   14  A    between atoms: C17_27  and  C18_28
REMARK   15  A    between atoms: C18_28  and  C19_29
REMARK   16  A    between atoms: C19_29  and  N4_30
REMARK   17  A    between atoms: C24_47  and  N9_48
REMARK   18  A    between atoms: C25_53  and  N11_54
ROOT
HETATM    1  N2  UNL     1      50.252  19.027  -8.412  1.00  0.00    -0.367 N
ATOM      2  H2  UNL     1      50.092  18.020  -8.374  1.00  0.00     0.161 HD
ENDROOT
BRANCH   1   3
HETATM    3  C9  UNL     1      50.027  19.712  -9.637  1.00  0.00     0.140 A
HETATM    4  C8  UNL     1      48.789  19.581 -10.290  1.00  0.00     0.106 A
HETATM    5  C25 UNL     1      48.541  20.242 -11.468  1.00  0.00     0.137 A
HETATM    6  N10 UNL     1      49.505  21.018 -11.989  1.00  0.00    -0.176 N
HETATM    7  C24 UNL     1      50.681  21.132 -11.352  1.00  0.00     0.679 A
ATOM      8  H10 UNL     1      49.345  21.518 -12.864  1.00  0.00     0.186 HD
HETATM    9  N8  UNL     1      50.968  20.497 -10.187  1.00  0.00    -0.176 N
ATOM     10  H8  UNL     1      51.877  20.614  -9.739  1.00  0.00     0.186 HD
BRANCH   4  11
HETATM   11  C7  UNL     1      47.796  18.734  -9.679  1.00  0.00    -0.059 C
HETATM   12  C6  UNL     1      46.976  18.010  -9.177  1.00  0.00    -0.099 C
BRANCH  12  13
HETATM   13  C5  UNL     1      45.998  17.119  -8.572  1.00  0.00     0.114 C
BRANCH  13  14
HETATM   14  C4  UNL     1      46.608  15.879  -7.999  1.00  0.00     0.135 C
BRANCH  14  15
HETATM   15  N1  UNL     1      47.860  15.528  -8.606  1.00  0.00    -0.352 N
HETATM   16  C3  UNL     1      49.053  15.640  -7.844  1.00  0.00     0.317 C
HETATM   17  O3  UNL     1      49.037  16.038  -6.661  1.00  0.00    -0.262 OA
ATOM     18  H1  UNL     1      47.893  15.202  -9.571  1.00  0.00     0.162 HD
BRANCH  16  19
HETATM   19  C2  UNL     1      50.362  15.291  -8.424  1.00  0.00     0.351 C
HETATM   20  O2  UNL     1      51.100  16.164  -8.955  1.00  0.00    -0.254 OA
BRANCH  19  21
HETATM   21  O1  UNL     1      50.841  13.994  -8.410  1.00  0.00    -0.319 OA
HETATM   22  C1  UNL     1      51.212  13.338  -7.206  1.00  0.00     0.213 C
ENDBRANCH  19  21
ENDBRANCH  16  19
ENDBRANCH  14  15
ENDBRANCH  13  14
ENDBRANCH  12  13
ENDBRANCH   4  11
BRANCH   5  23
HETATM   23  N11 UNL     1      47.387  20.093 -12.034  1.00  0.00    -0.384 N
ATOM     24 2H11 UNL     1      46.622  19.584 -11.592  1.00  0.00     0.157 HD
ATOM     25 1H11 UNL     1      47.237  20.501 -12.957  1.00  0.00     0.157 HD
ENDBRANCH   5  23
BRANCH   7  26
HETATM   26  N9  UNL     1      51.637  21.880 -11.837  1.00  0.00    -0.234 N
ATOM     27  H92 UNL     1      52.330  22.306 -11.223  1.00  0.00     0.174 HD
ATOM     28  H91 UNL     1      51.632  22.000 -12.849  1.00  0.00     0.174 HD
ENDBRANCH   7  26
ENDBRANCH   1   3
BRANCH   1  29
HETATM   29  C10 UNL     1      50.693  19.693  -7.241  1.00  0.00     0.197 C
BRANCH  29  30
HETATM   30  C11 UNL     1      51.479  18.843  -6.302  1.00  0.00     0.101 A
HETATM   31  N3  UNL     1      51.586  17.526  -6.208  1.00  0.00    -0.341 N
HETATM   32  C12 UNL     1      52.428  17.180  -5.188  1.00  0.00     0.081 A
ATOM     33  H3  UNL     1      51.105  16.861  -6.814  1.00  0.00     0.167 HD
HETATM   34  C13 UNL     1      52.866  15.990  -4.683  1.00  0.00     0.071 A
HETATM   35  C23 UNL     1      52.843  18.384  -4.648  1.00  0.00     0.134 A
HETATM   36  C14 UNL     1      53.762  15.983  -3.588  1.00  0.00     0.086 A
HETATM   37  C22 UNL     1      54.145  17.205  -3.088  1.00  0.00     0.126 A
HETATM   38  N6  UNL     1      53.694  18.362  -3.608  1.00  0.00    -0.348 N
ATOM     39  H6  UNL     1      54.005  19.244  -3.202  1.00  0.00     0.167 HD
HETATM   40  N7  UNL     1      52.254  19.367  -5.339  1.00  0.00    -0.329 N
ATOM     41  H7  UNL     1      52.376  20.365  -5.161  1.00  0.00     0.168 HD
BRANCH  36  42
HETATM   42  O4  UNL     1      54.177  14.762  -3.120  1.00  0.00    -0.350 OA
BRANCH  42  43
HETATM   43  C15 UNL     1      54.766  13.712  -3.788  1.00  0.00     0.175 C
BRANCH  43  44
HETATM   44  C16 UNL     1      55.555  12.815  -2.891  1.00  0.00     0.027 C
BRANCH  44  45
HETATM   45  C17 UNL     1      56.765  12.255  -3.612  1.00  0.00     0.006 C
BRANCH  45  46
HETATM   46  C18 UNL     1      57.973  12.351  -2.748  1.00  0.00     0.069 C
BRANCH  46  47
HETATM   47  C19 UNL     1      58.991  11.343  -3.268  1.00  0.00     0.286 C
HETATM   48  C20 UNL     1      58.572   9.911  -3.188  1.00  0.00     0.097 C
HETATM   49  C21 UNL     1      60.004   9.698  -2.697  1.00  0.00     0.239 C
HETATM   50  N5  UNL     1      59.998  11.094  -2.258  1.00  0.00    -0.041 N
ATOM     51  H52 UNL     1      60.859  11.639  -2.227  1.00  0.00     0.280 HD
ATOM     52  H51 UNL     1      59.835  11.338  -1.281  1.00  0.00     0.280 HD
BRANCH  47  53
HETATM   53  N4  UNL     1      59.592  11.668  -4.525  1.00  0.00    -0.044 N
ATOM     54  H43 UNL     1      58.875  11.952  -5.193  1.00  0.00     0.277 HD
ATOM     55  H42 UNL     1      60.119  12.539  -4.445  1.00  0.00     0.277 HD
ATOM     56  H41 UNL     1      60.179  10.941  -4.932  1.00  0.00     0.277 HD
ENDBRANCH  47  53
ENDBRANCH  46  47
ENDBRANCH  45  46
ENDBRANCH  44  45
ENDBRANCH  43  44
ENDBRANCH  42  43
ENDBRANCH  36  42
ENDBRANCH  29  30
ENDBRANCH   1  29
TORSDOF 18
ENDMDL