MODEL 4
REMARK VINA RESULT: -8.618834831      6.802     13.410
REMARK  15 active torsions:
REMARK  status: ('A' for Active; 'I' for Inactive)
REMARK    1  A    between atoms: C4_4  and  N1_5
REMARK    2  A    between atoms: N1_5  and  C5_7
REMARK    3  A    between atoms: C6_10  and  N3_11
REMARK    4  A    between atoms: N3_11  and  C7_13
REMARK    5  A    between atoms: C7_13  and  C8_14
REMARK    6  A    between atoms: C13_20  and  C14_21
REMARK    7  A    between atoms: N4_24  and  C17_25
REMARK    8  A    between atoms: C17_25  and  C18_26
REMARK    9  A    between atoms: C18_26  and  C19_27
REMARK   10  A    between atoms: C19_27  and  N5_28
REMARK       I    between atoms: N5_28  and  C20_30
REMARK   11  A    between atoms: C21_35  and  N8_36
REMARK   12  A    between atoms: C22_45  and  N12_46
REMARK   13  A    between atoms: N12_46  and  C23_48
REMARK   14  A    between atoms: C23_48  and  C24_49
REMARK   15  A    between atoms: C24_49  and  O2_50
ROOT
HETATM    1  C5  UNL     1      53.112  14.439  -2.990  1.00  0.00     0.686 A
HETATM    2  N2  UNL     1      52.651  13.748  -4.021  1.00  0.00    -0.174 N
ATOM      3  H2  UNL     1      51.794  13.972  -4.527  1.00  0.00     0.186 HD
HETATM    4  C6  UNL     1      53.479  12.688  -4.322  1.00  0.00     0.146 A
HETATM    5  C13 UNL     1      54.501  12.748  -3.409  1.00  0.00     0.120 A
HETATM    6  N10 UNL     1      54.228  13.842  -2.617  1.00  0.00    -0.185 N
ATOM      7  H10 UNL     1      54.813  14.151  -1.841  1.00  0.00     0.184 HD
ENDROOT
BRANCH   5   8
HETATM    8  C14 UNL     1      55.660  11.901  -3.242  1.00  0.00     0.081 A
HETATM    9  C15 UNL     1      55.748  10.729  -2.582  1.00  0.00     0.050 A
HETATM   10  C16 UNL     1      56.976  10.028  -2.484  1.00  0.00     0.111 A
HETATM   11  N4  UNL     1      58.083  10.514  -3.043  1.00  0.00    -0.194 N
HETATM   12  C21 UNL     1      57.966  11.682  -3.691  1.00  0.00     0.678 A
HETATM   13  N9  UNL     1      56.813  12.353  -3.792  1.00  0.00    -0.190 N
ATOM     14  H9  UNL     1      56.801  13.237  -4.302  1.00  0.00     0.184 HD
BRANCH  11  15
HETATM   15  C17 UNL     1      59.380   9.821  -2.969  1.00  0.00     0.148 C
BRANCH  15  16
HETATM   16  C18 UNL     1      59.249   8.503  -2.287  1.00  0.00     0.040 C
BRANCH  16  17
HETATM   17  C19 UNL     1      59.755   8.414  -0.899  1.00  0.00     0.124 C
BRANCH  17  18
HETATM   18  N5  UNL     1      59.480   9.507  -0.029  1.00  0.00    -0.365 N
HETATM   19  C20 UNL     1      58.636   9.523   1.087  1.00  0.00     0.181 C
HETATM   20  N6  UNL     1      58.992  10.134   2.157  1.00  0.00    -0.374 N
HETATM   21  N7  UNL     1      57.381   8.875   1.059  1.00  0.00    -0.064 NA
ATOM     22  H62 UNL     1      59.898  10.602   2.177  1.00  0.00     0.158 HD
ATOM     23  H61 UNL     1      58.377  10.145   2.970  1.00  0.00     0.158 HD
ATOM     24  H5  UNL     1      59.955  10.383  -0.244  1.00  0.00     0.162 HD
ENDBRANCH  17  18
ENDBRANCH  16  17
ENDBRANCH  15  16
ENDBRANCH  11  15
BRANCH  12  25
HETATM   25  N8  UNL     1      59.057  12.140  -4.230  1.00  0.00    -0.234 N
ATOM     26  H82 UNL     1      59.533  12.955  -3.842  1.00  0.00     0.174 HD
ATOM     27  H81 UNL     1      59.392  11.635  -5.050  1.00  0.00     0.174 HD
ENDBRANCH  12  25
ENDBRANCH   5   8
BRANCH   4  28
HETATM   28  N3  UNL     1      53.271  11.837  -5.429  1.00  0.00    -0.374 N
ATOM     29  H3  UNL     1      52.357  11.399  -5.542  1.00  0.00     0.161 HD
BRANCH  28  30
HETATM   30  C7  UNL     1      54.300  11.558  -6.411  1.00  0.00     0.126 C
BRANCH  30  31
HETATM   31  C8  UNL     1      54.823  10.177  -6.456  1.00  0.00     0.007 C
HETATM   32  C9  UNL     1      54.196   9.210  -7.367  1.00  0.00     0.032 C
HETATM   33  C10 UNL     1      54.948   7.895  -7.454  1.00  0.00     0.168 C
HETATM   34  O1  UNL     1      56.322   8.074  -7.446  1.00  0.00    -0.391 OA
HETATM   35  C11 UNL     1      56.820   8.814  -6.411  1.00  0.00     0.168 C
HETATM   36  C12 UNL     1      56.338  10.240  -6.601  1.00  0.00     0.032 C
ENDBRANCH  30  31
ENDBRANCH  28  30
ENDBRANCH   4  28
BRANCH   1  37
HETATM   37  N1  UNL     1      52.528  15.595  -2.392  1.00  0.00    -0.176 N
ATOM     38  H1  UNL     1      51.758  15.459  -1.737  1.00  0.00     0.186 HD
BRANCH  37  39
HETATM   39  C4  UNL     1      52.917  16.803  -2.632  1.00  0.00     0.138 A
HETATM   40  C3  UNL     1      53.661  17.530  -1.734  1.00  0.00     0.074 A
HETATM   41  C2  UNL     1      54.032  18.819  -2.071  1.00  0.00     0.026 A
HETATM   42  C1  UNL     1      54.840  19.642  -1.118  1.00  0.00     0.069 C
HETATM   43  N13 UNL     1      53.650  19.294  -3.255  1.00  0.00    -0.196 N
HETATM   44  C22 UNL     1      52.923  18.592  -4.140  1.00  0.00     0.679 A
ATOM     45  H13 UNL     1      53.924  20.245  -3.504  1.00  0.00     0.184 HD
HETATM   46  N11 UNL     1      52.558  17.342  -3.823  1.00  0.00    -0.176 N
ATOM     47  H11 UNL     1      52.006  16.793  -4.482  1.00  0.00     0.186 HD
BRANCH  44  48
HETATM   48  N12 UNL     1      52.569  19.075  -5.274  1.00  0.00    -0.224 N
ATOM     49  H12 UNL     1      53.001  19.931  -5.621  1.00  0.00     0.177 HD
BRANCH  48  50
HETATM   50  C23 UNL     1      51.557  18.406  -6.059  1.00  0.00     0.164 C
BRANCH  50  51
HETATM   51  C24 UNL     1      51.205  19.238  -7.284  1.00  0.00     0.184 C
BRANCH  51  52
HETATM   52  O2  UNL     1      52.320  19.505  -8.053  1.00  0.00    -0.399 OA
ATOM     53  H2  UNL     1      53.053  19.788  -7.517  1.00  0.00     0.209 HD
ENDBRANCH  51  52
ENDBRANCH  50  51
ENDBRANCH  48  50
ENDBRANCH  44  48
ENDBRANCH  37  39
ENDBRANCH   1  37
TORSDOF 15
ENDMDL