MODEL 1
REMARK VINA RESULT: -9.030156601      0.000      0.000
REMARK  16 active torsions:
REMARK  status: ('A' for Active; 'I' for Inactive)
REMARK    1  A    between atoms: C3_5  and  N2_6
REMARK    2  A    between atoms: N2_6  and  C4_8
REMARK    3  A    between atoms: C4_8  and  C5_9
REMARK    4  A    between atoms: C5_9  and  N3_10
REMARK    5  A    between atoms: N3_10  and  C6_12
REMARK    6  A    between atoms: C7_15  and  N5_16
REMARK    7  A    between atoms: C8_21  and  N7_22
REMARK    8  A    between atoms: N7_22  and  C9_24
REMARK    9  A    between atoms: C9_24  and  C10_25
REMARK   10  A    between atoms: C10_25  and  C11_26
REMARK   11  A    between atoms: C11_26  and  C12_27
REMARK   12  A    between atoms: C12_27  and  C13_28
REMARK   13  A    between atoms: C13_28  and  C14_29
REMARK   14  A    between atoms: C14_29  and  C15_30
REMARK   15  A    between atoms: C19_36  and  N9_37
REMARK   16  A    between atoms: C20_42  and  N11_43
ROOT
HETATM    1  C6  UNL     1      53.699  16.462  -3.222  1.00  0.00     0.707 A
HETATM    2  N4  UNL     1      54.365  17.373  -2.497  1.00  0.00    -0.022 N
ATOM      3  H4  UNL     1      55.115  17.058  -1.882  1.00  0.00     0.203 HD
HETATM    4  C7  UNL     1      54.082  18.688  -2.549  1.00  0.00     0.705 A
HETATM    5  N6  UNL     1      53.084  19.065  -3.374  1.00  0.00    -0.022 N
ATOM      6  H6  UNL     1      52.852  20.057  -3.429  1.00  0.00     0.203 HD
HETATM    7  C8  UNL     1      52.375  18.201  -4.130  1.00  0.00     0.707 A
HETATM    8  N13 UNL     1      52.707  16.896  -4.032  1.00  0.00    -0.022 N
ATOM      9  H13 UNL     1      52.192  16.214  -4.589  1.00  0.00     0.203 HD
ENDROOT
BRANCH   7  10
HETATM   10  N7  UNL     1      51.430  18.601  -4.916  1.00  0.00    -0.225 N
ATOM     11  H7  UNL     1      50.489  18.668  -4.527  1.00  0.00     0.177 HD
BRANCH  10  12
HETATM   12  C9  UNL     1      51.604  18.960  -6.299  1.00  0.00     0.138 C
BRANCH  12  13
HETATM   13  C10 UNL     1      51.309  17.818  -7.252  1.00  0.00     0.020 C
BRANCH  13  14
HETATM   14  C11 UNL     1      49.876  17.884  -7.746  1.00  0.00     0.002 C
BRANCH  14  15
HETATM   15  C12 UNL     1      49.800  18.108  -9.225  1.00  0.00     0.000 C
BRANCH  15  16
HETATM   16  C13 UNL     1      49.548  19.510  -9.640  1.00  0.00     0.006 C
BRANCH  16  17
HETATM   17  C14 UNL     1      50.739  20.331  -9.987  1.00  0.00     0.057 C
BRANCH  17  18
HETATM   18  C15 UNL     1      50.515  21.256 -11.116  1.00  0.00     0.009 A
HETATM   19  C16 UNL     1      51.535  21.921 -11.763  1.00  0.00     0.027 A
HETATM   20  C17 UNL     1      51.298  22.777 -12.815  1.00  0.00     0.034 A
HETATM   21  C18 UNL     1      50.007  22.974 -13.232  1.00  0.00     0.079 A
HETATM   22  N8  UNL     1      49.744  23.807 -14.259  1.00  0.00    -0.190 N
HETATM   23  C21 UNL     1      48.992  22.304 -12.577  1.00  0.00     0.104 A
HETATM   24  C19 UNL     1      48.469  24.002 -14.669  1.00  0.00     0.678 A
ATOM     25  H8  UNL     1      50.509  24.293 -14.727  1.00  0.00     0.184 HD
HETATM   26  N10 UNL     1      47.449  23.371 -14.065  1.00  0.00    -0.175 N
HETATM   27  C20 UNL     1      47.706  22.525 -13.022  1.00  0.00     0.144 A
ATOM     28  H10 UNL     1      46.492  23.522 -14.381  1.00  0.00     0.186 HD
HETATM   29  N12 UNL     1      49.268  21.473 -11.550  1.00  0.00    -0.355 N
ATOM     30  H12 UNL     1      48.497  20.991 -11.088  1.00  0.00     0.166 HD
BRANCH  24  31
HETATM   31  N9  UNL     1      48.164  24.788 -15.651  1.00  0.00    -0.234 N
ATOM     32  H92 UNL     1      48.380  25.778 -15.527  1.00  0.00     0.174 HD
ATOM     33  H91 UNL     1      47.727  24.452 -16.510  1.00  0.00     0.174 HD
ENDBRANCH  24  31
BRANCH  27  34
HETATM   34  N11 UNL     1      46.735  21.919 -12.439  1.00  0.00    -0.383 N
ATOM     35 2H11 UNL     1      46.734  20.899 -12.416  1.00  0.00     0.157 HD
ATOM     36 1H11 UNL     1      45.984  22.461 -12.010  1.00  0.00     0.157 HD
ENDBRANCH  27  34
ENDBRANCH  17  18
ENDBRANCH  16  17
ENDBRANCH  15  16
ENDBRANCH  14  15
ENDBRANCH  13  14
ENDBRANCH  12  13
ENDBRANCH  10  12
ENDBRANCH   7  10
BRANCH   4  37
HETATM   37  N5  UNL     1      54.740  19.536  -1.838  1.00  0.00    -0.234 N
ATOM     38  H52 UNL     1      55.486  20.110  -2.232  1.00  0.00     0.174 HD
ATOM     39  H51 UNL     1      54.533  19.663  -0.848  1.00  0.00     0.174 HD
ENDBRANCH   4  37
BRANCH   1  40
HETATM   40  N3  UNL     1      54.045  15.096  -3.128  1.00  0.00    -0.224 N
ATOM     41  H3  UNL     1      54.403  14.712  -2.254  1.00  0.00     0.177 HD
BRANCH  40  42
HETATM   42  C5  UNL     1      53.883  14.248  -4.291  1.00  0.00     0.158 C
BRANCH  42  43
HETATM   43  C4  UNL     1      54.943  13.164  -4.336  1.00  0.00     0.158 C
BRANCH  43  44
HETATM   44  N2  UNL     1      55.592  12.975  -3.091  1.00  0.00    -0.224 N
ATOM     45  H2  UNL     1      55.339  13.635  -2.355  1.00  0.00     0.177 HD
BRANCH  44  46
HETATM   46  C3  UNL     1      56.455  12.086  -2.765  1.00  0.00     0.680 A
HETATM   47  N1  UNL     1      55.986  10.939  -2.201  1.00  0.00    -0.194 N
HETATM   48  C2  UNL     1      56.788   9.933  -1.817  1.00  0.00     0.053 A
ATOM     49  H1  UNL     1      54.981  10.839  -2.063  1.00  0.00     0.184 HD
HETATM   50  C1  UNL     1      56.262   8.692  -1.206  1.00  0.00     0.071 C
HETATM   51  C24 UNL     1      58.139  10.070  -2.003  1.00  0.00     0.101 A
HETATM   52  C22 UNL     1      58.661  11.290  -2.604  1.00  0.00     0.150 A
HETATM   53  N16 UNL     1      59.208   9.285  -1.742  1.00  0.00    -0.348 N
HETATM   54  N14 UNL     1      57.772  12.250  -2.959  1.00  0.00    -0.174 N
HETATM   55  N15 UNL     1      59.995  11.138  -2.656  1.00  0.00    -0.336 N
ATOM     56  H14 UNL     1      58.112  13.115  -3.383  1.00  0.00     0.186 HD
HETATM   57  C23 UNL     1      60.333   9.933  -2.139  1.00  0.00     0.182 A
ATOM     58  H15 UNL     1      60.653  11.824  -3.027  1.00  0.00     0.168 HD
ATOM     59  H16 UNL     1      59.174   8.358  -1.318  1.00  0.00     0.167 HD
ENDBRANCH  44  46
ENDBRANCH  43  44
ENDBRANCH  42  43
ENDBRANCH  40  42
ENDBRANCH   1  40
TORSDOF 16
ENDMDL