MODEL 5
REMARK VINA RESULT: -7.680336541      2.347      5.085
REMARK  18 active torsions:
REMARK  status: ('A' for Active; 'I' for Inactive)
REMARK    1  A    between atoms: N1_1  and  C1_4
REMARK    2  A    between atoms: C2_7  and  N3_8
REMARK    3  A    between atoms: N3_8  and  C3_10
REMARK    4  A    between atoms: C9_16  and  N4_17
REMARK    5  A    between atoms: N4_17  and  C10_19
REMARK    6  A    between atoms: N7_28  and  C14_29
REMARK    7  A    between atoms: C16_31  and  C17_32
REMARK    8  A    between atoms: C17_32  and  N8_33
REMARK    9  A    between atoms: N8_33  and  C18_35
REMARK   10  A    between atoms: C18_35  and  C19_36
REMARK   11  A    between atoms: C19_36  and  C20_37
REMARK   12  A    between atoms: C20_37  and  C21_38
REMARK   13  A    between atoms: C21_38  and  C22_39
REMARK   14  A    between atoms: C22_39  and  C23_40
REMARK   15  A    between atoms: C23_40  and  C24_41
REMARK   16  A    between atoms: C24_41  and  N9_42
REMARK   17  A    between atoms: C24_41  and  N10_46
REMARK   18  A    between atoms: N11_50  and  N12_52
ROOT
HETATM    1  C1  UNL     1      50.973  14.100  -7.180  1.00  0.00     0.679 A
HETATM    2  N2  UNL     1      51.714  13.730  -6.113  1.00  0.00    -0.176 N
ATOM      3  H2  UNL     1      51.918  12.746  -5.943  1.00  0.00     0.186 HD
HETATM    4  C2  UNL     1      52.177  14.665  -5.284  1.00  0.00     0.135 A
HETATM    5  C8  UNL     1      51.888  16.014  -5.530  1.00  0.00     0.099 A
HETATM    6  C9  UNL     1      52.217  17.163  -4.869  1.00  0.00     0.135 A
HETATM    7  N6  UNL     1      51.666  18.156  -5.561  1.00  0.00    -0.279 N
ATOM      8  H6  UNL     1      51.742  19.140  -5.306  1.00  0.00     0.189 HD
HETATM    9  N7  UNL     1      51.006  17.715  -6.621  1.00  0.00    -0.244 N
HETATM   10  C25 UNL     1      51.128  16.370  -6.626  1.00  0.00     0.158 A
HETATM   11  N13 UNL     1      50.674  15.399  -7.450  1.00  0.00    -0.174 N
ATOM     12  H13 UNL     1      50.112  15.639  -8.267  1.00  0.00     0.186 HD
ENDROOT
BRANCH   9  13
HETATM   13  C14 UNL     1      50.283  18.449  -7.621  1.00  0.00     0.249 C
HETATM   14  C15 UNL     1      50.724  19.866  -7.737  1.00  0.00     0.089 C
HETATM   15  C16 UNL     1      50.456  19.569  -9.219  1.00  0.00     0.146 C
HETATM   16  O1  UNL     1      50.712  18.248  -8.930  1.00  0.00    -0.358 OA
BRANCH  15  17
HETATM   17  C17 UNL     1      48.992  19.882  -9.509  1.00  0.00     0.153 C
BRANCH  17  18
HETATM   18  N8  UNL     1      48.666  19.696 -10.876  1.00  0.00    -0.376 N
ATOM     19  H8  UNL     1      48.197  18.831 -11.146  1.00  0.00     0.160 HD
BRANCH  18  20
HETATM   20  C18 UNL     1      48.954  20.642 -11.888  1.00  0.00     0.091 C
HETATM   21  N11 UNL     1      48.106  21.447 -12.423  1.00  0.00    -0.296 N
ATOM     22  H11 UNL     1      48.460  22.077 -13.144  1.00  0.00     0.187 HD
BRANCH  20  23
HETATM   23  C19 UNL     1      50.340  20.725 -12.456  1.00  0.00     0.077 C
BRANCH  23  24
HETATM   24  C20 UNL     1      51.215  21.778 -11.916  1.00  0.00     0.007 C
BRANCH  24  25
HETATM   25  C21 UNL     1      51.900  22.704 -12.838  1.00  0.00     0.001 C
BRANCH  25  26
HETATM   26  C22 UNL     1      51.203  23.127 -14.071  1.00  0.00     0.004 C
BRANCH  26  27
HETATM   27  C23 UNL     1      51.962  22.631 -15.323  1.00  0.00     0.062 C
BRANCH  27  28
HETATM   28  C24 UNL     1      51.554  23.547 -16.440  1.00  0.00     0.378 C
BRANCH  28  29
HETATM   29  N9  UNL     1      50.225  24.078 -16.275  1.00  0.00    -0.051 N
ATOM     30  H93 UNL     1      50.240  24.930 -15.714  1.00  0.00     0.276 HD
ATOM     31  H92 UNL     1      49.875  24.462 -17.152  1.00  0.00     0.276 HD
ATOM     32  H91 UNL     1      49.571  23.398 -15.888  1.00  0.00     0.276 HD
ENDBRANCH  28  29
BRANCH  28  33
HETATM   33  N10 UNL     1      52.548  24.589 -16.557  1.00  0.00    -0.051 N
ATOM     34 3H10 UNL     1      52.622  25.158 -15.713  1.00  0.00     0.276 HD
ATOM     35 2H10 UNL     1      53.500  24.225 -16.562  1.00  0.00     0.276 HD
ATOM     36 1H10 UNL     1      52.335  25.144 -17.386  1.00  0.00     0.276 HD
ENDBRANCH  28  33
ENDBRANCH  27  28
ENDBRANCH  26  27
ENDBRANCH  25  26
ENDBRANCH  24  25
ENDBRANCH  23  24
ENDBRANCH  20  23
BRANCH  21  37
HETATM   37  N12 UNL     1      46.768  21.541 -12.118  1.00  0.00    -0.344 N
ATOM     38 2H12 UNL     1      46.515  21.313 -11.156  1.00  0.00     0.176 HD
ATOM     39 1H12 UNL     1      46.020  21.815 -12.756  1.00  0.00     0.176 HD
ENDBRANCH  21  37
ENDBRANCH  18  20
ENDBRANCH  17  18
ENDBRANCH  15  17
ENDBRANCH   9  13
BRANCH   6  40
HETATM   40  N4  UNL     1      52.930  17.174  -3.794  1.00  0.00    -0.347 N
ATOM     41  H4  UNL     1      53.630  16.443  -3.664  1.00  0.00     0.163 HD
BRANCH  40  42
HETATM   42  C10 UNL     1      52.782  18.166  -2.778  1.00  0.00     0.285 C
HETATM   43  C11 UNL     1      54.038  18.283  -1.909  1.00  0.00     0.056 C
HETATM   44  C12 UNL     1      53.511  19.118  -0.758  1.00  0.00     0.031 C
HETATM   45  C13 UNL     1      52.000  18.916  -0.797  1.00  0.00     0.235 C
HETATM   46  N5  UNL     1      51.788  17.838  -1.775  1.00  0.00    -0.054 N
ATOM     47  H52 UNL     1      50.833  17.744  -2.121  1.00  0.00     0.279 HD
ATOM     48  H51 UNL     1      51.842  16.891  -1.399  1.00  0.00     0.279 HD
ENDBRANCH  40  42
ENDBRANCH   6  40
BRANCH   4  49
HETATM   49  N3  UNL     1      52.885  14.362  -4.272  1.00  0.00    -0.370 N
ATOM     50  H3  UNL     1      53.786  14.827  -4.166  1.00  0.00     0.161 HD
BRANCH  49  51
HETATM   51  C3  UNL     1      52.503  13.415  -3.277  1.00  0.00     0.083 C
HETATM   52  C4  UNL     1      52.413  14.029  -1.893  1.00  0.00     0.025 C
HETATM   53  C5  UNL     1      52.521  12.855  -0.961  1.00  0.00     0.002 C
HETATM   54  C6  UNL     1      53.341  11.812  -1.656  1.00  0.00     0.002 C
HETATM   55  C7  UNL     1      53.544  12.337  -3.060  1.00  0.00     0.025 C
ENDBRANCH  49  51
ENDBRANCH   4  49
BRANCH   1  56
HETATM   56  N1  UNL     1      50.540  13.167  -7.963  1.00  0.00    -0.234 N
ATOM     57  H12 UNL     1      50.982  12.248  -7.947  1.00  0.00     0.174 HD
ATOM     58  H11 UNL     1      49.759  13.390  -8.579  1.00  0.00     0.174 HD
ENDBRANCH   1  56
TORSDOF 18
ENDMDL