MODEL 1
REMARK VINA RESULT: -7.707745136      0.000      0.000
REMARK  15 active torsions:
REMARK  status: ('A' for Active; 'I' for Inactive)
REMARK    1  A    between atoms: C2_2  and  C3_3
REMARK    2  A    between atoms: C3_3  and  C4_4
REMARK    3  A    between atoms: C4_4  and  N1_5
REMARK    4  A    between atoms: N1_5  and  C5_7
REMARK    5  A    between atoms: C7_9  and  N2_10
REMARK    6  A    between atoms: N2_10  and  C8_11
REMARK    7  A    between atoms: N2_10  and  S1_16
REMARK    8  A    between atoms: C8_11  and  C9_12
REMARK    9  A    between atoms: C9_12  and  C10_13
REMARK   10  A    between atoms: C10_13  and  O1_14
REMARK   11  A    between atoms: S1_16  and  C12_19
REMARK   12  A    between atoms: C15_22  and  N3_23
REMARK   13  A    between atoms: C16_28  and  N5_29
REMARK   14  A    between atoms: C18_35  and  C19_36
REMARK   15  A    between atoms: C21_43  and  N9_44
ROOT
HETATM    1  S1  UNL     1      47.412  15.978  -7.201  1.00  0.00     0.268 S
HETATM    2  O2  UNL     1      47.056  14.499  -7.132  1.00  0.00    -0.200 OA
HETATM    3  O3  UNL     1      47.262  16.442  -5.737  1.00  0.00    -0.200 OA
ENDROOT
BRANCH   1   4
HETATM    4  N2  UNL     1      49.053  16.139  -7.592  1.00  0.00    -0.256 N
BRANCH   4   5
HETATM    5  C7  UNL     1      49.766  17.315  -7.253  1.00  0.00     0.136 A
HETATM    6  C6  UNL     1      49.877  18.421  -8.038  1.00  0.00     0.098 A
HETATM    7  C5  UNL     1      50.577  19.590  -7.686  1.00  0.00     0.120 A
HETATM    8  N10 UNL     1      51.158  19.564  -6.482  1.00  0.00    -0.177 N
HETATM    9  C21 UNL     1      51.075  18.493  -5.674  1.00  0.00     0.679 A
ATOM     10  H10 UNL     1      51.680  20.381  -6.168  1.00  0.00     0.185 HD
HETATM   11  N8  UNL     1      50.405  17.406  -6.039  1.00  0.00    -0.176 N
ATOM     12  H8  UNL     1      50.363  16.614  -5.399  1.00  0.00     0.186 HD
BRANCH   7  13
HETATM   13  N1  UNL     1      50.614  20.571  -8.508  1.00  0.00    -0.376 N
ATOM     14  H1  UNL     1      50.380  21.498  -8.153  1.00  0.00     0.161 HD
BRANCH  13  15
HETATM   15  C4  UNL     1      50.959  20.453  -9.883  1.00  0.00     0.121 C
BRANCH  15  16
HETATM   16  C3  UNL     1      50.688  21.726 -10.667  1.00  0.00     0.019 C
BRANCH  16  17
HETATM   17  C2  UNL     1      51.048  21.507 -12.109  1.00  0.00    -0.003 C
HETATM   18  C1  UNL     1      51.931  22.609 -12.637  1.00  0.00     0.005 C
ENDBRANCH  16  17
ENDBRANCH  15  16
ENDBRANCH  13  15
ENDBRANCH   7  13
BRANCH   9  19
HETATM   19  N9  UNL     1      51.658  18.547  -4.539  1.00  0.00    -0.234 N
ATOM     20  H92 UNL     1      51.338  17.919  -3.801  1.00  0.00     0.174 HD
ATOM     21  H91 UNL     1      52.424  19.201  -4.379  1.00  0.00     0.174 HD
ENDBRANCH   9  19
ENDBRANCH   4   5
BRANCH   4  22
HETATM   22  C8  UNL     1      49.802  15.095  -8.234  1.00  0.00     0.145 C
BRANCH  22  23
HETATM   23  C9  UNL     1      50.124  13.887  -7.462  1.00  0.00     0.047 C
BRANCH  23  24
HETATM   24  C10 UNL     1      51.445  13.824  -6.770  1.00  0.00     0.168 C
BRANCH  24  25
HETATM   25  O1  UNL     1      51.465  14.735  -5.675  1.00  0.00    -0.396 OA
HETATM   26  C11 UNL     1      52.664  14.579  -4.967  1.00  0.00     0.201 C
ENDBRANCH  24  25
ENDBRANCH  23  24
ENDBRANCH  22  23
ENDBRANCH   4  22
ENDBRANCH   1   4
BRANCH   1  27
HETATM   27  C12 UNL     1      46.270  16.799  -8.195  1.00  0.00     0.106 A
HETATM   28  C13 UNL     1      46.716  17.829  -9.035  1.00  0.00     0.044 A
HETATM   29  C14 UNL     1      45.892  18.555  -9.845  1.00  0.00     0.038 A
HETATM   30  C15 UNL     1      46.336  19.563 -10.667  1.00  0.00     0.127 A
HETATM   31  C17 UNL     1      44.514  18.275  -9.860  1.00  0.00     0.082 A
HETATM   32  N4  UNL     1      45.531  20.295 -11.479  1.00  0.00    -0.176 N
HETATM   33  C16 UNL     1      44.231  20.002 -11.466  1.00  0.00     0.677 A
ATOM     34  H4  UNL     1      45.905  21.036 -12.072  1.00  0.00     0.186 HD
HETATM   35  N6  UNL     1      43.741  19.013 -10.671  1.00  0.00    -0.190 N
ATOM     36  H6  UNL     1      42.739  18.823 -10.692  1.00  0.00     0.184 HD
HETATM   37  C18 UNL     1      44.034  17.281  -9.059  1.00  0.00     0.094 A
HETATM   38  C20 UNL     1      44.940  16.554  -8.232  1.00  0.00     0.089 A
HETATM   39  N7  UNL     1      44.363  15.520  -7.444  1.00  0.00    -0.100 NA
BRANCH  30  40
HETATM   40  N3  UNL     1      47.569  19.873 -10.708  1.00  0.00    -0.384 N
ATOM     41  H32 UNL     1      48.166  19.359 -10.059  1.00  0.00     0.157 HD
ATOM     42  H31 UNL     1      47.906  20.587 -11.354  1.00  0.00     0.157 HD
ENDBRANCH  30  40
BRANCH  33  43
HETATM   43  N5  UNL     1      43.449  20.698 -12.241  1.00  0.00    -0.234 N
ATOM     44  H52 UNL     1      43.798  21.504 -12.760  1.00  0.00     0.174 HD
ATOM     45  H51 UNL     1      42.474  20.408 -12.311  1.00  0.00     0.174 HD
ENDBRANCH  33  43
BRANCH  37  46
HETATM   46  C19 UNL     1      42.643  16.931  -9.026  1.00  0.00     0.213 C
HETATM   47  O4  UNL     1      42.142  16.226  -9.988  1.00  0.00    -0.644 OA
HETATM   48  O5  UNL     1      41.735  17.255  -8.077  1.00  0.00    -0.644 OA
ENDBRANCH  37  46
ENDBRANCH   1  27
TORSDOF 15
ENDMDL