MODEL 3
REMARK VINA RESULT: -8.492016115      2.340     13.428
REMARK  16 active torsions:
REMARK  status: ('A' for Active; 'I' for Inactive)
REMARK    1  A    between atoms: N1_6  and  C5_7
REMARK    2  A    between atoms: C6_10  and  N3_11
REMARK    3  A    between atoms: C7_16  and  N5_17
REMARK    4  A    between atoms: N7_24  and  C9_25
REMARK    5  A    between atoms: C9_25  and  C10_26
REMARK    6  A    between atoms: C10_26  and  C11_27
REMARK    7  A    between atoms: C11_27  and  C12_28
REMARK    8  A    between atoms: C15_31  and  C16_32
REMARK    9  A    between atoms: C16_32  and  O3_33
REMARK   10  A    between atoms: O3_33  and  C17_34
REMARK   11  A    between atoms: C20_37  and  N8_38
REMARK   12  A    between atoms: N8_38  and  C21_40
REMARK   13  A    between atoms: C21_40  and  C22_41
REMARK   14  A    between atoms: C22_41  and  N9_42
REMARK   15  A    between atoms: C23_46  and  N10_47
REMARK   16  A    between atoms: N10_47  and  N11_49
ROOT
HETATM    1  C12 UNL     1      51.161  15.185  -6.302  1.00  0.00     0.009 A
HETATM    2  C13 UNL     1      51.501  13.873  -6.428  1.00  0.00     0.025 A
HETATM    3  C14 UNL     1      52.485  13.284  -5.634  1.00  0.00     0.012 A
HETATM    4  C15 UNL     1      53.132  14.045  -4.697  1.00  0.00    -0.019 A
HETATM    5  C24 UNL     1      52.774  15.366  -4.585  1.00  0.00     0.097 A
HETATM    6  N13 UNL     1      51.821  15.919  -5.362  1.00  0.00    -0.369 N
ATOM      7  H13 UNL     1      51.588  16.905  -5.244  1.00  0.00     0.165 HD
ENDROOT
BRANCH   1   8
HETATM    8  C11 UNL     1      50.086  15.811  -7.161  1.00  0.00     0.058 C
BRANCH   8   9
HETATM    9  C10 UNL     1      50.727  16.975  -7.865  1.00  0.00     0.026 C
BRANCH   9  10
HETATM   10  C9  UNL     1      49.976  18.238  -7.881  1.00  0.00     0.129 C
BRANCH  10  11
HETATM   11  N7  UNL     1      49.638  18.801  -9.144  1.00  0.00    -0.315 N
HETATM   12  C2  UNL     1      48.585  18.449 -10.085  1.00  0.00     0.112 C
HETATM   13  C1  UNL     1      47.339  17.971  -9.430  1.00  0.00     0.049 C
HETATM   14  C3  UNL     1      49.057  17.518 -11.158  1.00  0.00     0.049 C
HETATM   15  C4  UNL     1      48.262  19.761 -10.759  1.00  0.00     0.275 C
HETATM   16  O1  UNL     1      47.130  20.034 -11.181  1.00  0.00    -0.269 OA
HETATM   17  N1  UNL     1      49.481  20.485 -10.762  1.00  0.00    -0.059 N
HETATM   18  C8  UNL     1      50.311  19.884  -9.767  1.00  0.00     0.347 C
HETATM   19  O2  UNL     1      51.469  20.336  -9.552  1.00  0.00    -0.246 OA
BRANCH  17  20
HETATM   20  C5  UNL     1      49.771  21.583 -11.603  1.00  0.00     0.724 A
HETATM   21  N2  UNL     1      48.737  22.271 -12.173  1.00  0.00    -0.021 N
HETATM   22  C6  UNL     1      48.948  23.321 -12.981  1.00  0.00     0.705 A
ATOM     23  H2  UNL     1      47.779  21.979 -11.980  1.00  0.00     0.203 HD
HETATM   24  N4  UNL     1      50.214  23.700 -13.230  1.00  0.00    -0.022 N
HETATM   25  C7  UNL     1      51.247  23.062 -12.698  1.00  0.00     0.705 A
ATOM     26  H4  UNL     1      50.383  24.496 -13.844  1.00  0.00     0.203 HD
HETATM   27  N6  UNL     1      50.993  22.014 -11.893  1.00  0.00    -0.021 N
ATOM     28  H6  UNL     1      51.786  21.522 -11.482  1.00  0.00     0.203 HD
BRANCH  22  29
HETATM   29  N3  UNL     1      48.009  24.005 -13.546  1.00  0.00    -0.234 N
ATOM     30  H32 UNL     1      48.100  25.021 -13.526  1.00  0.00     0.174 HD
ATOM     31  H31 UNL     1      47.195  23.595 -14.004  1.00  0.00     0.174 HD
ENDBRANCH  22  29
BRANCH  25  32
HETATM   32  N5  UNL     1      52.443  23.423 -12.937  1.00  0.00    -0.234 N
ATOM     33  H52 UNL     1      52.952  24.010 -12.276  1.00  0.00     0.174 HD
ATOM     34  H51 UNL     1      52.925  23.137 -13.789  1.00  0.00     0.174 HD
ENDBRANCH  25  32
ENDBRANCH  17  20
ENDBRANCH  10  11
ENDBRANCH   9  10
ENDBRANCH   8   9
ENDBRANCH   1   8
BRANCH   4  35
HETATM   35  C16 UNL     1      54.180  13.463  -3.837  1.00  0.00     0.217 C
BRANCH  35  36
HETATM   36  O3  UNL     1      55.429  13.311  -4.496  1.00  0.00    -0.331 OA
BRANCH  36  37
HETATM   37  C17 UNL     1      56.418  12.587  -3.849  1.00  0.00     0.143 A
HETATM   38  C18 UNL     1      56.229  12.085  -2.595  1.00  0.00     0.058 A
HETATM   39  C19 UNL     1      57.192  11.367  -1.939  1.00  0.00     0.037 A
HETATM   40  C20 UNL     1      58.388  11.151  -2.578  1.00  0.00     0.074 A
HETATM   41  C23 UNL     1      58.587  11.660  -3.860  1.00  0.00     0.148 A
HETATM   42  N12 UNL     1      57.596  12.359  -4.449  1.00  0.00    -0.320 N
ATOM     43  H12 UNL     1      57.748  12.729  -5.386  1.00  0.00     0.169 HD
BRANCH  40  44
HETATM   44  N8  UNL     1      59.413  10.401  -1.973  1.00  0.00    -0.385 N
ATOM     45  H8  UNL     1      60.250  10.896  -1.667  1.00  0.00     0.159 HD
BRANCH  44  46
HETATM   46  C21 UNL     1      59.356   8.992  -1.762  1.00  0.00     0.147 C
BRANCH  46  47
HETATM   47  C22 UNL     1      59.681   8.521  -0.386  1.00  0.00     0.249 C
BRANCH  47  48
HETATM   48  N9  UNL     1      59.298   9.550   0.592  1.00  0.00    -0.078 N
ATOM     49  H93 UNL     1      59.930   9.575   1.392  1.00  0.00     0.274 HD
ATOM     50  H92 UNL     1      59.465  10.494   0.243  1.00  0.00     0.274 HD
ATOM     51  H91 UNL     1      58.327   9.411   0.874  1.00  0.00     0.274 HD
ENDBRANCH  47  48
ENDBRANCH  46  47
ENDBRANCH  44  46
ENDBRANCH  40  44
BRANCH  41  52
HETATM   52  N10 UNL     1      59.709  11.455  -4.452  1.00  0.00    -0.290 N
ATOM     53  H10 UNL     1      60.570  11.862  -4.088  1.00  0.00     0.188 HD
BRANCH  52  54
HETATM   54  N11 UNL     1      59.727  10.672  -5.594  1.00  0.00    -0.344 N
ATOM     55 2H11 UNL     1      59.402  11.063  -6.479  1.00  0.00     0.176 HD
ATOM     56 1H11 UNL     1      60.068   9.713  -5.526  1.00  0.00     0.176 HD
ENDBRANCH  52  54
ENDBRANCH  41  52
ENDBRANCH  36  37
ENDBRANCH  35  36
ENDBRANCH   4  35
TORSDOF 16
ENDMDL