MODEL 5
REMARK VINA RESULT: -8.282326179      3.754      9.724
REMARK  13 active torsions:
REMARK  status: ('A' for Active; 'I' for Inactive)
REMARK    1  A    between atoms: C3_4  and  N2_5
REMARK    2  A    between atoms: C6_14  and  C7_15
REMARK    3  A    between atoms: C7_15  and  N5_16
REMARK    4  A    between atoms: N5_16  and  C8_19
REMARK    5  A    between atoms: C8_19  and  C9_20
REMARK    6  A    between atoms: C9_20  and  C10_21
REMARK    7  A    between atoms: C10_21  and  N6_22
REMARK    8  A    between atoms: C12_27  and  C13_28
REMARK    9  A    between atoms: C15_30  and  C16_31
REMARK   10  A    between atoms: C16_31  and  C17_33
REMARK       I    between atoms: C17_33  and  N7_35
REMARK   11  A    between atoms: N7_35  and  C18_37
REMARK   12  A    between atoms: C18_37  and  C19_38
REMARK   13  A    between atoms: N9_40  and  N10_42
ROOT
HETATM    1  N1  UNL     1      57.281  12.862  -2.375  1.00  0.00    -0.191 NA
HETATM    2  C1  UNL     1      57.441  12.188  -3.298  1.00  0.00     0.104 C
HETATM    3  C2  UNL     1      57.719  11.307  -4.407  1.00  0.00     0.102 A
HETATM    4  C3  UNL     1      59.051  10.913  -4.572  1.00  0.00     0.135 A
HETATM    5  N3  UNL     1      59.422   9.992  -5.465  1.00  0.00    -0.284 N
ATOM      6  H3  UNL     1      60.402   9.729  -5.559  1.00  0.00     0.188 HD
HETATM    7  N4  UNL     1      58.503   9.426  -6.223  1.00  0.00    -0.298 N
ATOM      8  H4  UNL     1      58.792   8.721  -6.901  1.00  0.00     0.187 HD
HETATM    9  C4  UNL     1      57.201   9.744  -6.133  1.00  0.00     0.061 A
HETATM   10  C5  UNL     1      56.282   9.091  -6.917  1.00  0.00     0.040 A
HETATM   11  C6  UNL     1      54.959   9.397  -6.789  1.00  0.00    -0.030 A
HETATM   12  C11 UNL     1      54.537  10.334  -5.908  1.00  0.00     0.022 A
HETATM   13  C12 UNL     1      55.472  11.024  -5.088  1.00  0.00    -0.004 A
HETATM   14  C22 UNL     1      56.771  10.723  -5.200  1.00  0.00     0.028 A
ENDROOT
BRANCH   4  15
HETATM   15  N2  UNL     1      59.958  11.440  -3.859  1.00  0.00    -0.383 N
ATOM     16  H22 UNL     1      59.779  12.368  -3.475  1.00  0.00     0.157 HD
ATOM     17  H21 UNL     1      60.826  10.934  -3.687  1.00  0.00     0.157 HD
ENDBRANCH   4  15
BRANCH  13  18
HETATM   18  C13 UNL     1      54.861  12.056  -4.264  1.00  0.00     0.018 A
HETATM   19  C14 UNL     1      54.641  13.356  -4.650  1.00  0.00     0.037 A
HETATM   20  C15 UNL     1      53.871  14.140  -3.855  1.00  0.00     0.046 A
HETATM   21  C21 UNL     1      53.380  13.519  -2.710  1.00  0.00     0.067 A
HETATM   22  S1  UNL     1      52.320  14.234  -1.423  1.00  0.00    -0.043 SA
HETATM   23  S2  UNL     1      54.002  11.939  -2.813  1.00  0.00    -0.081 SA
BRANCH  20  24
HETATM   24  C16 UNL     1      53.542  15.561  -4.081  1.00  0.00     0.251 C
HETATM   25  O1  UNL     1      54.250  16.446  -3.546  1.00  0.00    -0.281 OA
BRANCH  24  26
HETATM   26  C17 UNL     1      52.447  15.980  -4.884  1.00  0.00     0.292 C
HETATM   27  O2  UNL     1      51.736  15.211  -5.549  1.00  0.00    -0.264 OA
HETATM   28  N7  UNL     1      52.117  17.375  -4.954  1.00  0.00    -0.347 N
ATOM     29  H7  UNL     1      52.677  18.042  -4.422  1.00  0.00     0.163 HD
BRANCH  28  30
HETATM   30  C18 UNL     1      51.024  17.865  -5.748  1.00  0.00     0.197 C
BRANCH  30  31
HETATM   31  C19 UNL     1      51.540  18.853  -6.720  1.00  0.00     0.125 C
HETATM   32  N8  UNL     1      52.482  19.815  -6.301  1.00  0.00    -0.084 NA
HETATM   33  N9  UNL     1      51.115  18.808  -7.932  1.00  0.00    -0.288 N
ATOM     34  H9  UNL     1      50.435  18.102  -8.214  1.00  0.00     0.188 HD
BRANCH  33  35
HETATM   35  N10 UNL     1      51.591  19.724  -8.849  1.00  0.00    -0.275 N
HETATM   36  C20 UNL     1      50.765  20.294  -9.652  1.00  0.00     0.215 C
HETATM   37  N11 UNL     1      49.383  19.986  -9.598  1.00  0.00    -0.065 NA
HETATM   38  N12 UNL     1      51.272  21.247 -10.601  1.00  0.00    -0.065 NA
ATOM     39  H10 UNL     1      52.585  19.946  -8.887  1.00  0.00     0.189 HD
ENDBRANCH  33  35
ENDBRANCH  30  31
ENDBRANCH  28  30
ENDBRANCH  24  26
ENDBRANCH  20  24
ENDBRANCH  13  18
BRANCH  11  40
HETATM   40  C7  UNL     1      53.884   8.723  -7.596  1.00  0.00     0.270 C
BRANCH  40  41
HETATM   41  N5  UNL     1      53.074   9.657  -8.285  1.00  0.00    -0.071 N
ATOM     42  H52 UNL     1      53.297  10.615  -8.016  1.00  0.00     0.277 HD
ATOM     43  H51 UNL     1      53.322   9.709  -9.273  1.00  0.00     0.277 HD
BRANCH  41  44
HETATM   44  C8  UNL     1      51.686   9.373  -8.108  1.00  0.00     0.234 C
BRANCH  44  45
HETATM   45  C9  UNL     1      50.968  10.552  -7.516  1.00  0.00     0.055 C
BRANCH  45  46
HETATM   46  C10 UNL     1      51.620  11.829  -8.000  1.00  0.00     0.231 C
BRANCH  46  47
HETATM   47  N6  UNL     1      51.945  12.711  -6.908  1.00  0.00    -0.079 N
ATOM     48  H63 UNL     1      51.105  13.104  -6.485  1.00  0.00     0.274 HD
ATOM     49  H62 UNL     1      52.300  12.192  -6.105  1.00  0.00     0.274 HD
ATOM     50  H61 UNL     1      52.595  13.444  -7.193  1.00  0.00     0.274 HD
ENDBRANCH  46  47
ENDBRANCH  45  46
ENDBRANCH  44  45
ENDBRANCH  41  44
ENDBRANCH  40  41
ENDBRANCH  11  40
TORSDOF 13
ENDMDL