MODEL 2
REMARK VINA RESULT: -7.210730518      1.549      2.118
REMARK  18 active torsions:
REMARK  status: ('A' for Active; 'I' for Inactive)
REMARK    1  A    between atoms: C2_2  and  C3_3
REMARK    2  A    between atoms: C3_3  and  C4_4
REMARK    3  A    between atoms: C4_4  and  C5_5
REMARK    4  A    between atoms: C5_5  and  C6_6
REMARK    5  A    between atoms: C6_6  and  C7_7
REMARK    6  A    between atoms: C10_13  and  N2_14
REMARK    7  A    between atoms: C13_19  and  N4_20
REMARK    8  A    between atoms: C14_25  and  C15_26
REMARK    9  A    between atoms: C15_26  and  N6_27
REMARK   10  A    between atoms: C15_26  and  N7_31
REMARK   11  A    between atoms: N7_31  and  C16_33
REMARK   12  A    between atoms: C16_33  and  C17_34
REMARK   13  A    between atoms: C17_34  and  C18_35
REMARK   14  A    between atoms: C21_38  and  O2_39
REMARK   15  A    between atoms: C23_41  and  N8_42
REMARK   16  A    between atoms: N8_42  and  N9_43
REMARK   17  A    between atoms: N8_42  and  N10_46
REMARK   18  A    between atoms: C25_50  and  O3_51
ROOT
HETATM    1  N2  UNL     1      53.976  12.910  -3.259  1.00  0.00    -0.311 N
HETATM    2  C11 UNL     1      55.272  12.593  -3.045  1.00  0.00     0.189 A
HETATM    3  N3  UNL     1      55.780  11.983  -4.120  1.00  0.00    -0.347 N
ATOM      4  H3  UNL     1      56.738  11.643  -4.212  1.00  0.00     0.167 HD
HETATM    5  C12 UNL     1      54.814  11.890  -5.066  1.00  0.00     0.107 A
HETATM    6  C13 UNL     1      54.785  11.348  -6.329  1.00  0.00     0.129 A
HETATM    7  N5  UNL     1      53.663  11.374  -7.059  1.00  0.00    -0.339 N
ATOM      8  H5  UNL     1      53.668  10.964  -7.993  1.00  0.00     0.167 HD
HETATM    9  C14 UNL     1      52.543  11.921  -6.596  1.00  0.00     0.097 A
HETATM   10  C25 UNL     1      52.559  12.484  -5.299  1.00  0.00     0.122 A
HETATM   11  C26 UNL     1      53.684  12.483  -4.503  1.00  0.00     0.106 A
ENDROOT
BRANCH   9  12
HETATM   12  C15 UNL     1      51.305  11.880  -7.377  1.00  0.00     0.334 C
BRANCH  12  13
HETATM   13  N6  UNL     1      50.445  10.781  -6.876  1.00  0.00    -0.053 N
ATOM     14  H63 UNL     1      49.778  11.101  -6.174  1.00  0.00     0.277 HD
ATOM     15  H62 UNL     1      49.777  10.463  -7.577  1.00  0.00     0.277 HD
ATOM     16  H61 UNL     1      51.035  10.022  -6.531  1.00  0.00     0.277 HD
ENDBRANCH  12  13
BRANCH  12  17
HETATM   17  N7  UNL     1      50.502  12.994  -7.582  1.00  0.00    -0.371 N
ATOM     18  H7  UNL     1      49.546  12.981  -7.228  1.00  0.00     0.161 HD
BRANCH  17  19
HETATM   19  C16 UNL     1      50.954  14.132  -8.255  1.00  0.00     0.062 C
BRANCH  19  20
HETATM   20  C17 UNL     1      50.093  14.678  -9.344  1.00  0.00     0.082 C
BRANCH  20  21
HETATM   21  C18 UNL     1      50.066  16.177  -9.156  1.00  0.00    -0.051 A
HETATM   22  C19 UNL     1      49.541  17.026 -10.078  1.00  0.00     0.010 A
HETATM   23  C20 UNL     1      49.559  18.402  -9.823  1.00  0.00     0.040 A
HETATM   24  C21 UNL     1      50.096  18.910  -8.660  1.00  0.00     0.098 A
HETATM   25  C23 UNL     1      50.626  18.059  -7.722  1.00  0.00     0.107 A
HETATM   26  C24 UNL     1      50.602  16.683  -7.993  1.00  0.00     0.043 A
BRANCH  24  27
HETATM   27  O2  UNL     1      50.089  20.276  -8.471  1.00  0.00    -0.354 OA
HETATM   28  C22 UNL     1      50.302  21.169  -9.555  1.00  0.00     0.210 C
ENDBRANCH  24  27
BRANCH  25  29
HETATM   29  N8  UNL     1      51.149  18.544  -6.505  1.00  0.00    -0.207 N
BRANCH  29  30
HETATM   30  N9  UNL     1      50.998  17.718  -5.367  1.00  0.00    -0.324 N
ATOM     31  H92 UNL     1      50.140  17.168  -5.319  1.00  0.00     0.178 HD
ATOM     32  H91 UNL     1      51.761  17.719  -4.690  1.00  0.00     0.178 HD
ENDBRANCH  29  30
BRANCH  29  33
HETATM   33  N10 UNL     1      51.778  19.762  -6.298  1.00  0.00    -0.324 N
ATOM     34 2H10 UNL     1      52.252  20.167  -7.105  1.00  0.00     0.178 HD
ATOM     35 1H10 UNL     1      51.829  20.283  -5.423  1.00  0.00     0.178 HD
ENDBRANCH  29  33
ENDBRANCH  25  29
ENDBRANCH  20  21
ENDBRANCH  19  20
ENDBRANCH  17  19
ENDBRANCH  12  17
ENDBRANCH   9  12
BRANCH  10  36
HETATM   36  O3  UNL     1      51.397  13.048  -4.850  1.00  0.00    -0.356 OA
ATOM     37  H3  UNL     1      51.093  12.785  -3.989  1.00  0.00     0.218 HD
ENDBRANCH  10  36
BRANCH   6  38
HETATM   38  N4  UNL     1      55.846  10.810  -6.803  1.00  0.00    -0.384 N
ATOM     39  H42 UNL     1      56.757  11.043  -6.408  1.00  0.00     0.157 HD
ATOM     40  H41 UNL     1      55.767  10.152  -7.578  1.00  0.00     0.157 HD
ENDBRANCH   6  38
BRANCH   1  41
HETATM   41  C10 UNL     1      53.084  13.532  -2.327  1.00  0.00     0.133 C
HETATM   42  C9  UNL     1      52.950  14.855  -2.301  1.00  0.00     0.118 A
HETATM   43  C8  UNL     1      53.590  15.763  -3.098  1.00  0.00     0.275 A
HETATM   44  N11 UNL     1      52.179  15.569  -1.478  1.00  0.00    -0.337 N
HETATM   45  N1  UNL     1      53.209  17.029  -2.758  1.00  0.00    -0.308 N
HETATM   46  O1  UNL     1      54.413  15.550  -4.018  1.00  0.00    -0.266 OA
HETATM   47  C7  UNL     1      52.333  16.899  -1.751  1.00  0.00     0.104 A
ATOM     48  H1  UNL     1      53.526  17.900  -3.184  1.00  0.00     0.170 HD
ATOM     49  H11 UNL     1      51.570  15.181  -0.757  1.00  0.00     0.167 HD
BRANCH  47  50
HETATM   50  C6  UNL     1      51.744  17.901  -1.134  1.00  0.00     0.022 C
BRANCH  50  51
HETATM   51  C5  UNL     1      52.511  18.931  -0.442  1.00  0.00     0.031 C
BRANCH  51  52
HETATM   52  C4  UNL     1      53.635  18.409   0.424  1.00  0.00     0.004 C
BRANCH  52  53
HETATM   53  C3  UNL     1      55.003  18.723  -0.078  1.00  0.00    -0.000 C
BRANCH  53  54
HETATM   54  C2  UNL     1      55.031  19.848  -1.088  1.00  0.00    -0.005 C
HETATM   55  C1  UNL     1      55.890  20.999  -0.685  1.00  0.00     0.005 C
ENDBRANCH  53  54
ENDBRANCH  52  53
ENDBRANCH  51  52
ENDBRANCH  50  51
ENDBRANCH  47  50
ENDBRANCH   1  41
TORSDOF 18
ENDMDL