MODEL 5
REMARK VINA RESULT: -8.233955508      2.703      3.358
REMARK  13 active torsions:
REMARK  status: ('A' for Active; 'I' for Inactive)
REMARK    1  A    between atoms: N1_1  and  C1_4
REMARK    2  A    between atoms: C5_15  and  C6_16
REMARK    3  A    between atoms: C6_16  and  C7_17
REMARK    4  A    between atoms: C7_17  and  C8_18
REMARK    5  A    between atoms: C8_18  and  C9_19
REMARK    6  A    between atoms: C9_19  and  C10_20
REMARK    7  A    between atoms: C10_20  and  C11_21
REMARK    8  A    between atoms: C11_21  and  N5_22
REMARK       I    between atoms: N5_22  and  C12_24
REMARK    9  A    between atoms: C12_24  and  C13_26
REMARK   10  A    between atoms: C15_30  and  N7_31
REMARK   11  A    between atoms: N7_31  and  C16_33
REMARK   12  A    between atoms: C17_36  and  C18_37
REMARK   13  A    between atoms: C20_42  and  C21_43
ROOT
HETATM    1  C10 UNL     1      53.059  17.137  -1.787  1.00  0.00     0.020 C
ENDROOT
BRANCH   1   2
HETATM    2  C9  UNL     1      52.186  16.629  -0.653  1.00  0.00     0.002 C
BRANCH   2   3
HETATM    3  C8  UNL     1      51.916  15.174  -0.844  1.00  0.00     0.000 C
BRANCH   3   4
HETATM    4  C7  UNL     1      52.605  14.565  -2.035  1.00  0.00     0.007 C
BRANCH   4   5
HETATM    5  C6  UNL     1      52.789  13.069  -1.921  1.00  0.00     0.076 C
BRANCH   5   6
HETATM    6  C5  UNL     1      52.910  12.452  -3.267  1.00  0.00     0.082 A
HETATM    7  N4  UNL     1      53.718  11.384  -3.478  1.00  0.00    -0.355 N
HETATM    8  C4  UNL     1      53.853  10.791  -4.678  1.00  0.00     0.108 A
ATOM      9  H4  UNL     1      54.248  11.012  -2.690  1.00  0.00     0.166 HD
HETATM   10  C3  UNL     1      53.160  11.250  -5.775  1.00  0.00     0.068 A
HETATM   11  C2  UNL     1      53.286  10.659  -7.012  1.00  0.00     0.130 A
HETATM   12  C22 UNL     1      52.328  12.350  -5.558  1.00  0.00     0.137 A
HETATM   13  N2  UNL     1      52.560  11.186  -8.048  1.00  0.00    -0.176 N
HETATM   14  N3  UNL     1      54.030   9.651  -7.272  1.00  0.00    -0.384 N
HETATM   15  C1  UNL     1      51.760  12.251  -7.817  1.00  0.00     0.679 A
ATOM     16  H2  UNL     1      52.621  10.779  -8.981  1.00  0.00     0.186 HD
HETATM   17  N12 UNL     1      51.647  12.815  -6.614  1.00  0.00    -0.176 N
ATOM     18  H12 UNL     1      51.029  13.617  -6.494  1.00  0.00     0.186 HD
ATOM     19  H32 UNL     1      54.124   9.213  -8.189  1.00  0.00     0.157 HD
ATOM     20  H31 UNL     1      54.570   9.259  -6.501  1.00  0.00     0.157 HD
HETATM   21  N11 UNL     1      52.234  12.902  -4.335  1.00  0.00    -0.331 N
ATOM     22  H11 UNL     1      51.617  13.705  -4.213  1.00  0.00     0.168 HD
BRANCH  15  23
HETATM   23  N1  UNL     1      51.084  12.736  -8.803  1.00  0.00    -0.234 N
ATOM     24  H12 UNL     1      50.146  13.099  -8.632  1.00  0.00     0.174 HD
ATOM     25  H11 UNL     1      51.513  12.741  -9.729  1.00  0.00     0.174 HD
ENDBRANCH  15  23
ENDBRANCH   5   6
ENDBRANCH   4   5
ENDBRANCH   3   4
ENDBRANCH   2   3
ENDBRANCH   1   2
BRANCH   1  26
HETATM   26  C11 UNL     1      52.573  18.496  -2.212  1.00  0.00     0.123 C
BRANCH  26  27
HETATM   27  N5  UNL     1      51.828  18.481  -3.463  1.00  0.00    -0.356 N
HETATM   28  C12 UNL     1      52.440  18.663  -4.699  1.00  0.00     0.269 C
HETATM   29  O1  UNL     1      53.707  18.827  -4.730  1.00  0.00    -0.266 OA
ATOM     30  H5  UNL     1      50.819  18.330  -3.432  1.00  0.00     0.162 HD
BRANCH  28  31
HETATM   31  C13 UNL     1      51.772  18.680  -5.986  1.00  0.00     0.118 A
HETATM   32  N6  UNL     1      51.545  19.838  -6.696  1.00  0.00    -0.358 N
HETATM   33  C14 UNL     1      50.905  19.599  -7.820  1.00  0.00     0.119 A
ATOM     34  H6  UNL     1      51.838  20.766  -6.389  1.00  0.00     0.165 HD
HETATM   35  C15 UNL     1      50.679  18.262  -7.898  1.00  0.00     0.067 A
HETATM   36  C20 UNL     1      51.222  17.679  -6.740  1.00  0.00     0.089 A
BRANCH  35  37
HETATM   37  N7  UNL     1      50.028  17.503  -8.896  1.00  0.00    -0.335 N
ATOM     38  H7  UNL     1      50.522  16.766  -9.398  1.00  0.00     0.168 HD
BRANCH  37  39
HETATM   39  C16 UNL     1      48.769  17.772  -9.161  1.00  0.00     0.149 A
HETATM   40  N8  UNL     1      47.682  17.247  -8.602  1.00  0.00    -0.332 N
HETATM   41  C17 UNL     1      46.505  17.650  -9.020  1.00  0.00     0.106 A
ATOM     42  H8  UNL     1      47.762  16.546  -7.865  1.00  0.00     0.168 HD
HETATM   43  C19 UNL     1      46.476  18.594 -10.012  1.00  0.00     0.088 A
HETATM   44  S1  UNL     1      48.132  18.864 -10.306  1.00  0.00    -0.063 SA
BRANCH  41  45
HETATM   45  C18 UNL     1      45.212  17.133  -8.462  1.00  0.00     0.281 C
HETATM   46  N9  UNL     1      45.179  16.214  -7.387  1.00  0.00    -0.056 NA
HETATM   47  O2  UNL     1      44.117  17.492  -8.921  1.00  0.00    -0.269 OA
ENDBRANCH  41  45
ENDBRANCH  37  39
ENDBRANCH  35  37
BRANCH  36  48
HETATM   48  C21 UNL     1      51.083  16.253  -6.404  1.00  0.00     0.269 C
HETATM   49  N10 UNL     1      49.824  15.625  -6.720  1.00  0.00    -0.057 NA
HETATM   50  O3  UNL     1      51.994  15.594  -5.872  1.00  0.00    -0.271 OA
ENDBRANCH  36  48
ENDBRANCH  28  31
ENDBRANCH  26  27
ENDBRANCH   1  26
TORSDOF 13
ENDMDL