MODEL 2
REMARK VINA RESULT: -10.075353224      1.598      2.414
REMARK  13 active torsions:
REMARK  status: ('A' for Active; 'I' for Inactive)
REMARK    1  A    between atoms: C1_4  and  C2_6
REMARK    2  A    between atoms: C5_9  and  C6_10
REMARK    3  A    between atoms: C6_10  and  C7_11
REMARK    4  A    between atoms: C8_14  and  C9_15
REMARK    5  A    between atoms: C9_15  and  C10_16
REMARK    6  A    between atoms: C10_16  and  C11_17
REMARK    7  A    between atoms: C11_17  and  C12_18
REMARK    8  A    between atoms: C12_18  and  N4_19
REMARK       I    between atoms: N4_19  and  C13_21
REMARK    9  A    between atoms: C13_21  and  C14_23
REMARK   10  A    between atoms: C14_23  and  S1_24
REMARK   11  A    between atoms: S1_24  and  C15_25
REMARK   12  A    between atoms: C17_31  and  N7_32
REMARK   13  A    between atoms: C22_45  and  N10_46
ROOT
HETATM    1  C11 UNL     1      50.773  19.148  -6.815  1.00  0.00     0.020 C
ENDROOT
BRANCH   1   2
HETATM    2  C10 UNL     1      50.051  17.798  -6.783  1.00  0.00     0.007 C
BRANCH   2   3
HETATM    3  C9  UNL     1      50.952  16.780  -7.448  1.00  0.00     0.057 C
BRANCH   3   4
HETATM    4  C8  UNL     1      50.385  16.526  -8.817  1.00  0.00     0.014 A
HETATM    5  N3  UNL     1      49.657  17.503  -9.416  1.00  0.00    -0.349 N
HETATM    6  C7  UNL     1      49.112  17.355 -10.623  1.00  0.00     0.087 A
ATOM      7  H3  UNL     1      49.523  18.386  -8.922  1.00  0.00     0.167 HD
HETATM    8  N11 UNL     1      49.298  16.183 -11.267  1.00  0.00    -0.332 N
HETATM    9  C22 UNL     1      50.012  15.183 -10.717  1.00  0.00     0.101 A
ATOM     10  H11 UNL     1      48.887  16.053 -12.192  1.00  0.00     0.168 HD
HETATM   11  C21 UNL     1      50.578  15.328  -9.470  1.00  0.00     0.073 A
BRANCH   6  12
HETATM   12  C6  UNL     1      48.323  18.433 -11.277  1.00  0.00     0.115 C
BRANCH  12  13
HETATM   13  C5  UNL     1      49.185  19.520 -11.783  1.00  0.00    -0.051 A
HETATM   14  C4  UNL     1      50.066  20.211 -10.986  1.00  0.00     0.008 A
HETATM   15  C3  UNL     1      50.868  21.219 -11.460  1.00  0.00     0.015 A
HETATM   16  C2  UNL     1      50.819  21.584 -12.781  1.00  0.00     0.004 A
HETATM   17  C24 UNL     1      49.932  20.900 -13.620  1.00  0.00     0.015 A
HETATM   18  C23 UNL     1      49.144  19.893 -13.109  1.00  0.00     0.008 A
BRANCH  16  19
HETATM   19  C1  UNL     1      51.655  22.650 -13.333  1.00  0.00     0.120 C
HETATM   20  N1  UNL     1      51.475  23.031 -14.534  1.00  0.00    -0.387 N
ATOM     21  H12 UNL     1      52.058  23.774 -14.918  1.00  0.00     0.157 HD
ATOM     22  H11 UNL     1      50.754  22.604 -15.114  1.00  0.00     0.157 HD
HETATM   23  N2  UNL     1      52.649  23.239 -12.533  1.00  0.00    -0.082 NA
ENDBRANCH  16  19
ENDBRANCH  12  13
ENDBRANCH   6  12
BRANCH   9  24
HETATM   24  N10 UNL     1      50.182  14.057 -11.353  1.00  0.00    -0.385 N
ATOM     25 2H10 UNL     1      50.481  13.218 -10.856  1.00  0.00     0.157 HD
ATOM     26 1H10 UNL     1      50.009  14.033 -12.357  1.00  0.00     0.157 HD
ENDBRANCH   9  24
ENDBRANCH   3   4
ENDBRANCH   2   3
ENDBRANCH   1   2
BRANCH   1  27
HETATM   27  C12 UNL     1      52.199  18.882  -6.441  1.00  0.00     0.122 C
BRANCH  27  28
HETATM   28  N4  UNL     1      52.419  19.158  -5.048  1.00  0.00    -0.360 N
HETATM   29  C13 UNL     1      53.549  18.778  -4.300  1.00  0.00     0.227 C
HETATM   30  O1  UNL     1      54.465  18.121  -4.915  1.00  0.00    -0.273 OA
ATOM     31  H4  UNL     1      51.690  19.676  -4.556  1.00  0.00     0.162 HD
BRANCH  29  32
HETATM   32  C14 UNL     1      53.779  19.057  -2.886  1.00  0.00     0.185 C
BRANCH  32  33
HETATM   33  S1  UNL     1      53.036  17.971  -1.697  1.00  0.00    -0.084 SA
BRANCH  33  34
HETATM   34  C15 UNL     1      53.102  16.253  -2.070  1.00  0.00     0.149 A
HETATM   35  N5  UNL     1      52.184  15.448  -1.505  1.00  0.00    -0.321 N
HETATM   36  C16 UNL     1      52.142  14.124  -1.738  1.00  0.00     0.144 A
ATOM     37  H5  UNL     1      51.493  15.858  -0.875  1.00  0.00     0.169 HD
HETATM   38  N6  UNL     1      51.219  13.302  -1.174  1.00  0.00    -0.176 N
HETATM   39  C19 UNL     1      53.066  13.555  -2.584  1.00  0.00     0.145 A
HETATM   40  C17 UNL     1      51.186  11.974  -1.415  1.00  0.00     0.680 A
ATOM     41  H6  UNL     1      50.525  13.703  -0.544  1.00  0.00     0.186 HD
HETATM   42  N8  UNL     1      52.079  11.392  -2.238  1.00  0.00    -0.155 N
HETATM   43  C18 UNL     1      52.995  12.191  -2.803  1.00  0.00     0.279 A
ATOM     44  H8  UNL     1      52.059  10.389  -2.423  1.00  0.00     0.187 HD
HETATM   45  O2  UNL     1      53.849  11.690  -3.580  1.00  0.00    -0.266 OA
HETATM   46  C20 UNL     1      53.995  14.362  -3.158  1.00  0.00     0.267 A
HETATM   47  O3  UNL     1      54.851  13.900  -3.927  1.00  0.00    -0.267 OA
HETATM   48  N9  UNL     1      53.995  15.705  -2.887  1.00  0.00    -0.303 N
ATOM     49  H9  UNL     1      54.699  16.299  -3.324  1.00  0.00     0.171 HD
BRANCH  40  50
HETATM   50  N7  UNL     1      50.263  11.273  -0.825  1.00  0.00    -0.234 N
ATOM     51  H72 UNL     1      50.145  11.305   0.187  1.00  0.00     0.174 HD
ATOM     52  H71 UNL     1      49.661  10.692  -1.410  1.00  0.00     0.174 HD
ENDBRANCH  40  50
ENDBRANCH  33  34
ENDBRANCH  32  33
ENDBRANCH  29  32
ENDBRANCH  27  28
ENDBRANCH   1  27
TORSDOF 13
ENDMDL