MODEL 3
REMARK VINA RESULT: -7.595497587      1.547      3.591
REMARK  15 active torsions:
REMARK  status: ('A' for Active; 'I' for Inactive)
REMARK    1  A    between atoms: N1_2  and  C3_4
REMARK    2  A    between atoms: N1_2  and  C18_33
REMARK    3  A    between atoms: C3_4  and  C4_5
REMARK    4  A    between atoms: C4_5  and  C5_6
REMARK    5  A    between atoms: C5_6  and  N2_7
REMARK    6  A    between atoms: N2_7  and  C6_9
REMARK    7  A    between atoms: N4_15  and  C10_17
REMARK    8  A    between atoms: C10_17  and  C11_18
REMARK    9  A    between atoms: C11_18  and  C12_19
REMARK   10  A    between atoms: C12_19  and  C13_20
REMARK   11  A    between atoms: C13_20  and  C14_21
REMARK   12  A    between atoms: C14_21  and  C15_22
REMARK   13  A    between atoms: C15_22  and  C16_23
REMARK   14  A    between atoms: C16_23  and  N5_24
REMARK       I    between atoms: N5_24  and  C17_26
REMARK   15  A    between atoms: C18_33  and  C19_34
ROOT
HETATM    1  C6  UNL     1      51.133  19.014  -6.654  1.00  0.00     0.679 A
HETATM    2  N3  UNL     1      50.793  17.723  -6.685  1.00  0.00    -0.202 N
ATOM      3  H3  UNL     1      50.088  17.397  -7.346  1.00  0.00     0.183 HD
HETATM    4  C7  UNL     1      51.379  16.854  -5.844  1.00  0.00     0.110 A
HETATM    5  C8  UNL     1      52.335  17.339  -4.957  1.00  0.00     0.066 A
HETATM    6  C9  UNL     1      52.700  18.666  -4.910  1.00  0.00     0.118 A
HETATM    7  N4  UNL     1      53.552  19.156  -4.118  1.00  0.00    -0.376 N
ATOM      8  H4  UNL     1      53.719  20.159  -4.204  1.00  0.00     0.161 HD
HETATM    9  N8  UNL     1      52.057  19.483  -5.799  1.00  0.00    -0.177 N
ATOM     10  H8  UNL     1      52.285  20.477  -5.813  1.00  0.00     0.185 HD
ENDROOT
BRANCH   1  11
HETATM   11  N2  UNL     1      50.574  19.862  -7.450  1.00  0.00    -0.226 N
ATOM     12  H2  UNL     1      49.772  20.388  -7.103  1.00  0.00     0.177 HD
BRANCH  11  13
HETATM   13  C5  UNL     1      51.012  20.110  -8.795  1.00  0.00     0.139 C
BRANCH  13  14
HETATM   14  C4  UNL     1      50.233  19.247  -9.779  1.00  0.00     0.048 C
BRANCH  14  15
HETATM   15  C3  UNL     1      48.793  19.701  -9.906  1.00  0.00     0.243 C
BRANCH  15  16
HETATM   16  N1  UNL     1      48.256  19.251 -11.134  1.00  0.00    -0.054 N
HETATM   17  C1  UNL     1      48.784  17.930 -11.521  1.00  0.00     0.277 C
HETATM   18  C2  UNL     1      46.835  18.947 -10.811  1.00  0.00     0.277 C
BRANCH  16  19
HETATM   19  C18 UNL     1      48.171  20.114 -12.231  1.00  0.00     0.204 C
BRANCH  19  20
HETATM   20  C19 UNL     1      49.103  21.194 -12.511  1.00  0.00    -0.056 C
HETATM   21  C20 UNL     1      48.554  22.565 -12.743  1.00  0.00     0.040 C
HETATM   22  C21 UNL     1      49.636  23.559 -13.090  1.00  0.00    -0.010 C
HETATM   23  C22 UNL     1      50.797  23.501 -12.154  1.00  0.00     0.005 C
HETATM   24  C25 UNL     1      50.218  23.074 -14.427  1.00  0.00     0.010 C
HETATM   25  C23 UNL     1      51.779  22.524 -12.751  1.00  0.00     0.005 C
HETATM   26  C24 UNL     1      51.049  21.921 -13.930  1.00  0.00    -0.010 C
HETATM   27  C26 UNL     1      50.211  20.779 -13.413  1.00  0.00     0.040 C
ENDBRANCH  19  20
ENDBRANCH  16  19
ENDBRANCH  15  16
ENDBRANCH  14  15
ENDBRANCH  13  14
ENDBRANCH  11  13
ENDBRANCH   1  11
BRANCH   7  28
HETATM   28  C10 UNL     1      54.307  18.482  -3.124  1.00  0.00     0.121 C
BRANCH  28  29
HETATM   29  C11 UNL     1      54.748  19.487  -2.071  1.00  0.00     0.020 C
BRANCH  29  30
HETATM   30  C12 UNL     1      54.437  19.066  -0.672  1.00  0.00     0.002 C
BRANCH  30  31
HETATM   31  C13 UNL     1      52.994  18.678  -0.561  1.00  0.00     0.000 C
BRANCH  31  32
HETATM   32  C14 UNL     1      52.838  17.371   0.203  1.00  0.00     0.002 C
BRANCH  32  33
HETATM   33  C15 UNL     1      52.039  16.352  -0.589  1.00  0.00     0.020 C
BRANCH  33  34
HETATM   34  C16 UNL     1      52.992  15.736  -1.584  1.00  0.00     0.122 C
BRANCH  34  35
HETATM   35  N5  UNL     1      52.331  14.650  -2.262  1.00  0.00    -0.365 N
HETATM   36  C17 UNL     1      52.165  13.402  -1.639  1.00  0.00     0.181 C
HETATM   37  N6  UNL     1      51.073  13.044  -1.077  1.00  0.00    -0.374 N
HETATM   38  N7  UNL     1      53.247  12.485  -1.625  1.00  0.00    -0.064 NA
ATOM     39  H62 UNL     1      50.296  13.704  -1.086  1.00  0.00     0.158 HD
ATOM     40  H61 UNL     1      50.953  12.138  -0.625  1.00  0.00     0.158 HD
ATOM     41  H5  UNL     1      51.978  14.789  -3.208  1.00  0.00     0.162 HD
ENDBRANCH  34  35
ENDBRANCH  33  34
ENDBRANCH  32  33
ENDBRANCH  31  32
ENDBRANCH  30  31
ENDBRANCH  29  30
ENDBRANCH  28  29
ENDBRANCH   7  28
TORSDOF 15
ENDMDL