MODEL 4
REMARK VINA RESULT: -6.747215401      4.246     11.855
REMARK  13 active torsions:
REMARK  status: ('A' for Active; 'I' for Inactive)
REMARK       I    between atoms: N1_2  and  C3_4
REMARK    1  A    between atoms: N3_6  and  C4_8
REMARK    2  A    between atoms: C4_8  and  C5_12
REMARK       I    between atoms: N5_16  and  C9_17
REMARK    3  A    between atoms: C9_17  and  C10_19
REMARK    4  A    between atoms: C10_19  and  N6_20
REMARK    5  A    between atoms: N6_20  and  C11_23
REMARK    6  A    between atoms: C11_23  and  C12_24
REMARK    7  A    between atoms: C12_24  and  C13_25
REMARK    8  A    between atoms: C13_25  and  C14_26
REMARK    9  A    between atoms: C14_26  and  C15_27
REMARK   10  A    between atoms: C15_27  and  C16_28
REMARK   11  A    between atoms: C16_28  and  C17_29
REMARK   12  A    between atoms: C17_29  and  C18_30
REMARK   13  A    between atoms: C18_30  and  N7_31
REMARK       I    between atoms: N7_31  and  C19_33
REMARK       I    between atoms: C19_33  and  N9_37
ROOT
HETATM    1  N6  UNL     1      51.591  19.612  -6.174  1.00  0.00    -0.067 N
ATOM      2  H61 UNL     1      51.934  20.560  -6.328  1.00  0.00     0.277 HD
ATOM      3  H62 UNL     1      51.131  19.761  -5.277  1.00  0.00     0.277 HD
ENDROOT
BRANCH   1   4
HETATM    4  C10 UNL     1      52.662  18.668  -6.073  1.00  0.00     0.334 C
BRANCH   4   5
HETATM    5  C9  UNL     1      52.371  17.596  -5.076  1.00  0.00     0.246 C
HETATM    6  N5  UNL     1      52.898  17.717  -3.778  1.00  0.00    -0.339 N
HETATM    7  C5  UNL     1      52.692  16.768  -2.718  1.00  0.00     0.154 C
HETATM    8  C8  UNL     1      53.714  18.795  -3.300  1.00  0.00     0.127 C
HETATM    9  C6  UNL     1      53.263  17.402  -1.463  1.00  0.00     0.035 C
HETATM   10  C7  UNL     1      54.335  18.330  -2.014  1.00  0.00     0.022 C
HETATM   11  O1  UNL     1      51.654  16.628  -5.466  1.00  0.00    -0.272 OA
BRANCH   7  12
HETATM   12  C4  UNL     1      53.350  15.472  -2.945  1.00  0.00     0.100 C
HETATM   13  N4  UNL     1      54.592  15.253  -2.843  1.00  0.00    -0.387 N
ATOM     14  H42 UNL     1      55.048  14.355  -3.001  1.00  0.00     0.157 HD
ATOM     15  H41 UNL     1      55.182  16.043  -2.582  1.00  0.00     0.157 HD
BRANCH  12  16
HETATM   16  N3  UNL     1      52.514  14.353  -3.316  1.00  0.00    -0.319 N
HETATM   17  C3  UNL     1      52.209  13.496  -2.417  1.00  0.00     0.191 C
HETATM   18  N1  UNL     1      51.396  12.394  -2.747  1.00  0.00    -0.364 N
HETATM   19  N2  UNL     1      52.693  13.659  -1.096  1.00  0.00    -0.063 NA
HETATM   20  C1  UNL     1      50.754  11.630  -1.674  1.00  0.00     0.151 C
HETATM   21  C2  UNL     1      51.168  11.983  -4.130  1.00  0.00     0.151 C
ATOM     22  H3  UNL     1      52.175  14.249  -4.272  1.00  0.00     0.169 HD
ENDBRANCH  12  16
ENDBRANCH   7  12
ENDBRANCH   4   5
ENDBRANCH   1   4
BRANCH   1  23
HETATM   23  C11 UNL     1      50.666  19.212  -7.186  1.00  0.00     0.233 C
BRANCH  23  24
HETATM   24  C12 UNL     1      50.880  19.904  -8.476  1.00  0.00     0.027 C
BRANCH  24  25
HETATM   25  C13 UNL     1      50.140  21.150  -8.773  1.00  0.00     0.002 C
BRANCH  25  26
HETATM   26  C14 UNL     1      50.397  21.897 -10.003  1.00  0.00     0.000 C
BRANCH  26  27
HETATM   27  C15 UNL     1      51.191  21.265 -11.072  1.00  0.00     0.000 C
BRANCH  27  28
HETATM   28  C16 UNL     1      51.110  22.084 -12.359  1.00  0.00     0.002 C
BRANCH  28  29
HETATM   29  C17 UNL     1      50.415  23.386 -12.192  1.00  0.00     0.020 C
BRANCH  29  30
HETATM   30  C18 UNL     1      49.247  23.418 -13.169  1.00  0.00     0.138 C
BRANCH  30  31
HETATM   31  N7  UNL     1      48.068  22.947 -12.464  1.00  0.00    -0.227 N
HETATM   32  C19 UNL     1      47.176  21.992 -13.037  1.00  0.00     0.669 C
HETATM   33  N8  UNL     1      46.125  22.369 -13.695  1.00  0.00    -0.235 N
HETATM   34  N9  UNL     1      47.384  20.602 -12.916  1.00  0.00    -0.218 N
ATOM     35  H82 UNL     1      45.974  23.375 -13.781  1.00  0.00     0.174 HD
ATOM     36  H81 UNL     1      45.487  21.687 -14.104  1.00  0.00     0.174 HD
HETATM   37  C20 UNL     1      47.133  19.901 -11.685  1.00  0.00     0.141 C
HETATM   38  C24 UNL     1      47.862  19.862 -14.052  1.00  0.00     0.141 C
HETATM   39  C21 UNL     1      48.329  19.068 -11.268  1.00  0.00     0.020 C
HETATM   40  C22 UNL     1      48.948  18.347 -12.436  1.00  0.00     0.003 C
HETATM   41  C23 UNL     1      49.175  19.213 -13.634  1.00  0.00     0.020 C
ATOM     42  H7  UNL     1      47.872  23.310 -11.532  1.00  0.00     0.177 HD
ENDBRANCH  30  31
ENDBRANCH  29  30
ENDBRANCH  28  29
ENDBRANCH  27  28
ENDBRANCH  26  27
ENDBRANCH  25  26
ENDBRANCH  24  25
ENDBRANCH  23  24
ENDBRANCH   1  23
TORSDOF 13
ENDMDL