MODEL 5
REMARK VINA RESULT: -6.708365534      1.296      2.618
REMARK  14 active torsions:
REMARK  status: ('A' for Active; 'I' for Inactive)
REMARK       I    between atoms: C2_2  and  N1_4
REMARK    1  A    between atoms: N1_4  and  C3_6
REMARK    2  A    between atoms: C3_6  and  C4_7
REMARK    3  A    between atoms: C4_7  and  C5_8
REMARK    4  A    between atoms: C5_8  and  C6_9
REMARK    5  A    between atoms: C6_9  and  C7_10
REMARK    6  A    between atoms: C7_10  and  C8_11
REMARK    7  A    between atoms: C8_11  and  N2_12
REMARK       I    between atoms: N2_12  and  C9_14
REMARK       I    between atoms: C9_14  and  N4_18
REMARK    8  A    between atoms: N4_18  and  C10_20
REMARK    9  A    between atoms: C10_20  and  C11_21
REMARK   10  A    between atoms: C11_21  and  C12_22
REMARK   11  A    between atoms: C12_22  and  C13_23
REMARK   12  A    between atoms: C13_23  and  N5_24
REMARK   13  A    between atoms: N5_24  and  C14_26
REMARK   14  A    between atoms: C14_26  and  C15_28
ROOT
HETATM    1  C10 UNL     1      51.970  19.579  -6.378  1.00  0.00     0.138 C
ENDROOT
BRANCH   1   2
HETATM    2  N4  UNL     1      52.500  18.249  -6.054  1.00  0.00    -0.227 N
HETATM    3  C9  UNL     1      52.656  17.936  -4.676  1.00  0.00     0.667 C
HETATM    4  N2  UNL     1      53.897  17.434  -4.261  1.00  0.00    -0.227 N
HETATM    5  N3  UNL     1      51.653  18.125  -3.883  1.00  0.00    -0.235 N
ATOM      6  H2  UNL     1      54.694  18.059  -4.144  1.00  0.00     0.177 HD
ATOM      7  H32 UNL     1      51.764  17.900  -2.895  1.00  0.00     0.174 HD
ATOM      8  H31 UNL     1      50.750  18.490  -4.185  1.00  0.00     0.174 HD
ATOM      9  H4  UNL     1      52.746  17.581  -6.784  1.00  0.00     0.177 HD
BRANCH   4  10
HETATM   10  C8  UNL     1      54.033  16.005  -4.001  1.00  0.00     0.138 C
BRANCH  10  11
HETATM   11  C7  UNL     1      52.777  15.450  -3.434  1.00  0.00     0.024 C
BRANCH  11  12
HETATM   12  C6  UNL     1      52.927  14.806  -2.116  1.00  0.00     0.028 C
BRANCH  12  13
HETATM   13  C5  UNL     1      52.343  15.381  -0.900  1.00  0.00    -0.029 C
BRANCH  13  14
HETATM   14  C4  UNL     1      52.215  16.808  -0.671  1.00  0.00    -0.011 C
BRANCH  14  15
HETATM   15  C3  UNL     1      53.012  17.562   0.301  1.00  0.00     0.149 C
BRANCH  15  16
HETATM   16  N1  UNL     1      53.710  18.734  -0.122  1.00  0.00    -0.358 N
HETATM   17  C2  UNL     1      54.771  18.950  -0.982  1.00  0.00     0.213 C
HETATM   18  C1  UNL     1      55.279  20.363  -1.194  1.00  0.00     0.117 C
HETATM   19  O1  UNL     1      55.376  18.089  -1.620  1.00  0.00    -0.274 OA
ATOM     20  H1  UNL     1      53.350  19.590   0.298  1.00  0.00     0.162 HD
ENDBRANCH  15  16
ENDBRANCH  14  15
ENDBRANCH  13  14
ENDBRANCH  12  13
ENDBRANCH  11  12
ENDBRANCH  10  11
ENDBRANCH   4  10
ENDBRANCH   1   2
BRANCH   1  21
HETATM   21  C11 UNL     1      50.847  19.356  -7.341  1.00  0.00     0.022 C
BRANCH  21  22
HETATM   22  C12 UNL     1      51.156  19.955  -8.686  1.00  0.00     0.021 C
BRANCH  22  23
HETATM   23  C13 UNL     1      50.210  21.093  -8.953  1.00  0.00     0.120 C
BRANCH  23  24
HETATM   24  N5  UNL     1      49.057  20.701  -9.740  1.00  0.00    -0.384 N
ATOM     25  H5  UNL     1      48.141  21.058  -9.469  1.00  0.00     0.160 HD
BRANCH  24  26
HETATM   26  C14 UNL     1      49.142  19.858 -10.849  1.00  0.00     0.077 C
HETATM   27  S1  UNL     1      49.884  20.289 -12.205  1.00  0.00    -0.065 SA
BRANCH  26  28
HETATM   28  C15 UNL     1      48.496  18.496 -10.781  1.00  0.00     0.051 C
HETATM   29  C16 UNL     1      49.373  17.407 -11.268  1.00  0.00     0.045 C
HETATM   30  C17 UNL     1      49.349  16.147 -10.403  1.00  0.00     0.191 C
HETATM   31  C18 UNL     1      50.416  16.327  -9.413  1.00  0.00     0.033 C
HETATM   32  N6  UNL     1      48.029  15.918  -9.961  1.00  0.00    -0.066 N
HETATM   33  C19 UNL     1      50.387  15.660  -8.111  1.00  0.00     0.002 C
HETATM   34  C20 UNL     1      49.225  15.795  -7.245  1.00  0.00     0.002 C
HETATM   35  C21 UNL     1      48.121  16.694  -7.588  1.00  0.00     0.033 C
HETATM   36  C22 UNL     1      47.673  16.910  -8.974  1.00  0.00     0.191 C
HETATM   37  C23 UNL     1      47.890  18.320  -9.444  1.00  0.00     0.045 C
HETATM   38  C24 UNL     1      47.770  14.592  -9.433  1.00  0.00     0.273 C
HETATM   39  C25 UNL     1      47.078  16.064 -11.064  1.00  0.00     0.273 C
ENDBRANCH  26  28
ENDBRANCH  24  26
ENDBRANCH  23  24
ENDBRANCH  22  23
ENDBRANCH  21  22
ENDBRANCH   1  21
TORSDOF 14
ENDMDL