MODEL 2
REMARK VINA RESULT: -6.980883231      5.043      8.341
REMARK  14 active torsions:
REMARK  status: ('A' for Active; 'I' for Inactive)
REMARK    1  A    between atoms: C3_3  and  N1_4
REMARK    2  A    between atoms: N1_4  and  C4_6
REMARK    3  A    between atoms: C4_6  and  C5_10
REMARK    4  A    between atoms: C5_10  and  C6_11
REMARK    5  A    between atoms: C6_11  and  C7_12
REMARK    6  A    between atoms: C7_12  and  C8_13
REMARK    7  A    between atoms: C8_13  and  C9_14
REMARK    8  A    between atoms: C9_14  and  N3_15
REMARK       I    between atoms: N3_15  and  C10_17
REMARK       I    between atoms: C10_17  and  N4_19
REMARK    9  A    between atoms: C13_22  and  C14_23
REMARK   10  A    between atoms: C14_23  and  C15_24
REMARK   11  A    between atoms: C15_24  and  C16_25
REMARK   12  A    between atoms: C16_25  and  C17_26
REMARK       I    between atoms: C17_26  and  N5_28
REMARK   13  A    between atoms: N5_28  and  C18_30
REMARK   14  A    between atoms: C22_34  and  C23_35
REMARK       I    between atoms: C23_35  and  N6_37
ROOT
HETATM    1  C1  UNL     1      53.169  18.062   0.430  1.00  0.00     0.014 C
HETATM    2  C2  UNL     1      53.360  18.868  -0.450  1.00  0.00    -0.098 C
HETATM    3  C3  UNL     1      53.567  19.855  -1.518  1.00  0.00     0.214 C
ENDROOT
BRANCH   3   4
HETATM    4  N1  UNL     1      53.818  19.236  -2.797  1.00  0.00    -0.370 N
ATOM      5  H1  UNL     1      54.622  19.525  -3.353  1.00  0.00     0.161 HD
BRANCH   4   6
HETATM    6  C4  UNL     1      52.948  18.227  -3.282  1.00  0.00     0.071 C
HETATM    7  N2  UNL     1      51.678  18.456  -3.279  1.00  0.00    -0.389 N
ATOM      8  H22 UNL     1      51.272  19.331  -2.948  1.00  0.00     0.157 HD
ATOM      9  H21 UNL     1      51.053  17.730  -3.628  1.00  0.00     0.157 HD
BRANCH   6  10
HETATM   10  C5  UNL     1      53.534  16.964  -3.760  1.00  0.00     0.075 C
BRANCH  10  11
HETATM   11  C6  UNL     1      53.218  15.895  -2.721  1.00  0.00     0.007 C
BRANCH  11  12
HETATM   12  C7  UNL     1      54.201  14.773  -2.802  1.00  0.00     0.002 C
BRANCH  12  13
HETATM   13  C8  UNL     1      53.573  13.516  -3.381  1.00  0.00     0.020 C
BRANCH  13  14
HETATM   14  C9  UNL     1      53.987  13.280  -4.788  1.00  0.00     0.124 C
BRANCH  14  15
HETATM   15  N3  UNL     1      52.875  12.899  -5.600  1.00  0.00    -0.343 N
HETATM   16  C10 UNL     1      52.978  12.023  -6.690  1.00  0.00     0.318 C
HETATM   17  O1  UNL     1      54.149  11.560  -6.958  1.00  0.00    -0.247 OA
HETATM   18  N4  UNL     1      51.877  11.650  -7.473  1.00  0.00    -0.334 N
HETATM   19  C11 UNL     1      50.559  12.133  -7.230  1.00  0.00     0.128 C
HETATM   20  C26 UNL     1      52.056  10.744  -8.587  1.00  0.00     0.128 C
HETATM   21  C12 UNL     1      50.312  13.160  -8.355  1.00  0.00     0.024 C
HETATM   22  C13 UNL     1      50.855  12.639  -9.663  1.00  0.00    -0.012 C
HETATM   23  C25 UNL     1      51.060  11.168  -9.679  1.00  0.00     0.024 C
ATOM     24  H3  UNL     1      51.958  13.284  -5.376  1.00  0.00     0.164 HD
BRANCH  22  25
HETATM   25  C14 UNL     1      49.998  13.132 -10.771  1.00  0.00     0.005 C
BRANCH  25  26
HETATM   26  C15 UNL     1      50.536  14.374 -11.384  1.00  0.00     0.010 C
BRANCH  26  27
HETATM   27  C16 UNL     1      49.390  15.338 -11.671  1.00  0.00     0.103 C
BRANCH  27  28
HETATM   28  C17 UNL     1      49.455  16.497 -10.760  1.00  0.00     0.217 C
HETATM   29  O2  UNL     1      49.421  17.652 -11.250  1.00  0.00    -0.274 OA
HETATM   30  N5  UNL     1      49.554  16.344  -9.367  1.00  0.00    -0.356 N
ATOM     31  H5  UNL     1      49.586  15.400  -8.983  1.00  0.00     0.162 HD
BRANCH  30  32
HETATM   32  C18 UNL     1      49.612  17.471  -8.448  1.00  0.00     0.097 C
HETATM   33  C19 UNL     1      48.954  17.158  -7.154  1.00  0.00     0.026 C
HETATM   34  C20 UNL     1      50.019  17.204  -6.108  1.00  0.00     0.003 C
HETATM   35  C21 UNL     1      51.356  17.311  -6.765  1.00  0.00     0.016 C
HETATM   36  C22 UNL     1      51.013  17.887  -8.114  1.00  0.00     0.100 C
BRANCH  36  37
HETATM   37  C23 UNL     1      51.072  19.356  -8.170  1.00  0.00     0.223 C
HETATM   38  O3  UNL     1      51.873  19.978  -7.446  1.00  0.00    -0.273 OA
HETATM   39  N6  UNL     1      50.225  20.078  -9.035  1.00  0.00    -0.365 N
HETATM   40  C24 UNL     1      50.260  21.544  -9.105  1.00  0.00     0.149 C
ATOM     41  H6  UNL     1      49.570  19.568  -9.628  1.00  0.00     0.161 HD
ENDBRANCH  36  37
ENDBRANCH  30  32
ENDBRANCH  27  28
ENDBRANCH  26  27
ENDBRANCH  25  26
ENDBRANCH  22  25
ENDBRANCH  14  15
ENDBRANCH  13  14
ENDBRANCH  12  13
ENDBRANCH  11  12
ENDBRANCH  10  11
ENDBRANCH   6  10
ENDBRANCH   4   6
ENDBRANCH   3   4
TORSDOF 14
ENDMDL