MODEL 2
REMARK VINA RESULT: -7.777115829      1.903      4.405
REMARK  15 active torsions:
REMARK  status: ('A' for Active; 'I' for Inactive)
REMARK    1  A    between atoms: C1_2  and  C2_4
REMARK    2  A    between atoms: C2_4  and  C3_5
REMARK    3  A    between atoms: C3_5  and  C4_6
REMARK    4  A    between atoms: C4_6  and  C5_7
REMARK    5  A    between atoms: C5_7  and  C6_8
REMARK    6  A    between atoms: C6_8  and  N2_9
REMARK    7  A    between atoms: N2_9  and  C7_11
REMARK    8  A    between atoms: C7_11  and  N3_13
REMARK    9  A    between atoms: C11_17  and  C12_18
REMARK   10  A    between atoms: C12_18  and  N4_19
REMARK       I    between atoms: N4_19  and  C13_21
REMARK       I    between atoms: N6_23  and  C14_25
REMARK       I    between atoms: C14_25  and  N7_27
REMARK   11  A    between atoms: N7_27  and  C15_29
REMARK   12  A    between atoms: C15_29  and  C16_30
REMARK   13  A    between atoms: C16_30  and  C17_31
REMARK   14  A    between atoms: C17_31  and  C18_32
REMARK   15  A    between atoms: C18_32  and  C19_33
ROOT
HETATM    1  N4  UNL     1      50.202  20.869  -8.612  1.00  0.00    -0.362 N
ATOM      2  H4  UNL     1      50.226  21.808  -8.213  1.00  0.00     0.162 HD
HETATM    3  C13 UNL     1      50.944  19.831  -8.007  1.00  0.00     0.192 C
HETATM    4  N5  UNL     1      51.258  18.618  -8.698  1.00  0.00    -0.063 NA
HETATM    5  N6  UNL     1      51.369  19.948  -6.798  1.00  0.00    -0.283 N
ATOM      6  H6  UNL     1      51.166  20.798  -6.272  1.00  0.00     0.173 HD
HETATM    7  C14 UNL     1      52.115  18.907  -6.190  1.00  0.00     0.322 C
HETATM    8  O2  UNL     1      53.049  18.421  -6.887  1.00  0.00    -0.247 OA
HETATM    9  N7  UNL     1      51.784  18.484  -4.886  1.00  0.00    -0.343 N
ATOM     10  H7  UNL     1      51.008  18.932  -4.398  1.00  0.00     0.164 HD
ENDROOT
BRANCH   1  11
HETATM   11  C12 UNL     1      49.386  20.603  -9.828  1.00  0.00     0.147 C
BRANCH  11  12
HETATM   12  C11 UNL     1      49.731  21.674 -10.777  1.00  0.00     0.104 C
HETATM   13  N3  UNL     1      49.053  21.790 -12.034  1.00  0.00    -0.352 N
HETATM   14  C8  UNL     1      49.791  22.893 -12.679  1.00  0.00     0.126 C
HETATM   15  C9  UNL     1      51.241  22.709 -12.202  1.00  0.00     0.022 C
HETATM   16  C10 UNL     1      51.188  21.502 -11.289  1.00  0.00     0.028 C
BRANCH  13  17
HETATM   17  C7  UNL     1      47.971  21.100 -12.569  1.00  0.00     0.173 C
HETATM   18  S1  UNL     1      48.279  20.383 -14.072  1.00  0.00    -0.041 SA
BRANCH  17  19
HETATM   19  N2  UNL     1      46.668  20.869 -12.125  1.00  0.00    -0.347 N
ATOM     20  H2  UNL     1      45.988  21.469 -12.592  1.00  0.00     0.167 HD
BRANCH  19  21
HETATM   21  C6  UNL     1      46.064  20.009 -11.188  1.00  0.00     0.063 C
BRANCH  21  22
HETATM   22  C5  UNL     1      46.649  18.657 -10.996  1.00  0.00     0.044 C
BRANCH  22  23
HETATM   23  C4  UNL     1      46.371  18.093  -9.608  1.00  0.00     0.006 C
BRANCH  23  24
HETATM   24  C3  UNL     1      47.605  17.648  -8.912  1.00  0.00     0.009 C
BRANCH  24  25
HETATM   25  C2  UNL     1      47.332  16.422  -8.093  1.00  0.00     0.099 C
BRANCH  25  26
HETATM   26  C1  UNL     1      47.800  16.489  -6.699  1.00  0.00     0.231 C
HETATM   27  N1  UNL     1      49.177  16.790  -6.385  1.00  0.00    -0.062 NA
HETATM   28  O1  UNL     1      47.075  16.296  -5.689  1.00  0.00    -0.277 OA
ENDBRANCH  25  26
ENDBRANCH  24  25
ENDBRANCH  23  24
ENDBRANCH  22  23
ENDBRANCH  21  22
ENDBRANCH  19  21
ENDBRANCH  17  19
ENDBRANCH  13  17
ENDBRANCH  11  12
ENDBRANCH   1  11
BRANCH   9  29
HETATM   29  C15 UNL     1      52.519  17.431  -4.224  1.00  0.00     0.124 C
BRANCH  29  30
HETATM   30  C16 UNL     1      54.008  17.660  -4.185  1.00  0.00     0.020 C
BRANCH  30  31
HETATM   31  C17 UNL     1      54.336  18.821  -3.272  1.00  0.00     0.002 C
BRANCH  31  32
HETATM   32  C18 UNL     1      54.832  18.382  -1.937  1.00  0.00     0.005 C
BRANCH  32  33
HETATM   33  C19 UNL     1      54.468  19.270  -0.791  1.00  0.00    -0.014 C
HETATM   34  C20 UNL     1      54.393  18.529   0.521  1.00  0.00     0.004 C
HETATM   35  C21 UNL     1      53.024  17.882   0.553  1.00  0.00     0.000 C
HETATM   36  C22 UNL     1      52.233  18.486  -0.579  1.00  0.00     0.000 C
HETATM   37  C23 UNL     1      53.016  19.707  -1.009  1.00  0.00     0.004 C
ENDBRANCH  32  33
ENDBRANCH  31  32
ENDBRANCH  30  31
ENDBRANCH  29  30
ENDBRANCH   9  29
TORSDOF 15
ENDMDL