MODEL 2
REMARK VINA RESULT: -5.330842507      2.615      5.863
REMARK  15 active torsions:
REMARK  status: ('A' for Active; 'I' for Inactive)
REMARK    1  A    between atoms: C3_3  and  C4_4
REMARK    2  A    between atoms: C4_4  and  C5_5
REMARK    3  A    between atoms: N1_10  and  C10_11
REMARK    4  A    between atoms: C10_11  and  C11_12
REMARK    5  A    between atoms: C11_12  and  C12_13
REMARK    6  A    between atoms: C12_13  and  C13_14
REMARK    7  A    between atoms: C13_14  and  C14_15
REMARK    8  A    between atoms: C14_15  and  C15_16
REMARK    9  A    between atoms: C15_16  and  N2_17
REMARK   10  A    between atoms: C17_25  and  C18_26
REMARK   11  A    between atoms: C18_26  and  C19_27
REMARK   12  A    between atoms: C19_27  and  C20_28
REMARK   13  A    between atoms: C22_30  and  O2_31
REMARK   14  A    between atoms: C23_33  and  N4_34
REMARK       I    between atoms: N4_34  and  C24_36
REMARK       I    between atoms: C24_36  and  N5_38
REMARK   15  A    between atoms: N5_38  and  C25_40
ROOT
HETATM    1  C1  UNL     1      48.870  13.473 -12.022  1.00  0.00     0.112 C
HETATM    2  C2  UNL     1      48.947  14.168 -10.736  1.00  0.00    -0.108 C
HETATM    3  C3  UNL     1      48.994  14.757  -9.660  1.00  0.00    -0.066 C
ENDROOT
BRANCH   3   4
HETATM    4  C4  UNL     1      49.033  15.469  -8.419  1.00  0.00     0.208 C
HETATM    5  C7  UNL     1      47.975  15.058  -7.477  1.00  0.00     0.066 C
HETATM    6  C8  UNL     1      47.792  16.267  -6.576  1.00  0.00     0.039 C
HETATM    7  C23 UNL     1      46.778  14.334  -7.864  1.00  0.00     0.152 C
HETATM    8  C9  UNL     1      48.573  17.381  -7.211  1.00  0.00     0.252 C
HETATM    9  N1  UNL     1      48.946  16.885  -8.557  1.00  0.00     0.034 N
HETATM   10  C16 UNL     1      47.896  17.275  -9.370  1.00  0.00     0.421 C
HETATM   11  O1  UNL     1      48.160  18.430  -9.877  1.00  0.00    -0.239 OA
HETATM   12  N3  UNL     1      46.641  16.775  -9.791  1.00  0.00    -0.304 N
HETATM   13  C17 UNL     1      45.501  16.056  -9.294  1.00  0.00     0.044 C
ATOM     14  H3  UNL     1      46.497  16.999 -10.776  1.00  0.00     0.170 HD
HETATM   15  C22 UNL     1      45.716  14.719  -8.742  1.00  0.00     0.089 C
BRANCH   4  16
HETATM   16  C5  UNL     1      50.398  15.119  -7.768  1.00  0.00     0.050 C
HETATM   17  C6  UNL     1      50.266  13.644  -7.382  1.00  0.00     0.009 C
ENDBRANCH   4  16
BRANCH   9  18
HETATM   18  C10 UNL     1      50.168  17.576  -8.866  1.00  0.00     0.252 C
BRANCH  18  19
HETATM   19  C11 UNL     1      50.813  18.382  -7.828  1.00  0.00     0.029 C
BRANCH  19  20
HETATM   20  C12 UNL     1      51.393  19.716  -8.360  1.00  0.00     0.002 C
BRANCH  20  21
HETATM   21  C13 UNL     1      50.320  20.745  -8.454  1.00  0.00     0.002 C
BRANCH  21  22
HETATM   22  C14 UNL     1      50.281  21.576  -9.677  1.00  0.00     0.027 C
BRANCH  22  23
HETATM   23  C15 UNL     1      50.957  21.037 -10.887  1.00  0.00     0.229 C
BRANCH  23  24
HETATM   24  N2  UNL     1      50.217  20.101 -11.663  1.00  0.00    -0.079 N
ATOM     25  H23 UNL     1      49.711  19.467 -11.045  1.00  0.00     0.274 HD
ATOM     26  H22 UNL     1      49.439  20.575 -12.121  1.00  0.00     0.274 HD
ATOM     27  H21 UNL     1      50.745  19.563 -12.350  1.00  0.00     0.274 HD
ENDBRANCH  23  24
ENDBRANCH  22  23
ENDBRANCH  21  22
ENDBRANCH  20  21
ENDBRANCH  19  20
ENDBRANCH  18  19
ENDBRANCH   9  18
BRANCH  13  28
HETATM   28  C18 UNL     1      44.544  16.964  -8.549  1.00  0.00     0.060 C
BRANCH  28  29
HETATM   29  C19 UNL     1      43.257  17.260  -9.247  1.00  0.00     0.006 C
BRANCH  29  30
HETATM   30  C20 UNL     1      42.067  16.729  -8.422  1.00  0.00    -0.004 C
HETATM   31  C21 UNL     1      42.556  15.968  -7.209  1.00  0.00     0.005 C
ENDBRANCH  29  30
ENDBRANCH  28  29
ENDBRANCH  13  28
BRANCH  15  32
HETATM   32  O2  UNL     1      45.554  13.729  -9.785  1.00  0.00    -0.361 OA
ATOM     33  H2  UNL     1      45.543  12.860  -9.403  1.00  0.00     0.217 HD
ENDBRANCH  15  32
BRANCH   7  34
HETATM   34  N4  UNL     1      46.193  13.967  -6.543  1.00  0.00    -0.332 N
HETATM   35  C24 UNL     1      46.519  12.823  -5.827  1.00  0.00     0.317 C
HETATM   36  O3  UNL     1      47.356  12.010  -6.280  1.00  0.00    -0.247 OA
HETATM   37  N5  UNL     1      45.916  12.557  -4.583  1.00  0.00    -0.339 N
ATOM     38  H5  UNL     1      45.236  13.229  -4.228  1.00  0.00     0.164 HD
ATOM     39  H4  UNL     1      45.504  14.601  -6.136  1.00  0.00     0.165 HD
BRANCH  37  40
HETATM   40  C25 UNL     1      46.202  11.388  -3.778  1.00  0.00     0.086 A
HETATM   41  C26 UNL     1      45.827  11.373  -2.322  1.00  0.00     0.027 A
HETATM   42  C27 UNL     1      47.273  11.434  -2.747  1.00  0.00     0.027 A
ENDBRANCH  37  40
ENDBRANCH   7  34
ENDBRANCH   3   4
TORSDOF 15
ENDMDL