MODEL 3
REMARK VINA RESULT: -7.712602180      3.327      9.849
REMARK  14 active torsions:
REMARK  status: ('A' for Active; 'I' for Inactive)
REMARK       I    between atoms: C1_4  and  N3_6
REMARK    1  A    between atoms: N3_6  and  C2_8
REMARK    2  A    between atoms: C2_8  and  C3_9
REMARK    3  A    between atoms: C3_9  and  C4_10
REMARK    4  A    between atoms: C4_10  and  C5_11
REMARK    5  A    between atoms: C5_11  and  C6_12
REMARK    6  A    between atoms: C6_12  and  C7_13
REMARK    7  A    between atoms: C7_13  and  C8_14
REMARK    8  A    between atoms: C8_14  and  C9_15
REMARK       I    between atoms: C9_15  and  N4_17
REMARK    9  A    between atoms: N4_17  and  C10_19
REMARK   10  A    between atoms: C10_19  and  C11_20
REMARK   11  A    between atoms: C11_20  and  C12_21
REMARK   12  A    between atoms: C12_21  and  C13_22
REMARK   13  A    between atoms: C13_22  and  N5_23
REMARK       I    between atoms: N5_23  and  C14_25
REMARK       I    between atoms: C14_25  and  N6_27
REMARK       I    between atoms: N7_30  and  C17_31
REMARK   14  A    between atoms: C17_31  and  C18_33
ROOT
HETATM    1  C11 UNL     1      53.127  13.058  -5.521  1.00  0.00     0.021 C
ENDROOT
BRANCH   1   2
HETATM    2  C10 UNL     1      52.363  13.239  -4.255  1.00  0.00     0.122 C
BRANCH   2   3
HETATM    3  N4  UNL     1      52.612  14.533  -3.690  1.00  0.00    -0.361 N
HETATM    4  C9  UNL     1      52.799  14.784  -2.303  1.00  0.00     0.217 C
HETATM    5  O1  UNL     1      52.748  13.804  -1.530  1.00  0.00    -0.274 OA
ATOM      6  H4  UNL     1      52.659  15.328  -4.327  1.00  0.00     0.162 HD
BRANCH   4   7
HETATM    7  C8  UNL     1      53.042  16.130  -1.777  1.00  0.00     0.103 C
BRANCH   7   8
HETATM    8  C7  UNL     1      52.218  16.412  -0.558  1.00  0.00     0.009 C
BRANCH   8   9
HETATM    9  C6  UNL     1      52.288  17.857  -0.205  1.00  0.00     0.000 C
BRANCH   9  10
HETATM   10  C5  UNL     1      53.475  18.111   0.742  1.00  0.00     0.000 C
BRANCH  10  11
HETATM   11  C4  UNL     1      54.598  18.687  -0.018  1.00  0.00     0.002 C
BRANCH  11  12
HETATM   12  C3  UNL     1      54.311  19.839  -0.912  1.00  0.00     0.020 C
BRANCH  12  13
HETATM   13  C2  UNL     1      54.519  19.608  -2.360  1.00  0.00     0.122 C
BRANCH  13  14
HETATM   14  N3  UNL     1      53.354  19.307  -3.128  1.00  0.00    -0.365 N
HETATM   15  C1  UNL     1      53.520  18.739  -4.423  1.00  0.00     0.181 C
HETATM   16  N1  UNL     1      52.655  18.919  -5.356  1.00  0.00    -0.374 N
HETATM   17  N2  UNL     1      54.651  17.947  -4.719  1.00  0.00    -0.064 NA
ATOM     18  H12 UNL     1      52.775  18.511  -6.283  1.00  0.00     0.158 HD
ATOM     19  H11 UNL     1      51.838  19.491  -5.142  1.00  0.00     0.158 HD
ATOM     20  H3  UNL     1      52.423  19.496  -2.757  1.00  0.00     0.162 HD
ENDBRANCH  13  14
ENDBRANCH  12  13
ENDBRANCH  11  12
ENDBRANCH  10  11
ENDBRANCH   9  10
ENDBRANCH   8   9
ENDBRANCH   7   8
ENDBRANCH   4   7
ENDBRANCH   2   3
ENDBRANCH   1   2
BRANCH   1  21
HETATM   21  C12 UNL     1      52.298  12.464  -6.654  1.00  0.00     0.021 C
BRANCH  21  22
HETATM   22  C13 UNL     1      50.937  13.062  -6.752  1.00  0.00     0.124 C
BRANCH  22  23
HETATM   23  N5  UNL     1      50.913  14.437  -7.183  1.00  0.00    -0.343 N
HETATM   24  C14 UNL     1      50.066  14.945  -8.199  1.00  0.00     0.318 C
HETATM   25  O2  UNL     1      49.291  14.086  -8.750  1.00  0.00    -0.247 OA
HETATM   26  N6  UNL     1      50.039  16.303  -8.615  1.00  0.00    -0.331 N
HETATM   27  C15 UNL     1      49.114  16.666  -9.668  1.00  0.00     0.147 C
HETATM   28  C25 UNL     1      50.894  17.265  -8.006  1.00  0.00     0.147 C
HETATM   29  C16 UNL     1      49.695  17.852 -10.412  1.00  0.00     0.145 C
HETATM   30  N7  UNL     1      50.145  18.906  -9.571  1.00  0.00    -0.349 N
HETATM   31  C17 UNL     1      50.484  20.171 -10.098  1.00  0.00     0.224 C
HETATM   32  C24 UNL     1      50.255  18.660  -8.148  1.00  0.00     0.145 C
HETATM   33  O3  UNL     1      50.896  21.075  -9.279  1.00  0.00    -0.273 OA
ATOM     34  H5  UNL     1      51.549  15.089  -6.726  1.00  0.00     0.164 HD
BRANCH  31  35
HETATM   35  C18 UNL     1      50.412  20.574 -11.517  1.00  0.00     0.078 C
HETATM   36  C19 UNL     1      51.258  21.807 -11.735  1.00  0.00     0.014 C
HETATM   37  C20 UNL     1      51.337  22.011 -13.247  1.00  0.00     0.001 C
HETATM   38  C21 UNL     1      49.949  22.362 -13.768  1.00  0.00     0.000 C
HETATM   39  C22 UNL     1      48.921  22.163 -12.661  1.00  0.00     0.001 C
HETATM   40  C23 UNL     1      49.033  20.815 -12.010  1.00  0.00     0.014 C
ENDBRANCH  31  35
ENDBRANCH  22  23
ENDBRANCH  21  22
ENDBRANCH   1  21
TORSDOF 14
ENDMDL