MODEL 4
REMARK VINA RESULT: -6.844803398      5.513     11.261
REMARK  15 active torsions:
REMARK  status: ('A' for Active; 'I' for Inactive)
REMARK    1  A    between atoms: N3_7  and  C5_8
REMARK    2  A    between atoms: N3_7  and  C17_27
REMARK    3  A    between atoms: C5_8  and  C6_9
REMARK    4  A    between atoms: C6_9  and  C7_10
REMARK    5  A    between atoms: C8_11  and  C9_12
REMARK    6  A    between atoms: C9_12  and  C10_13
REMARK    7  A    between atoms: C10_13  and  C11_14
REMARK    8  A    between atoms: C11_14  and  C12_15
REMARK    9  A    between atoms: C12_15  and  C13_16
REMARK   10  A    between atoms: C13_16  and  C14_17
REMARK       I    between atoms: C14_17  and  N4_19
REMARK   11  A    between atoms: N4_19  and  C15_21
REMARK   12  A    between atoms: C15_21  and  C16_22
REMARK   13  A    between atoms: C16_22  and  N5_23
REMARK   14  A    between atoms: C17_27  and  C18_28
REMARK   15  A    between atoms: C20_32  and  N7_33
ROOT
HETATM    1  C1  UNL     1      52.392  10.840  -1.747  1.00  0.00     0.146 C
HETATM    2  N1  UNL     1      53.346  11.424  -2.620  1.00  0.00    -0.121 NA
HETATM    3  C2  UNL     1      54.633  10.950  -2.302  1.00  0.00     0.358 C
HETATM    4  N2  UNL     1      55.725  11.459  -3.087  1.00  0.00    -0.047 N
HETATM    5  C3  UNL     1      55.693  12.899  -2.914  1.00  0.00     0.269 C
HETATM    6  C4  UNL     1      54.364  13.355  -3.483  1.00  0.00     0.287 C
HETATM    7  N3  UNL     1      53.218  12.782  -2.862  1.00  0.00     0.008 N
HETATM    8  C21 UNL     1      55.876  10.962  -4.416  1.00  0.00     0.246 C
HETATM    9  C22 UNL     1      56.959   9.997  -3.976  1.00  0.00     0.043 C
HETATM   10  C23 UNL     1      58.233  10.245  -4.724  1.00  0.00     0.008 C
HETATM   11  C24 UNL     1      58.606  11.660  -4.348  1.00  0.00     0.002 C
HETATM   12  C25 UNL     1      58.202  11.699  -2.897  1.00  0.00     0.034 C
HETATM   13  C26 UNL     1      56.984  10.838  -2.741  1.00  0.00     0.197 C
ENDROOT
BRANCH   7  14
HETATM   14  C5  UNL     1      52.849  13.465  -1.614  1.00  0.00     0.287 C
BRANCH  14  15
HETATM   15  C6  UNL     1      52.766  14.918  -1.675  1.00  0.00     0.003 C
BRANCH  15  16
HETATM   16  C7  UNL     1      52.212  15.740  -0.592  1.00  0.00    -0.003 C
HETATM   17  C8  UNL     1      52.122  17.181  -0.621  1.00  0.00    -0.004 C
BRANCH  17  18
HETATM   18  C9  UNL     1      53.265  18.083  -0.646  1.00  0.00    -0.027 C
BRANCH  18  19
HETATM   19  C10 UNL     1      53.378  19.234  -1.547  1.00  0.00     0.027 C
BRANCH  19  20
HETATM   20  C11 UNL     1      54.404  19.234  -2.585  1.00  0.00     0.004 C
BRANCH  20  21
HETATM   21  C12 UNL     1      54.135  18.242  -3.712  1.00  0.00     0.010 C
BRANCH  21  22
HETATM   22  C13 UNL     1      52.686  18.156  -4.083  1.00  0.00     0.103 C
BRANCH  22  23
HETATM   23  C14 UNL     1      52.500  18.651  -5.470  1.00  0.00     0.217 C
HETATM   24  O1  UNL     1      53.438  18.559  -6.305  1.00  0.00    -0.274 OA
HETATM   25  N4  UNL     1      51.282  19.230  -5.882  1.00  0.00    -0.359 N
ATOM     26  H4  UNL     1      50.510  19.307  -5.221  1.00  0.00     0.162 HD
BRANCH  25  27
HETATM   27  C15 UNL     1      51.122  19.709  -7.220  1.00  0.00     0.150 C
BRANCH  27  28
HETATM   28  C16 UNL     1      50.332  18.730  -8.083  1.00  0.00     0.249 C
BRANCH  28  29
HETATM   29  N5  UNL     1      51.182  17.656  -8.531  1.00  0.00    -0.078 N
ATOM     30  H53 UNL     1      52.152  17.957  -8.629  1.00  0.00     0.274 HD
ATOM     31  H52 UNL     1      51.315  16.949  -7.808  1.00  0.00     0.274 HD
ATOM     32  H51 UNL     1      50.820  17.254  -9.396  1.00  0.00     0.274 HD
ENDBRANCH  28  29
ENDBRANCH  27  28
ENDBRANCH  25  27
ENDBRANCH  22  23
ENDBRANCH  21  22
ENDBRANCH  20  21
ENDBRANCH  19  20
ENDBRANCH  18  19
ENDBRANCH  17  18
ENDBRANCH  15  16
ENDBRANCH  14  15
ENDBRANCH   7  14
BRANCH   7  33
HETATM   33  C17 UNL     1      52.041  12.925  -3.709  1.00  0.00     0.318 C
BRANCH  33  34
HETATM   34  C18 UNL     1      52.198  12.566  -5.105  1.00  0.00     0.070 A
HETATM   35  C19 UNL     1      51.777  13.294  -6.198  1.00  0.00     0.133 A
HETATM   36  N6  UNL     1      52.088  12.645  -7.311  1.00  0.00    -0.200 N
HETATM   37  C20 UNL     1      52.704  11.508  -6.980  1.00  0.00     0.676 A
ATOM     38  H6  UNL     1      51.891  12.961  -8.261  1.00  0.00     0.183 HD
HETATM   39  N8  UNL     1      52.768  11.467  -5.640  1.00  0.00    -0.193 N
ATOM     40  H8  UNL     1      53.188  10.710  -5.101  1.00  0.00     0.184 HD
BRANCH  37  41
HETATM   41  N7  UNL     1      53.171  10.581  -7.767  1.00  0.00    -0.234 N
ATOM     42  H72 UNL     1      54.120  10.567  -8.140  1.00  0.00     0.174 HD
ATOM     43  H71 UNL     1      52.696   9.753  -8.124  1.00  0.00     0.174 HD
ENDBRANCH  37  41
ENDBRANCH  33  34
ENDBRANCH   7  33
TORSDOF 15
ENDMDL