MODEL 3
REMARK VINA RESULT: -7.546206164      1.056      1.594
REMARK  17 active torsions:
REMARK  status: ('A' for Active; 'I' for Inactive)
REMARK       I    between atoms: C1_4  and  N3_6
REMARK    1  A    between atoms: C5_10  and  C6_11
REMARK    2  A    between atoms: C6_11  and  O1_12
REMARK    3  A    between atoms: C6_11  and  N4_14
REMARK    4  A    between atoms: N4_14  and  C7_17
REMARK    5  A    between atoms: C7_17  and  C8_18
REMARK    6  A    between atoms: C8_18  and  C9_19
REMARK    7  A    between atoms: C9_19  and  C10_20
REMARK    8  A    between atoms: C10_20  and  O2_21
REMARK    9  A    between atoms: C10_20  and  N5_23
REMARK   10  A    between atoms: N5_23  and  C11_24
REMARK   11  A    between atoms: C11_24  and  C12_25
REMARK   12  A    between atoms: C12_25  and  C13_26
REMARK   13  A    between atoms: C13_26  and  C14_27
REMARK       I    between atoms: C14_27  and  N6_29
REMARK   14  A    between atoms: N6_29  and  C15_30
REMARK   15  A    between atoms: C15_30  and  C16_31
REMARK   16  A    between atoms: C16_31  and  C17_32
REMARK   17  A    between atoms: C17_32  and  C18_33
ROOT
HETATM    1  C10 UNL     1      51.089  19.595  -8.484  1.00  0.00     0.183 C
ENDROOT
BRANCH   1   2
HETATM    2  C9  UNL     1      50.673  18.206  -8.242  1.00  0.00     0.101 C
BRANCH   2   3
HETATM    3  C8  UNL     1      50.231  18.178  -6.753  1.00  0.00     0.036 C
BRANCH   3   4
HETATM    4  C7  UNL     1      51.037  17.348  -5.872  1.00  0.00     0.236 C
BRANCH   4   5
HETATM    5  N4  UNL     1      51.860  18.427  -5.090  1.00  0.00    -0.047 N
ATOM      6  H42 UNL     1      51.492  18.553  -4.147  1.00  0.00     0.280 HD
ATOM      7  H41 UNL     1      51.684  19.360  -5.464  1.00  0.00     0.280 HD
BRANCH   5   8
HETATM    8  C6  UNL     1      53.242  18.149  -5.058  1.00  0.00     0.341 C
BRANCH   8   9
HETATM    9  C5  UNL     1      53.939  17.451  -4.002  1.00  0.00     0.143 C
HETATM   10  N3  UNL     1      53.627  17.785  -2.654  1.00  0.00    -0.347 N
HETATM   11  C1  UNL     1      53.871  19.015  -1.998  1.00  0.00     0.184 C
HETATM   12  C2  UNL     1      53.057  16.633  -1.952  1.00  0.00     0.126 C
HETATM   13  N1  UNL     1      55.020  19.571  -2.076  1.00  0.00    -0.374 N
HETATM   14  N2  UNL     1      52.813  19.672  -1.248  1.00  0.00    -0.064 NA
ATOM     15  H12 UNL     1      55.196  20.458  -1.603  1.00  0.00     0.158 HD
ATOM     16  H11 UNL     1      55.763  19.110  -2.602  1.00  0.00     0.158 HD
HETATM   17  C3  UNL     1      53.776  15.480  -2.688  1.00  0.00     0.022 C
HETATM   18  C4  UNL     1      53.619  15.934  -4.109  1.00  0.00     0.031 C
ENDBRANCH   8   9
BRANCH   8  19
HETATM   19  O1  UNL     1      53.948  18.562  -6.088  1.00  0.00    -0.368 OA
ATOM     20  H1  UNL     1      54.336  19.428  -6.039  1.00  0.00     0.212 HD
ENDBRANCH   8  19
ENDBRANCH   5   8
ENDBRANCH   4   5
ENDBRANCH   3   4
ENDBRANCH   2   3
ENDBRANCH   1   2
BRANCH   1  21
HETATM   21  O2  UNL     1      52.439  19.644  -8.153  1.00  0.00    -0.339 OA
ATOM     22  H2  UNL     1      52.762  20.459  -8.521  1.00  0.00     0.220 HD
ENDBRANCH   1  21
BRANCH   1  23
HETATM   23  N5  UNL     1      50.667  20.733  -8.901  1.00  0.00    -0.429 NA
BRANCH  23  24
HETATM   24  C11 UNL     1      50.198  21.994  -9.362  1.00  0.00     0.221 C
BRANCH  24  25
HETATM   25  C12 UNL     1      50.340  21.938 -10.863  1.00  0.00     0.044 C
BRANCH  25  26
HETATM   26  C13 UNL     1      51.631  21.607 -11.479  1.00  0.00     0.121 C
BRANCH  26  27
HETATM   27  C14 UNL     1      51.713  22.552 -12.761  1.00  0.00     0.286 C
HETATM   28  O3  UNL     1      52.624  23.436 -12.610  1.00  0.00    -0.258 OA
HETATM   29  N6  UNL     1      50.866  22.298 -13.719  1.00  0.00    -0.415 NA
BRANCH  29  30
HETATM   30  C15 UNL     1      49.955  22.041 -14.769  1.00  0.00     0.221 C
BRANCH  30  31
HETATM   31  C16 UNL     1      48.843  21.073 -14.356  1.00  0.00     0.034 C
BRANCH  31  32
HETATM   32  C17 UNL     1      49.521  19.812 -13.907  1.00  0.00     0.012 C
BRANCH  32  33
HETATM   33  C18 UNL     1      48.692  18.937 -13.064  1.00  0.00    -0.036 C
HETATM   34  C19 UNL     1      48.277  17.618 -13.651  1.00  0.00     0.014 C
HETATM   35  C20 UNL     1      47.018  17.339 -12.829  1.00  0.00    -0.013 C
HETATM   36  C21 UNL     1      47.406  17.104 -11.394  1.00  0.00     0.009 C
HETATM   37  C25 UNL     1      46.304  18.690 -12.996  1.00  0.00     0.010 C
HETATM   38  C22 UNL     1      48.274  18.232 -10.878  1.00  0.00    -0.013 C
HETATM   39  C23 UNL     1      47.491  19.525 -11.040  1.00  0.00     0.010 C
HETATM   40  C26 UNL     1      49.450  18.552 -11.771  1.00  0.00     0.014 C
HETATM   41  C24 UNL     1      47.418  19.606 -12.544  1.00  0.00    -0.005 C
ENDBRANCH  32  33
ENDBRANCH  31  32
ENDBRANCH  30  31
ENDBRANCH  29  30
ENDBRANCH  26  27
ENDBRANCH  25  26
ENDBRANCH  24  25
ENDBRANCH  23  24
ENDBRANCH   1  23
TORSDOF 17
ENDMDL