MODEL 2
REMARK VINA RESULT: -7.588662118      1.526      2.850
REMARK  14 active torsions:
REMARK  status: ('A' for Active; 'I' for Inactive)
REMARK    1  A    between atoms: C2_2  and  C3_3
REMARK    2  A    between atoms: C3_3  and  C4_4
REMARK    3  A    between atoms: C4_4  and  C5_5
REMARK    4  A    between atoms: C5_5  and  C6_6
REMARK    5  A    between atoms: C6_6  and  C7_7
REMARK    6  A    between atoms: C7_7  and  C8_8
REMARK       I    between atoms: C8_8  and  N1_10
REMARK    7  A    between atoms: N1_10  and  C9_11
REMARK    8  A    between atoms: C9_11  and  C10_12
REMARK    9  A    between atoms: C10_12  and  C11_13
REMARK   10  A    between atoms: C11_13  and  C12_14
REMARK   11  A    between atoms: C12_14  and  C13_15
REMARK   12  A    between atoms: C13_15  and  C14_16
REMARK   13  A    between atoms: C14_16  and  N6_35
REMARK       I    between atoms: N2_17  and  C15_19
REMARK       I    between atoms: C15_19  and  N5_31
REMARK       I    between atoms: N3_20  and  C16_22
REMARK       I    between atoms: C16_22  and  N4_24
REMARK   14  A    between atoms: N5_31  and  C23_33
REMARK       I    between atoms: N6_35  and  C25_37
ROOT
HETATM    1  C14 UNL     1      51.802  17.745  -5.282  1.00  0.00     0.099 C
HETATM    2  N2  UNL     1      51.426  16.563  -5.388  1.00  0.00    -0.180 N
ATOM      3  H2  UNL     1      51.044  16.363  -4.463  1.00  0.00     0.185 HD
HETATM    4  C15 UNL     1      51.247  15.429  -6.029  1.00  0.00     0.683 C
HETATM    5  N3  UNL     1      51.952  14.359  -5.685  1.00  0.00    -0.141 N
ATOM      6  H3  UNL     1      51.819  13.475  -6.178  1.00  0.00     0.189 HD
HETATM    7  C16 UNL     1      52.874  14.451  -4.648  1.00  0.00     0.337 C
HETATM    8  O2  UNL     1      53.735  15.405  -4.760  1.00  0.00    -0.246 OA
HETATM    9  N4  UNL     1      52.940  13.606  -3.520  1.00  0.00    -0.325 N
HETATM   10  C17 UNL     1      53.917  13.659  -2.459  1.00  0.00     0.137 C
HETATM   11  C18 UNL     1      53.676  12.382  -1.677  1.00  0.00     0.028 C
HETATM   12  C19 UNL     1      52.439  12.600  -0.916  1.00  0.00    -0.022 C
HETATM   13  C20 UNL     1      51.464  12.691  -1.821  1.00  0.00    -0.005 C
HETATM   14  C21 UNL     1      52.046  12.532  -3.192  1.00  0.00     0.112 C
HETATM   15  C22 UNL     1      53.124  11.491  -2.811  1.00  0.00     0.039 C
HETATM   16  N5  UNL     1      50.348  15.129  -7.117  1.00  0.00    -0.226 N
ATOM     17  H5  UNL     1      49.491  15.668  -7.244  1.00  0.00     0.177 HD
ENDROOT
BRANCH   1  18
HETATM   18  C13 UNL     1      52.420  18.475  -6.412  1.00  0.00     0.077 C
BRANCH  18  19
HETATM   19  C12 UNL     1      51.607  19.593  -6.904  1.00  0.00     0.007 C
BRANCH  19  20
HETATM   20  C11 UNL     1      50.359  19.373  -7.648  1.00  0.00     0.003 C
BRANCH  20  21
HETATM   21  C10 UNL     1      50.395  18.233  -8.647  1.00  0.00     0.033 C
BRANCH  21  22
HETATM   22  C9  UNL     1      48.917  17.863  -9.023  1.00  0.00     0.221 C
BRANCH  22  23
HETATM   23  N1  UNL     1      48.463  18.583 -10.075  1.00  0.00    -0.415 NA
HETATM   24  C8  UNL     1      48.003  19.301 -11.123  1.00  0.00     0.289 C
HETATM   25  O1  UNL     1      46.808  19.630 -11.327  1.00  0.00    -0.257 OA
BRANCH  24  26
HETATM   26  C7  UNL     1      48.939  19.787 -12.202  1.00  0.00     0.146 C
BRANCH  26  27
HETATM   27  C6  UNL     1      50.290  20.102 -11.771  1.00  0.00    -0.016 C
BRANCH  27  28
HETATM   28  C5  UNL     1      50.741  21.206 -10.963  1.00  0.00    -0.004 C
BRANCH  28  29
HETATM   29  C4  UNL     1      50.558  22.629 -11.127  1.00  0.00    -0.004 C
BRANCH  29  30
HETATM   30  C3  UNL     1      51.100  23.487 -12.167  1.00  0.00    -0.027 C
BRANCH  30  31
HETATM   31  C2  UNL     1      52.140  23.114 -13.127  1.00  0.00     0.022 C
HETATM   32  C1  UNL     1      51.652  22.522 -14.433  1.00  0.00     0.009 C
ENDBRANCH  30  31
ENDBRANCH  29  30
ENDBRANCH  28  29
ENDBRANCH  27  28
ENDBRANCH  26  27
ENDBRANCH  24  26
ENDBRANCH  22  23
ENDBRANCH  21  22
ENDBRANCH  20  21
ENDBRANCH  19  20
ENDBRANCH  18  19
ENDBRANCH   1  18
BRANCH   1  33
HETATM   33  N6  UNL     1      51.647  18.347  -3.995  1.00  0.00    -0.320 N
HETATM   34  C25 UNL     1      52.663  18.492  -3.035  1.00  0.00     0.187 C
HETATM   35  N7  UNL     1      53.744  19.127  -3.137  1.00  0.00    -0.373 N
HETATM   36  N8  UNL     1      52.440  17.840  -1.762  1.00  0.00    -0.064 NA
ATOM     37  H72 UNL     1      53.902  19.587  -4.034  1.00  0.00     0.158 HD
ATOM     38  H71 UNL     1      54.482  19.232  -2.441  1.00  0.00     0.158 HD
ATOM     39  H6  UNL     1      50.722  18.701  -3.752  1.00  0.00     0.169 HD
ENDBRANCH   1  33
BRANCH  16  40
HETATM   40  C23 UNL     1      50.679  14.053  -8.026  1.00  0.00     0.133 C
HETATM   41  C24 UNL     1      50.462  14.471  -9.459  1.00  0.00     0.027 C
ENDBRANCH  16  40
TORSDOF 14
ENDMDL