MODEL 2
REMARK VINA RESULT: -5.046283152      0.942      1.249
REMARK  1 active torsions:
REMARK  status: ('A' for Active; 'I' for Inactive)
REMARK       I    between atoms: N1_2  and  C2_4
REMARK    1  A    between atoms: C2_4  and  C3_6
ROOT
HETATM    1  C3  UNL     1      28.433  14.085  17.944  1.00  0.00     0.100 A
HETATM    2  C4  UNL     1      27.780  13.771  19.131  1.00  0.00     0.036 A
HETATM    3  C5  UNL     1      27.569  12.413  19.145  1.00  0.00     0.019 A
HETATM    4  C6  UNL     1      28.086  11.891  17.982  1.00  0.00     0.088 A
HETATM    5  N2  UNL     1      28.592  12.923  17.293  1.00  0.00    -0.361 N
ATOM      6  H2  UNL     1      29.043  12.836  16.381  1.00  0.00     0.165 HD
ENDROOT
BRANCH   1   7
HETATM    7  C2  UNL     1      28.853  15.403  17.508  1.00  0.00     0.271 C
HETATM    8  N1  UNL     1      28.489  15.850  16.219  1.00  0.00    -0.342 N
HETATM    9  C1  UNL     1      29.271  15.848  15.208  1.00  0.00     0.121 C
ATOM     10  H1  UNL     1      27.539  16.197  16.086  1.00  0.00     0.167 HD
HETATM   11  O1  UNL     1      29.529  16.126  18.271  1.00  0.00    -0.266 OA
ENDBRANCH   1   7
TORSDOF 1
ENDMDL