MODEL 5
REMARK VINA RESULT: -4.185757462      1.056      4.224
REMARK  1 active torsions:
REMARK  status: ('A' for Active; 'I' for Inactive)
REMARK    1  A    between atoms: C3_4  and  C4_5
ROOT
HETATM    1  C4  UNL     1      28.652  13.231  18.329  1.00  0.00    -0.004 A
HETATM    2  C5  UNL     1      27.685  12.282  18.530  1.00  0.00     0.031 A
HETATM    3  C6  UNL     1      27.726  11.942  19.886  1.00  0.00     0.088 A
HETATM    4  N2  UNL     1      28.691  12.672  20.459  1.00  0.00    -0.374 N
ATOM      5  H2  UNL     1      28.942  12.628  21.447  1.00  0.00     0.164 HD
HETATM    6  C7  UNL     1      29.276  13.461  19.564  1.00  0.00     0.100 A
ENDROOT
BRANCH   1   7
HETATM    7  C3  UNL     1      28.989  13.885  17.096  1.00  0.00     0.097 C
HETATM    8  N1  UNL     1      28.695  15.020  16.630  1.00  0.00    -0.398 N
HETATM    9  C1  UNL     1      29.212  15.408  15.297  1.00  0.00     0.148 C
HETATM   10  C2  UNL     1      27.884  15.979  17.310  1.00  0.00     0.148 C
ENDBRANCH   1   7
TORSDOF 1
ENDMDL