MODEL 4
REMARK VINA RESULT: -4.312535948      1.932      2.547
REMARK  1 active torsions:
REMARK  status: ('A' for Active; 'I' for Inactive)
REMARK    1  A    between atoms: C2_2  and  C3_3
ROOT
HETATM    1  C3  UNL     1      28.589  15.606  16.898  1.00  0.00     0.055 C
HETATM    2  N1  UNL     1      29.188  15.985  15.677  1.00  0.00    -0.102 NA
HETATM    3  C4  UNL     1      29.087  14.588  17.559  1.00  0.00    -0.012 A
HETATM    4  C5  UNL     1      28.580  14.086  18.822  1.00  0.00     0.013 A
HETATM    5  C6  UNL     1      29.353  13.066  19.146  1.00  0.00     0.001 A
HETATM    6  C7  UNL     1      30.379  12.865  18.124  1.00  0.00     0.001 A
HETATM    7  C8  UNL     1      30.224  13.775  17.170  1.00  0.00     0.013 A
ENDROOT
BRANCH   1   8
HETATM    8  C2  UNL     1      27.438  16.343  17.400  1.00  0.00     0.017 C
HETATM    9  C1  UNL     1      26.885  17.281  16.667  1.00  0.00     0.013 C
ENDBRANCH   1   8
TORSDOF 1
ENDMDL