MODEL 3
REMARK VINA RESULT: -4.311029296      2.259      2.700
REMARK  2 active torsions:
REMARK  status: ('A' for Active; 'I' for Inactive)
REMARK    1  A    between atoms: O1_1  and  C1_3
REMARK    2  A    between atoms: C2_4  and  C3_5
ROOT
HETATM    1  C3  UNL     1      29.488  13.560  16.875  1.00  0.00     0.033 A
HETATM    2  C4  UNL     1      30.042  13.353  18.154  1.00  0.00     0.031 A
HETATM    3  C5  UNL     1      30.560  12.079  18.147  1.00  0.00     0.019 A
HETATM    4  C6  UNL     1      30.346  11.500  16.922  1.00  0.00     0.088 A
HETATM    5  N1  UNL     1      29.694  12.438  16.185  1.00  0.00    -0.366 N
ATOM      6  H1  UNL     1      29.396  12.299  15.220  1.00  0.00     0.165 HD
ENDROOT
BRANCH   1   7
HETATM    7  C2  UNL     1      28.851  14.811  16.530  1.00  0.00     0.053 C
HETATM    8  C1  UNL     1      29.309  15.590  15.594  1.00  0.00     0.133 C
BRANCH   8   9
HETATM    9  O1  UNL     1      30.422  15.293  14.863  1.00  0.00    -0.373 OA
ATOM     10  H1  UNL     1      30.666  14.404  14.633  1.00  0.00     0.216 HD
ENDBRANCH   8   9
ENDBRANCH   1   7
TORSDOF 2
ENDMDL