MODEL 3
REMARK VINA RESULT: -4.374399587      1.484      3.900
REMARK  1 active torsions:
REMARK  status: ('A' for Active; 'I' for Inactive)
REMARK    1  A    between atoms: C3_3  and  N1_4
ROOT
HETATM    1  N1  UNL     1      28.272  13.953  17.954  1.00  0.00    -0.317 N
HETATM    2  C4  UNL     1      28.178  12.618  18.065  1.00  0.00     0.115 A
HETATM    3  C5  UNL     1      27.581  12.307  19.275  1.00  0.00     0.106 A
HETATM    4  N2  UNL     1      27.333  13.485  19.860  1.00  0.00    -0.360 N
ATOM      5  H2  UNL     1      26.894  13.601  20.773  1.00  0.00     0.166 HD
HETATM    6  C6  UNL     1      27.748  14.498  19.068  1.00  0.00     0.188 A
ENDROOT
BRANCH   1   7
HETATM    7  C3  UNL     1      28.829  14.686  16.856  1.00  0.00     0.039 A
HETATM    8  C2  UNL     1      28.505  15.919  16.172  1.00  0.00     0.030 A
HETATM    9  C1  UNL     1      29.531  15.773  15.338  1.00  0.00     0.005 A
HETATM   10  C7  UNL     1      29.848  14.531  16.034  1.00  0.00     0.030 A
ENDBRANCH   1   7
TORSDOF 1
ENDMDL