MODEL 4
REMARK VINA RESULT: -4.538176203      1.206      1.516
REMARK  1 active torsions:
REMARK  status: ('A' for Active; 'I' for Inactive)
REMARK    1  A    between atoms: N1_3  and  C4_5
ROOT
HETATM    1  C1  UNL     1      27.844  11.613  17.929  1.00  0.00     0.031 C
HETATM    2  C2  UNL     1      28.270  12.724  18.138  1.00  0.00    -0.024 C
HETATM    3  N1  UNL     1      28.773  14.023  18.375  1.00  0.00    -0.213 NA
HETATM    4  C3  UNL     1      27.719  14.804  18.994  1.00  0.00     0.133 C
ENDROOT
BRANCH   3   5
HETATM    5  C4  UNL     1      29.200  14.617  17.172  1.00  0.00     0.038 A
HETATM    6  C5  UNL     1      28.536  15.595  16.479  1.00  0.00     0.043 A
HETATM    7  C6  UNL     1      29.272  15.929  15.334  1.00  0.00     0.089 A
HETATM    8  N2  UNL     1      30.374  15.141  15.357  1.00  0.00    -0.373 N
HETATM    9  C7  UNL     1      30.341  14.342  16.466  1.00  0.00     0.112 A
ATOM     10  H2  UNL     1      31.114  15.144  14.654  1.00  0.00     0.164 HD
ENDBRANCH   3   5
TORSDOF 1
ENDMDL