MODEL 2
REMARK VINA RESULT: -4.084096716      1.591      1.591
REMARK  1 active torsions:
REMARK  status: ('A' for Active; 'I' for Inactive)
REMARK    1  A    between atoms: C3_4  and  C4_5
ROOT
HETATM    1  C4  UNL     1      29.275  14.522  17.343  1.00  0.00     0.047 A
HETATM    2  C5  UNL     1      28.410  15.584  17.181  1.00  0.00     0.032 A
HETATM    3  C6  UNL     1      28.602  16.051  15.879  1.00  0.00     0.019 A
HETATM    4  C7  UNL     1      29.554  15.279  15.303  1.00  0.00     0.088 A
HETATM    5  N2  UNL     1      29.960  14.362  16.174  1.00  0.00    -0.365 N
ATOM      6  H2  UNL     1      30.671  13.652  15.996  1.00  0.00     0.165 HD
ENDROOT
BRANCH   1   7
HETATM    7  C3  UNL     1      29.462  13.693  18.519  1.00  0.00     0.114 C
HETATM    8  N1  UNL     1      28.899  12.634  18.887  1.00  0.00    -0.397 N
HETATM    9  C1  UNL     1      29.330  12.021  20.169  1.00  0.00     0.148 C
HETATM   10  C2  UNL     1      27.870  11.964  18.166  1.00  0.00     0.148 C
ENDBRANCH   1   7
TORSDOF 1
ENDMDL