MODEL 3
REMARK VINA RESULT: -4.434839663      1.156      4.049
REMARK  1 active torsions:
REMARK  status: ('A' for Active; 'I' for Inactive)
REMARK    1  A    between atoms: C2_2  and  C3_3
ROOT
HETATM    1  C3  UNL     1      28.479  13.110  17.824  1.00  0.00     0.050 A
HETATM    2  C4  UNL     1      29.167  12.321  16.929  1.00  0.00     0.119 A
HETATM    3  N1  UNL     1      29.563  13.129  15.936  1.00  0.00    -0.354 N
ATOM      4  H1  UNL     1      30.098  12.829  15.121  1.00  0.00     0.166 HD
HETATM    5  C5  UNL     1      29.153  14.401  16.165  1.00  0.00     0.079 A
HETATM    6  C6  UNL     1      29.390  15.601  15.297  1.00  0.00     0.089 C
HETATM    7  N2  UNL     1      28.492  14.352  17.330  1.00  0.00    -0.340 N
HETATM    8  C7  UNL     1      27.873  15.521  17.959  1.00  0.00     0.158 C
ENDROOT
BRANCH   1   9
HETATM    9  C2  UNL     1      27.850  12.666  19.083  1.00  0.00     0.021 C
HETATM   10  C1  UNL     1      27.048  11.624  19.087  1.00  0.00     0.013 C
ENDBRANCH   1   9
TORSDOF 1
ENDMDL