MODEL 2
REMARK VINA RESULT: -4.497317051      1.695      3.595
REMARK  3 active torsions:
REMARK  status: ('A' for Active; 'I' for Inactive)
REMARK    1  A    between atoms: N1_1  and  N2_4
REMARK    2  A    between atoms: N2_4  and  C1_5
REMARK    3  A    between atoms: C1_5  and  C2_6
ROOT
HETATM    1  C2  UNL     1      28.120  14.310  18.250  1.00  0.00     0.063 A
HETATM    2  C3  UNL     1      28.520  13.170  17.574  1.00  0.00     0.033 A
HETATM    3  C4  UNL     1      28.100  12.089  18.306  1.00  0.00     0.019 A
HETATM    4  C5  UNL     1      27.450  12.569  19.423  1.00  0.00     0.088 A
HETATM    5  N3  UNL     1      27.485  13.892  19.349  1.00  0.00    -0.364 N
ATOM      6  H3  UNL     1      27.076  14.516  20.046  1.00  0.00     0.165 HD
ENDROOT
BRANCH   1   7
HETATM    7  C1  UNL     1      28.353  15.689  17.837  1.00  0.00     0.237 C
BRANCH   7   8
HETATM    8  N2  UNL     1      27.542  16.326  17.130  1.00  0.00    -0.344 NA
BRANCH   8   9
HETATM    9  N1  UNL     1      26.780  17.189  16.644  1.00  0.00    -0.281 N
ATOM     10  H12 UNL     1      27.082  17.904  17.305  1.00  0.00     0.191 HD
ATOM     11  H11 UNL     1      26.095  17.697  16.086  1.00  0.00     0.191 HD
ENDBRANCH   8   9
ENDBRANCH   7   8
ENDBRANCH   1   7
TORSDOF 3
ENDMDL