MODEL 3
REMARK VINA RESULT: -4.132770403      1.216      1.796
REMARK  1 active torsions:
REMARK  status: ('A' for Active; 'I' for Inactive)
REMARK    1  A    between atoms: C2_2  and  C3_3
ROOT
HETATM    1  C3  UNL     1      29.043  14.381  18.291  1.00  0.00    -0.020 A
HETATM    2  C4  UNL     1      29.859  14.831  17.276  1.00  0.00     0.099 A
HETATM    3  N1  UNL     1      29.236  15.828  16.626  1.00  0.00    -0.369 N
ATOM      4  H1  UNL     1      29.622  16.337  15.831  1.00  0.00     0.165 HD
HETATM    5  C5  UNL     1      28.030  16.057  17.174  1.00  0.00     0.005 A
HETATM    6  C6  UNL     1      27.022  17.089  16.738  1.00  0.00     0.068 C
HETATM    7  C7  UNL     1      27.908  15.157  18.210  1.00  0.00     0.037 A
ENDROOT
BRANCH   1   8
HETATM    8  C2  UNL     1      29.344  13.307  19.235  1.00  0.00     0.002 C
HETATM    9  C1  UNL     1      30.128  12.315  18.837  1.00  0.00     0.012 C
ENDBRANCH   1   8
TORSDOF 1
ENDMDL