MODEL 3
REMARK VINA RESULT: -4.181747921      1.622      1.850
REMARK  1 active torsions:
REMARK  status: ('A' for Active; 'I' for Inactive)
REMARK    1  A    between atoms: C1_2  and  C2_4
ROOT
HETATM    1  C2  UNL     1      29.007  14.868  17.892  1.00  0.00     0.123 A
HETATM    2 CL1  UNL     1      28.744  15.070  19.674  1.00  0.00    -0.108 Cl
HETATM    3  C3  UNL     1      30.015  13.921  17.389  1.00  0.00     0.025 A
HETATM    4  C4  UNL     1      29.757  12.480  17.860  1.00  0.00     0.015 A
HETATM    5  C5  UNL     1      28.629  13.418  17.460  1.00  0.00     0.025 A
ENDROOT
BRANCH   1   6
HETATM    6  C1  UNL     1      28.267  15.851  17.064  1.00  0.00     0.255 C
HETATM    7  N1  UNL     1      28.963  16.101  15.793  1.00  0.00    -0.060 NA
HETATM    8  O1  UNL     1      27.250  16.416  17.241  1.00  0.00    -0.275 OA
ENDBRANCH   1   6
TORSDOF 1
ENDMDL