MODEL 2
REMARK VINA RESULT: -4.135715121      1.018      1.018
REMARK  1 active torsions:
REMARK  status: ('A' for Active; 'I' for Inactive)
REMARK    1  A    between atoms: C1_4  and  C2_5
ROOT
HETATM    1  C2  UNL     1      29.498  14.959  17.313  1.00  0.00     0.053 A
HETATM    2  C3  UNL     1      30.131  13.692  17.108  1.00  0.00     0.021 A
HETATM    3  C4  UNL     1      30.137  12.438  17.922  1.00  0.00     0.009 C
HETATM    4  C5  UNL     1      28.663  12.445  17.467  1.00  0.00     0.027 C
HETATM    5  C6  UNL     1      28.763  13.890  17.886  1.00  0.00     0.050 A
HETATM    6 CL1  UNL     1      28.872  13.936  19.686  1.00  0.00    -0.118 Cl
ENDROOT
BRANCH   1   7
HETATM    7  C1  UNL     1      28.773  15.711  16.223  1.00  0.00     0.059 C
HETATM    8  N1  UNL     1      27.826  16.515  16.428  1.00  0.00    -0.411 N
ATOM      9  H12 UNL     1      27.543  16.655  17.398  1.00  0.00     0.155 HD
ATOM     10  H11 UNL     1      27.336  17.023  15.691  1.00  0.00     0.155 HD
ENDBRANCH   1   7
TORSDOF 1
ENDMDL