MODEL 4
REMARK VINA RESULT: -4.242795166      1.332      1.744
REMARK  1 active torsions:
REMARK  status: ('A' for Active; 'I' for Inactive)
REMARK    1  A    between atoms: C1_2  and  C2_4
ROOT
HETATM    1  C2  UNL     1      28.666  13.993  17.587  1.00  0.00     0.271 C
HETATM    2  C3  UNL     1      27.889  14.023  18.884  1.00  0.00     0.044 C
HETATM    3  C4  UNL     1      28.015  12.556  19.284  1.00  0.00     0.030 C
HETATM    4  C5  UNL     1      29.519  12.374  19.030  1.00  0.00     0.233 C
HETATM    5  N1  UNL     1      29.784  13.143  17.835  1.00  0.00    -0.063 N
ATOM      6  H11 UNL     1      30.663  13.658  17.888  1.00  0.00     0.278 HD
ATOM      7  H12 UNL     1      30.015  12.555  17.034  1.00  0.00     0.278 HD
ENDROOT
BRANCH   1   8
HETATM    8  C1  UNL     1      29.030  15.343  17.121  1.00  0.00     0.249 C
HETATM    9  O1  UNL     1      29.305  16.183  17.953  1.00  0.00    -0.278 OA
HETATM   10 CL1  UNL     1      29.084  15.784  15.431  1.00  0.00    -0.042 Cl
ENDBRANCH   1   8
TORSDOF 1
ENDMDL