MODEL 2
REMARK VINA RESULT: -3.423003796      1.938      2.773
REMARK  1 active torsions:
REMARK  status: ('A' for Active; 'I' for Inactive)
REMARK    1  A    between atoms: C2_2  and  N1_4
ROOT
HETATM    1  N1  UNL     1      28.697  14.769  17.088  1.00  0.00    -0.028 N
HETATM    2  C3  UNL     1      29.252  15.126  15.788  1.00  0.00     0.280 C
HETATM    3  C4  UNL     1      27.767  15.675  17.684  1.00  0.00     0.273 A
HETATM    4  C5  UNL     1      29.175  15.594  18.217  1.00  0.00     0.273 A
ENDROOT
BRANCH   1   5
HETATM    5  C2  UNL     1      28.697  13.396  17.356  1.00  0.00     0.196 C
HETATM    6  C1  UNL     1      29.330  12.513  16.584  1.00  0.00     0.064 C
HETATM    7 CL1  UNL     1      27.824  12.826  18.767  1.00  0.00    -0.058 Cl
ENDBRANCH   1   5
TORSDOF 1
ENDMDL