MODEL 1
REMARK VINA RESULT: -3.488346379      0.000      0.000
REMARK  1 active torsions:
REMARK  status: ('A' for Active; 'I' for Inactive)
REMARK    1  A    between atoms: C2_2  and  C3_4
ROOT
HETATM    1  C3  UNL     1      29.118  13.598  16.875  1.00  0.00     0.268 A
HETATM    2  C4  UNL     1      28.379  12.937  17.908  1.00  0.00     0.309 A
HETATM    3  N1  UNL     1      29.775  13.133  18.080  1.00  0.00     0.094 N
HETATM    4  C5  UNL     1      30.732  12.094  17.856  1.00  0.00     0.310 C
ENDROOT
BRANCH   1   5
HETATM    5  C2  UNL     1      29.180  15.093  16.683  1.00  0.00     0.113 C
HETATM    6  C1  UNL     1      29.240  15.460  15.215  1.00  0.00     0.029 C
HETATM    7 CL1  UNL     1      27.787  15.896  17.485  1.00  0.00    -0.123 Cl
ENDBRANCH   1   5
TORSDOF 1
ENDMDL