MODEL 2
REMARK VINA RESULT: -3.861246312      1.838      2.135
REMARK  1 active torsions:
REMARK  status: ('A' for Active; 'I' for Inactive)
REMARK    1  A    between atoms: C1_2  and  C2_4
ROOT
HETATM    1  C2  UNL     1      27.923  14.692  18.397  1.00  0.00     0.095 A
HETATM    2  C3  UNL     1      28.669  15.012  19.714  1.00  0.00     0.036 A
HETATM    3  C4  UNL     1      29.179  13.995  18.753  1.00  0.00     0.096 A
HETATM    4 CL1  UNL     1      29.082  12.283  19.179  1.00  0.00    -0.124 Cl
ENDROOT
BRANCH   1   5
HETATM    5  C1  UNL     1      27.895  15.785  17.412  1.00  0.00     0.236 C
HETATM    6  N1  UNL     1      28.901  16.046  16.467  1.00  0.00    -0.062 NA
HETATM    7  O1  UNL     1      26.892  16.553  17.408  1.00  0.00    -0.276 OA
ENDBRANCH   1   5
TORSDOF 1
ENDMDL