MODEL 1
REMARK VINA RESULT: -4.349394137      0.000      0.000
REMARK  1 active torsions:
REMARK  status: ('A' for Active; 'I' for Inactive)
REMARK    1  A    between atoms: C1_2  and  C2_4
ROOT
HETATM    1  C2  UNL     1      29.207  15.173  17.610  1.00  0.00     0.084 A
HETATM    2  C3  UNL     1      29.358  14.900  16.164  1.00  0.00     0.025 A
HETATM    3  C4  UNL     1      29.435  13.854  17.106  1.00  0.00    -0.028 A
HETATM    4  C5  UNL     1      28.776  12.605  17.257  1.00  0.00     0.011 A
HETATM    5  C6  UNL     1      30.308  12.812  17.455  1.00  0.00     0.011 A
ENDROOT
BRANCH   1   6
HETATM    6  C1  UNL     1      27.911  15.470  18.230  1.00  0.00     0.236 C
HETATM    7  N1  UNL     1      27.664  14.923  19.506  1.00  0.00    -0.062 NA
HETATM    8  O1  UNL     1      27.021  16.164  17.713  1.00  0.00    -0.276 OA
ENDBRANCH   1   6
TORSDOF 1
ENDMDL