MODEL 4
REMARK VINA RESULT: -4.334960174      2.055      4.526
REMARK  1 active torsions:
REMARK  status: ('A' for Active; 'I' for Inactive)
REMARK       I    between atoms: N1_3  and  C3_5
REMARK    1  A    between atoms: C3_5  and  C4_7
ROOT
HETATM    1  C1  UNL     1      27.111  10.589  21.330  1.00  0.00     0.037 C
HETATM    2  C2  UNL     1      27.095  11.379  20.410  1.00  0.00     0.002 C
HETATM    3  N1  UNL     1      27.099  12.291  19.349  1.00  0.00    -0.286 N
ATOM      4  H1  UNL     1      26.404  12.198  18.610  1.00  0.00     0.179 HD
HETATM    5  C3  UNL     1      28.049  13.342  19.279  1.00  0.00     0.233 C
HETATM    6  O1  UNL     1      28.896  13.438  20.201  1.00  0.00    -0.272 OA
ENDROOT
BRANCH   5   7
HETATM    7  C4  UNL     1      28.044  14.291  18.166  1.00  0.00     0.079 C
HETATM    8  C5  UNL     1      29.001  15.475  18.362  1.00  0.00     0.014 C
HETATM    9  C6  UNL     1      29.187  15.425  16.838  1.00  0.00     0.002 C
HETATM   10  C7  UNL     1      28.949  13.913  16.986  1.00  0.00     0.014 C
ENDBRANCH   5   7
TORSDOF 1
ENDMDL