MODEL 1
REMARK VINA RESULT: -4.514427281      0.000      0.000
REMARK  1 active torsions:
REMARK  status: ('A' for Active; 'I' for Inactive)
REMARK    1  A    between atoms: C2_2  and  C3_3
REMARK       I    between atoms: C3_3  and  N1_4
ROOT
HETATM    1  C1  UNL     1      29.384  15.145  15.093  1.00  0.00     0.027 C
HETATM    2  C2  UNL     1      29.135  14.702  16.515  1.00  0.00     0.055 A
HETATM    3  C4  UNL     1      30.242  13.874  17.128  1.00  0.00     0.041 A
HETATM    4  C5  UNL     1      28.878  13.311  16.917  1.00  0.00     0.101 A
HETATM    5 CL1  UNL     1      27.948  13.113  18.447  1.00  0.00    -0.124 Cl
ENDROOT
BRANCH   2   6
HETATM    6  C3  UNL     1      28.599  15.815  17.395  1.00  0.00     0.225 C
HETATM    7  N1  UNL     1      27.389  16.410  17.147  1.00  0.00    -0.369 N
ATOM      8  H12 UNL     1      26.795  16.150  16.360  1.00  0.00     0.159 HD
ATOM      9  H11 UNL     1      27.029  17.158  17.738  1.00  0.00     0.159 HD
HETATM   10  O1  UNL     1      29.320  16.130  18.350  1.00  0.00    -0.273 OA
ENDBRANCH   2   6
TORSDOF 1
ENDMDL