MODEL 3
REMARK VINA RESULT: -3.829290541      0.106      1.324
REMARK  3 active torsions:
REMARK  status: ('A' for Active; 'I' for Inactive)
REMARK    1  A    between atoms: N1_2  and  C4_5
REMARK    2  A    between atoms: C4_5  and  C5_6
REMARK    3  A    between atoms: C6_7  and  C7_8
ROOT
HETATM    1  C4  UNL     1      27.983  12.458  17.983  1.00  0.00     0.263 C
ENDROOT
BRANCH   1   2
HETATM    2  N1  UNL     1      28.800  13.586  18.375  1.00  0.00    -0.075 N
HETATM    3  C1  UNL     1      29.988  13.720  17.584  1.00  0.00     0.272 C
HETATM    4  C2  UNL     1      29.190  13.485  19.768  1.00  0.00     0.272 C
HETATM    5  C3  UNL     1      27.957  14.777  18.208  1.00  0.00     0.272 C
ENDBRANCH   1   2
BRANCH   1   6
HETATM    6  C5  UNL     1      27.140  11.946  19.066  1.00  0.00    -0.003 C
HETATM    7  C6  UNL     1      26.312  10.939  18.852  1.00  0.00    -0.024 C
BRANCH   7   8
HETATM    8  C7  UNL     1      25.425  10.360  19.892  1.00  0.00     0.008 A
HETATM    9  C8  UNL     1      24.507   9.277  19.366  1.00  0.00     0.009 A
HETATM   10  C9  UNL     1      23.965  10.597  19.871  1.00  0.00     0.009 A
ENDBRANCH   7   8
ENDBRANCH   1   6
TORSDOF 3
ENDMDL