MODEL 1
REMARK VINA RESULT: -4.855972363      0.000      0.000
REMARK  3 active torsions:
REMARK  status: ('A' for Active; 'I' for Inactive)
REMARK    1  A    between atoms: C2_2  and  C8_9
REMARK    2  A    between atoms: C3_3  and  C4_4
REMARK    3  A    between atoms: C4_4  and  N1_5
ROOT
HETATM    1  C1  UNL     1      27.388  10.894  17.738  1.00  0.00     0.055 C
HETATM    2  C2  UNL     1      27.385  11.888  18.834  1.00  0.00     0.012 C
HETATM    3  C3  UNL     1      28.003  13.043  18.690  1.00  0.00     0.014 C
ENDROOT
BRANCH   3   4
HETATM    4  C4  UNL     1      28.693  13.336  17.435  1.00  0.00     0.265 C
BRANCH   4   5
HETATM    5  N1  UNL     1      28.786  14.749  17.142  1.00  0.00    -0.065 N
HETATM    6  C5  UNL     1      29.180  15.168  15.807  1.00  0.00     0.273 C
HETATM    7  C6  UNL     1      27.764  15.540  17.829  1.00  0.00     0.265 A
HETATM    8  C7  UNL     1      29.174  15.660  18.227  1.00  0.00     0.265 A
ENDBRANCH   4   5
ENDBRANCH   3   4
BRANCH   2   9
HETATM    9  C8  UNL     1      26.706  11.614  20.086  1.00  0.00     0.204 C
HETATM   10  O1  UNL     1      27.281  11.879  21.166  1.00  0.00    -0.644 OA
HETATM   11  O2  UNL     1      25.432  11.066  20.142  1.00  0.00    -0.644 OA
ENDBRANCH   2   9
TORSDOF 3
ENDMDL