MODEL 1
REMARK VINA RESULT: -4.951531187      0.000      0.000
REMARK  3 active torsions:
REMARK  status: ('A' for Active; 'I' for Inactive)
REMARK    1  A    between atoms: C5_5  and  C6_6
REMARK    2  A    between atoms: C6_6  and  C7_7
REMARK    3  A    between atoms: C7_7  and  N1_8
REMARK       I    between atoms: N1_8  and  C8_10
ROOT
HETATM    1  C1  UNL     1      29.241  15.632  14.846  1.00  0.00     0.012 C
HETATM    2  C2  UNL     1      29.225  15.503  16.055  1.00  0.00    -0.112 C
HETATM    3  C3  UNL     1      29.206  15.347  17.504  1.00  0.00     0.068 A
HETATM    4  C4  UNL     1      27.807  15.299  18.116  1.00  0.00     0.023 A
HETATM    5  C5  UNL     1      28.690  14.082  18.095  1.00  0.00     0.004 A
ENDROOT
BRANCH   5   6
HETATM    6  C6  UNL     1      29.180  13.630  19.450  1.00  0.00     0.025 C
BRANCH   6   7
HETATM    7  C7  UNL     1      29.213  12.130  19.567  1.00  0.00     0.123 C
BRANCH   7   8
HETATM    8  N1  UNL     1      27.921  11.597  19.246  1.00  0.00    -0.361 N
HETATM    9  C8  UNL     1      26.868  11.354  20.154  1.00  0.00     0.213 C
HETATM   10  C9  UNL     1      25.557  10.790  19.709  1.00  0.00     0.117 C
HETATM   11  O1  UNL     1      26.970  11.596  21.388  1.00  0.00    -0.274 OA
ATOM     12  H1  UNL     1      27.745  11.372  18.267  1.00  0.00     0.162 HD
ENDBRANCH   7   8
ENDBRANCH   6   7
ENDBRANCH   5   6
TORSDOF 3
ENDMDL