MODEL 3
REMARK VINA RESULT: -4.207418448      3.876      5.467
REMARK  5 active torsions:
REMARK  status: ('A' for Active; 'I' for Inactive)
REMARK    1  A    between atoms: C2_2  and  C3_3
REMARK    2  A    between atoms: C3_3  and  C4_4
REMARK    3  A    between atoms: C5_5  and  C6_6
REMARK    4  A    between atoms: C7_7  and  C8_8
REMARK    5  A    between atoms: C8_8  and  N1_10
ROOT
HETATM    1  C6  UNL     1      30.508  12.264  17.880  1.00  0.00    -0.077 C
HETATM    2  C7  UNL     1      29.970  13.261  17.438  1.00  0.00    -0.069 C
ENDROOT
BRANCH   2   3
HETATM    3  C8  UNL     1      29.297  14.451  16.893  1.00  0.00     0.260 C
HETATM    4  C9  UNL     1      29.174  15.520  17.968  1.00  0.00     0.054 C
BRANCH   3   5
HETATM    5  N1  UNL     1      30.129  14.909  15.802  1.00  0.00    -0.065 N
HETATM    6  C10 UNL     1      29.340  15.608  14.773  1.00  0.00     0.268 C
ATOM      7  H12 UNL     1      30.899  15.487  16.138  1.00  0.00     0.278 HD
ATOM      8  H11 UNL     1      30.670  14.143  15.399  1.00  0.00     0.278 HD
ENDBRANCH   3   5
ENDBRANCH   2   3
BRANCH   1   9
HETATM    9  C5  UNL     1      31.118  11.075  18.392  1.00  0.00     0.060 C
HETATM   10  C4  UNL     1      32.287  10.698  17.913  1.00  0.00    -0.014 C
BRANCH  10  11
HETATM   11  C3  UNL     1      32.992   9.475  18.388  1.00  0.00     0.054 C
BRANCH  11  12
HETATM   12  C2  UNL     1      34.448   9.643  18.144  1.00  0.00    -0.033 C
HETATM   13  C1  UNL     1      35.123  10.522  18.856  1.00  0.00     0.007 C
ENDBRANCH  11  12
ENDBRANCH  10  11
ENDBRANCH   1   9
TORSDOF 5
ENDMDL