MODEL 5
REMARK VINA RESULT: -4.252311645      1.315      4.019
REMARK  3 active torsions:
REMARK  status: ('A' for Active; 'I' for Inactive)
REMARK    1  A    between atoms: C2_2  and  C3_3
REMARK    2  A    between atoms: C3_3  and  N1_4
REMARK    3  A    between atoms: C4_6  and  C5_7
ROOT
HETATM    1  C3  UNL     1      28.831  12.948  17.765  1.00  0.00     0.046 C
HETATM    2  C7  UNL     1      27.860  13.742  18.605  1.00  0.00     0.035 C
HETATM    3  C8  UNL     1      27.982  15.181  18.192  1.00  0.00     0.003 C
HETATM    4  C9  UNL     1      29.291  15.218  17.430  1.00  0.00     0.003 C
HETATM    5  C10 UNL     1      29.218  13.918  16.647  1.00  0.00     0.035 C
ENDROOT
BRANCH   1   6
HETATM    6  C2  UNL     1      30.053  12.587  18.524  1.00  0.00    -0.006 C
HETATM    7  C1  UNL     1      30.950  11.798  17.963  1.00  0.00     0.009 C
ENDBRANCH   1   6
BRANCH   1   8
HETATM    8  N1  UNL     1      28.142  11.815  17.251  1.00  0.00    -0.390 N
HETATM    9  C4  UNL     1      27.298  11.127  17.924  1.00  0.00     0.056 C
ATOM     10  H1  UNL     1      28.331  11.534  16.289  1.00  0.00     0.159 HD
BRANCH   9  11
HETATM   11  C5  UNL     1      26.621   9.954  17.309  1.00  0.00     0.039 C
HETATM   12  C6  UNL     1      25.364   9.576  18.060  1.00  0.00     0.010 C
ENDBRANCH   9  11
ENDBRANCH   1   8
TORSDOF 3
ENDMDL