MODEL 4
REMARK VINA RESULT: -4.534950674      0.491      1.363
REMARK  3 active torsions:
REMARK  status: ('A' for Active; 'I' for Inactive)
REMARK    1  A    between atoms: C2_2  and  N1_3
REMARK    2  A    between atoms: N1_3  and  C5_6
REMARK    3  A    between atoms: C6_7  and  C8_9
ROOT
HETATM    1  C5  UNL     1      29.405  13.499  16.334  1.00  0.00     0.215 C
HETATM    2  C6  UNL     1      29.056  14.732  16.439  1.00  0.00     0.038 C
HETATM    3  C7  UNL     1      29.224  15.600  15.199  1.00  0.00     0.057 C
ENDROOT
BRANCH   1   4
HETATM    4  N1  UNL     1      29.400  12.419  17.226  1.00  0.00    -0.054 N
HETATM    5  C3  UNL     1      30.056  12.893  18.470  1.00  0.00     0.277 C
HETATM    6  C4  UNL     1      30.125  11.258  16.812  1.00  0.00     0.277 C
BRANCH   4   7
HETATM    7  C2  UNL     1      28.036  12.041  17.522  1.00  0.00     0.237 C
HETATM    8  C1  UNL     1      27.739  11.955  19.001  1.00  0.00     0.035 C
ENDBRANCH   4   7
ENDBRANCH   1   4
BRANCH   2   9
HETATM    9  C8  UNL     1      28.534  15.379  17.580  1.00  0.00     0.206 C
HETATM   10  O1  UNL     1      27.392  15.320  18.079  1.00  0.00    -0.644 OA
HETATM   11  O2  UNL     1      29.403  16.246  18.314  1.00  0.00    -0.644 OA
ENDBRANCH   2   9
TORSDOF 3
ENDMDL