MODEL 5
REMARK VINA RESULT: -4.019392180      1.833      2.298
REMARK  4 active torsions:
REMARK  status: ('A' for Active; 'I' for Inactive)
REMARK    1  A    between atoms: C2_2  and  C3_3
REMARK    2  A    between atoms: C3_3  and  C4_4
REMARK    3  A    between atoms: C4_4  and  C5_6
REMARK    4  A    between atoms: C5_6  and  N1_8
ROOT
HETATM    1  C5  UNL     1      29.897  12.532  18.503  1.00  0.00     0.254 C
HETATM    2  C6  UNL     1      30.211  11.066  18.478  1.00  0.00     0.049 C
ENDROOT
BRANCH   1   3
HETATM    3  C4  UNL     1      29.672  13.100  17.151  1.00  0.00     0.160 C
HETATM    4  O1  UNL     1      29.017  12.434  16.372  1.00  0.00    -0.295 OA
BRANCH   3   5
HETATM    5  C3  UNL     1      30.178  14.390  16.693  1.00  0.00     0.107 C
BRANCH   5   6
HETATM    6  C2  UNL     1      29.114  15.196  16.031  1.00  0.00    -0.029 C
HETATM    7  C1  UNL     1      29.240  15.688  14.821  1.00  0.00     0.007 C
ENDBRANCH   5   6
ENDBRANCH   3   5
ENDBRANCH   1   3
BRANCH   1   8
HETATM    8  N1  UNL     1      28.838  12.863  19.420  1.00  0.00    -0.068 N
HETATM    9  C7  UNL     1      28.788  14.263  19.761  1.00  0.00     0.272 C
HETATM   10  C8  UNL     1      29.051  12.137  20.675  1.00  0.00     0.272 C
HETATM   11  C9  UNL     1      27.534  12.474  18.943  1.00  0.00     0.272 C
ENDBRANCH   1   8
TORSDOF 4
ENDMDL