MODEL 1
REMARK VINA RESULT: -4.504481628      0.000      0.000
REMARK  3 active torsions:
REMARK  status: ('A' for Active; 'I' for Inactive)
REMARK    1  A    between atoms: C2_2  and  C3_3
REMARK    2  A    between atoms: C2_2  and  C7_8
REMARK    3  A    between atoms: C3_3  and  N1_4
ROOT
HETATM    1  C1  UNL     1      29.416  15.145  15.286  1.00  0.00     0.023 C
HETATM    2  C2  UNL     1      28.992  14.610  16.679  1.00  0.00     0.109 C
ENDROOT
BRANCH   2   3
HETATM    3  C3  UNL     1      30.139  13.817  17.160  1.00  0.00     0.251 C
BRANCH   3   4
HETATM    4  N1  UNL     1      29.924  12.614  17.861  1.00  0.00    -0.078 N
HETATM    5  C4  UNL     1      30.977  11.673  17.928  1.00  0.00     0.271 C
HETATM    6  C5  UNL     1      28.771  11.937  17.227  1.00  0.00     0.271 C
HETATM    7  C6  UNL     1      29.465  12.850  19.237  1.00  0.00     0.271 C
ENDBRANCH   3   4
ENDBRANCH   2   3
BRANCH   2   8
HETATM    8  C7  UNL     1      28.657  15.845  17.396  1.00  0.00     0.178 C
HETATM    9  O1  UNL     1      29.329  16.253  18.354  1.00  0.00    -0.648 OA
HETATM   10  O2  UNL     1      27.560  16.575  16.991  1.00  0.00    -0.648 OA
ENDBRANCH   2   8
TORSDOF 3
ENDMDL