MODEL 4
REMARK VINA RESULT: -3.911395213      1.649      2.734
REMARK  3 active torsions:
REMARK  status: ('A' for Active; 'I' for Inactive)
REMARK    1  A    between atoms: C2_2  and  C4_4
REMARK    2  A    between atoms: C6_6  and  C7_7
REMARK    3  A    between atoms: C7_7  and  N1_8
ROOT
HETATM    1  C4  UNL     1      29.639  15.076  17.269  1.00  0.00     0.019 A
HETATM    2  C5  UNL     1      29.332  14.872  15.792  1.00  0.00     0.016 A
HETATM    3  C6  UNL     1      29.861  13.747  16.706  1.00  0.00     0.020 A
ENDROOT
BRANCH   3   4
HETATM    4  C7  UNL     1      28.907  12.609  16.905  1.00  0.00     0.241 C
BRANCH   4   5
HETATM    5  N1  UNL     1      29.502  11.430  17.443  1.00  0.00    -0.078 N
HETATM    6  C8  UNL     1      30.478  10.812  16.602  1.00  0.00     0.271 C
HETATM    7  C9  UNL     1      30.029  11.638  18.794  1.00  0.00     0.271 C
HETATM    8  C10 UNL     1      28.423  10.440  17.603  1.00  0.00     0.271 C
ENDBRANCH   4   5
ENDBRANCH   3   4
BRANCH   1   9
HETATM    9  C2  UNL     1      28.520  15.410  18.164  1.00  0.00    -0.088 C
HETATM   10  C1  UNL     1      27.484  16.059  17.690  1.00  0.00     0.014 C
HETATM   11  C3  UNL     1      28.545  15.023  19.599  1.00  0.00     0.043 C
ENDBRANCH   1   9
TORSDOF 3
ENDMDL