MODEL 2
REMARK VINA RESULT: -5.094273601      0.417      1.020
REMARK  3 active torsions:
REMARK  status: ('A' for Active; 'I' for Inactive)
REMARK    1  A    between atoms: C3_3  and  C4_4
REMARK    2  A    between atoms: C6_6  and  C7_7
REMARK    3  A    between atoms: C7_7  and  N1_8
ROOT
HETATM    1  C1  UNL     1      78.602  50.509  36.761  1.00  0.00     0.096 C
HETATM    2  C2  UNL     1      78.969  51.066  35.619  1.00  0.00    -0.187 C
HETATM    3  C3  UNL     1      79.283  51.667  34.507  1.00  0.00     0.084 C
ENDROOT
BRANCH   3   4
HETATM    4  C4  UNL     1      78.967  53.084  34.433  1.00  0.00    -0.004 C
HETATM    5  C5  UNL     1      77.468  53.309  34.656  1.00  0.00     0.011 C
HETATM    6  C6  UNL     1      77.524  54.326  33.542  1.00  0.00     0.015 C
HETATM    7  C10 UNL     1      78.750  53.557  33.007  1.00  0.00     0.011 C
BRANCH   6   8
HETATM    8  C7  UNL     1      77.916  55.673  34.106  1.00  0.00     0.275 C
BRANCH   8   9
HETATM    9  N1  UNL     1      77.476  56.792  33.315  1.00  0.00     0.080 N
HETATM   10  C8  UNL     1      77.301  57.910  34.274  1.00  0.00     0.309 C
HETATM   11  C9  UNL     1      76.081  56.512  32.898  1.00  0.00     0.309 C
ENDBRANCH   8   9
ENDBRANCH   6   8
ENDBRANCH   3   4
TORSDOF 3
ENDMDL