MODEL 3
REMARK VINA RESULT: -5.361024489      1.007      1.302
REMARK  4 active torsions:
REMARK  status: ('A' for Active; 'I' for Inactive)
REMARK    1  A    between atoms: N1_1  and  C1_5
REMARK    2  A    between atoms: C1_5  and  C2_6
REMARK    3  A    between atoms: C1_5  and  C7_11
REMARK    4  A    between atoms: C3_7  and  C4_8
ROOT
HETATM    1  C1  UNL     1      80.331  52.822  32.352  1.00  0.00     0.210 C
ENDROOT
BRANCH   1   2
HETATM    2  N1  UNL     1      79.912  52.138  31.139  1.00  0.00    -0.071 N
ATOM      3  H13 UNL     1      79.340  51.322  31.356  1.00  0.00     0.275 HD
ATOM      4  H12 UNL     1      79.222  52.687  30.626  1.00  0.00     0.275 HD
ATOM      5  H11 UNL     1      80.700  51.888  30.544  1.00  0.00     0.275 HD
ENDBRANCH   1   2
BRANCH   1   6
HETATM    6  C2  UNL     1      79.352  52.671  33.447  1.00  0.00     0.002 C
HETATM    7  C3  UNL     1      79.559  51.805  34.415  1.00  0.00    -0.024 C
BRANCH   7   8
HETATM    8  C4  UNL     1      78.628  51.590  35.551  1.00  0.00     0.008 A
HETATM    9  C5  UNL     1      78.703  50.373  36.383  1.00  0.00     0.009 A
HETATM   10  C6  UNL     1      79.279  51.674  36.903  1.00  0.00     0.009 A
ENDBRANCH   7   8
ENDBRANCH   1   6
BRANCH   1  11
HETATM   11  C7  UNL     1      80.446  54.309  32.014  1.00  0.00     0.020 A
HETATM   12  C8  UNL     1      80.083  54.636  30.590  1.00  0.00     0.007 A
HETATM   13  C9  UNL     1      78.898  55.420  31.106  1.00  0.00     0.001 A
HETATM   14  C10 UNL     1      79.309  55.146  32.525  1.00  0.00     0.007 A
ENDBRANCH   1  11
TORSDOF 4
ENDMDL