MODEL 2
REMARK VINA RESULT: -5.446892885      2.852      3.523
REMARK  3 active torsions:
REMARK  status: ('A' for Active; 'I' for Inactive)
REMARK    1  A    between atoms: C3_3  and  C4_4
REMARK    2  A    between atoms: C5_5  and  C6_6
REMARK    3  A    between atoms: C7_7  and  C8_8
ROOT
HETATM    1  C6  UNL     1      77.112  55.225  33.479  1.00  0.00    -0.002 C
HETATM    2  C7  UNL     1      77.526  56.478  33.453  1.00  0.00     0.008 C
ENDROOT
BRANCH   2   3
HETATM    3  C8  UNL     1      78.884  56.908  33.819  1.00  0.00     0.239 A
HETATM    4  N1  UNL     1      79.258  57.095  35.191  1.00  0.00    -0.059 N
HETATM    5  C9  UNL     1      79.042  58.261  34.363  1.00  0.00     0.216 A
ATOM      6  H12 UNL     1      78.881  56.774  36.082  1.00  0.00     0.278 HD
ATOM      7  H11 UNL     1      80.031  56.765  35.770  1.00  0.00     0.278 HD
HETATM    8  C10 UNL     1      77.876  59.110  34.763  1.00  0.00     0.042 C
ENDBRANCH   2   3
BRANCH   1   9
HETATM    9  C5  UNL     1      78.010  54.165  33.886  1.00  0.00    -0.000 C
HETATM   10  C4  UNL     1      77.619  53.283  34.780  1.00  0.00    -0.000 C
BRANCH  10  11
HETATM   11  C3  UNL     1      78.515  52.202  35.202  1.00  0.00    -0.004 C
HETATM   12  C2  UNL     1      78.138  51.363  36.138  1.00  0.00    -0.031 C
HETATM   13  C1  UNL     1      79.045  50.266  36.567  1.00  0.00     0.036 C
ENDBRANCH  10  11
ENDBRANCH   1   9
TORSDOF 3
ENDMDL