MODEL 2
REMARK VINA RESULT: -5.028410350      2.378      3.493
REMARK  3 active torsions:
REMARK  status: ('A' for Active; 'I' for Inactive)
REMARK    1  A    between atoms: C4_4  and  N1_5
REMARK    2  A    between atoms: N1_5  and  C5_8
REMARK    3  A    between atoms: C5_8  and  C7_10
ROOT
HETATM    1  N1  UNL     1      77.188  53.275  34.476  1.00  0.00    -0.066 N
ATOM      2  H11 UNL     1      76.422  53.317  35.148  1.00  0.00     0.278 HD
ATOM      3  H12 UNL     1      76.874  52.496  33.898  1.00  0.00     0.278 HD
ENDROOT
BRANCH   1   4
HETATM    4  C4  UNL     1      78.416  52.938  35.141  1.00  0.00     0.190 A
HETATM    5  C2  UNL     1      78.452  51.565  35.762  1.00  0.00     0.014 A
HETATM    6  C1  UNL     1      79.187  51.432  37.092  1.00  0.00     0.012 C
HETATM    7  C3  UNL     1      79.284  51.833  34.517  1.00  0.00     0.039 A
ENDBRANCH   1   4
BRANCH   1   8
HETATM    8  C5  UNL     1      77.238  54.483  33.701  1.00  0.00     0.186 C
HETATM    9  C6  UNL     1      75.841  55.044  33.646  1.00  0.00     0.040 C
BRANCH   8  10
HETATM   10  C7  UNL     1      78.247  55.468  34.204  1.00  0.00     0.016 C
HETATM   11  C8  UNL     1      77.757  56.909  34.285  1.00  0.00     0.007 C
HETATM   12  C9  UNL     1      79.210  57.293  33.957  1.00  0.00     0.001 C
HETATM   13  C10 UNL     1      79.223  55.989  33.148  1.00  0.00     0.007 C
ENDBRANCH   8  10
ENDBRANCH   1   8
TORSDOF 3
ENDMDL