MODEL 2
REMARK VINA RESULT: -5.072446970      1.440      3.297
REMARK  2 active torsions:
REMARK  status: ('A' for Active; 'I' for Inactive)
REMARK    1  A    between atoms: C2_2  and  C3_3
REMARK    2  A    between atoms: C7_10  and  C9_12
ROOT
HETATM    1  C3  UNL     1      78.055  53.544  33.883  1.00  0.00     0.220 C
HETATM    2  N1  UNL     1      78.111  54.725  34.738  1.00  0.00    -0.063 N
ATOM      3  H11 UNL     1      78.950  54.806  35.312  1.00  0.00     0.278 HD
ATOM      4  H12 UNL     1      77.460  54.724  35.523  1.00  0.00     0.278 HD
HETATM    5  C4  UNL     1      77.915  55.794  33.774  1.00  0.00     0.183 C
HETATM    6  C5  UNL     1      78.185  57.144  34.361  1.00  0.00     0.040 C
HETATM    7  C6  UNL     1      78.987  55.398  32.747  1.00  0.00     0.048 C
HETATM    8  C7  UNL     1      78.585  53.933  32.545  1.00  0.00     0.007 C
HETATM    9  C8  UNL     1      77.493  53.949  31.482  1.00  0.00     0.022 C
ENDROOT
BRANCH   8  10
HETATM   10  C9  UNL     1      79.685  53.109  32.044  1.00  0.00    -0.025 C
HETATM   11  C10 UNL     1      80.750  53.669  31.488  1.00  0.00     0.008 C
ENDBRANCH   8  10
BRANCH   1  12
HETATM   12  C2  UNL     1      78.771  52.403  34.505  1.00  0.00    -0.004 C
HETATM   13  C1  UNL     1      78.374  51.819  35.625  1.00  0.00     0.009 C
ENDBRANCH   1  12
TORSDOF 2
ENDMDL