MODEL 3
REMARK VINA RESULT: -4.956707535      2.339      3.102
REMARK  3 active torsions:
REMARK  status: ('A' for Active; 'I' for Inactive)
REMARK    1  A    between atoms: C3_3  and  N1_4
REMARK    2  A    between atoms: N1_4  and  C4_6
REMARK    3  A    between atoms: C4_6  and  C5_7
ROOT
HETATM    1  C5  UNL     1      78.112  55.533  34.138  1.00  0.00     0.032 C
HETATM    2  C6  UNL     1      77.474  56.936  34.047  1.00  0.00    -0.005 C
HETATM    3  C7  UNL     1      76.804  56.999  32.711  1.00  0.00     0.006 C
HETATM    4  C8  UNL     1      77.872  56.259  31.881  1.00  0.00     0.006 C
HETATM    5  C9  UNL     1      78.883  55.995  32.955  1.00  0.00    -0.005 C
HETATM    6  C10 UNL     1      78.903  57.358  33.671  1.00  0.00     0.010 C
ENDROOT
BRANCH   1   7
HETATM    7  C4  UNL     1      77.105  54.464  34.004  1.00  0.00     0.061 C
BRANCH   7   8
HETATM    8  N1  UNL     1      77.213  53.324  34.793  1.00  0.00    -0.397 N
ATOM      9  H1  UNL     1      76.359  52.835  35.063  1.00  0.00     0.159 HD
BRANCH   8  10
HETATM   10  C3  UNL     1      78.437  52.817  35.233  1.00  0.00     0.080 A
HETATM   11  C1  UNL     1      79.242  51.740  34.683  1.00  0.00     0.027 A
HETATM   12  C2  UNL     1      78.416  51.420  35.920  1.00  0.00     0.027 A
ENDBRANCH   8  10
ENDBRANCH   7   8
ENDBRANCH   1   7
TORSDOF 3
ENDMDL