MODEL 3
REMARK VINA RESULT: -5.315697493      2.233      4.729
REMARK  3 active torsions:
REMARK  status: ('A' for Active; 'I' for Inactive)
REMARK    1  A    between atoms: C2_2  and  N1_3
REMARK    2  A    between atoms: C2_2  and  C6_8
REMARK    3  A    between atoms: N1_3  and  C3_5
ROOT
HETATM    1  C1  UNL     1      76.996  54.300  32.171  1.00  0.00     0.063 C
HETATM    2  C2  UNL     1      77.141  54.501  33.667  1.00  0.00    -0.018 C
ENDROOT
BRANCH   2   3
HETATM    3  N1  UNL     1      76.998  55.836  34.114  1.00  0.00    -0.392 N
ATOM      4  H1  UNL     1      76.266  56.089  34.778  1.00  0.00     0.159 HD
BRANCH   3   5
HETATM    5  C3  UNL     1      77.897  56.815  33.618  1.00  0.00     0.081 A
HETATM    6  C4  UNL     1      78.708  57.493  34.729  1.00  0.00     0.027 A
HETATM    7  C5  UNL     1      77.608  58.242  34.069  1.00  0.00     0.027 A
ENDBRANCH   3   5
ENDBRANCH   2   3
BRANCH   2   8
HETATM    8  C6  UNL     1      78.269  53.756  34.279  1.00  0.00     0.030 C
HETATM    9  C7  UNL     1      79.221  53.077  33.368  1.00  0.00     0.010 C
HETATM   10  C8  UNL     1      79.636  51.766  34.004  1.00  0.00     0.001 C
HETATM   11  C9  UNL     1      79.118  51.890  35.416  1.00  0.00     0.001 C
HETATM   12  C10 UNL     1      77.809  52.637  35.214  1.00  0.00     0.010 C
ENDBRANCH   2   8
TORSDOF 3
ENDMDL