MODEL 1
REMARK VINA RESULT: -5.098749806      0.000      0.000
REMARK  3 active torsions:
REMARK  status: ('A' for Active; 'I' for Inactive)
REMARK    1  A    between atoms: C3_3  and  C4_4
REMARK    2  A    between atoms: C4_4  and  N1_5
REMARK    3  A    between atoms: N1_5  and  C5_8
ROOT
HETATM    1  N1  UNL     1      77.433  54.241  33.527  1.00  0.00    -0.070 N
ATOM      2  H11 UNL     1      76.604  54.420  32.961  1.00  0.00     0.277 HD
ATOM      3  H12 UNL     1      78.021  53.855  32.789  1.00  0.00     0.277 HD
ENDROOT
BRANCH   1   4
HETATM    4  C4  UNL     1      77.191  53.313  34.583  1.00  0.00     0.237 C
BRANCH   4   5
HETATM    5  C3  UNL     1      78.401  52.807  35.288  1.00  0.00     0.011 A
HETATM    6  C1  UNL     1      79.262  51.773  34.630  1.00  0.00     0.007 A
HETATM    7  C2  UNL     1      78.490  51.463  35.877  1.00  0.00     0.007 A
ENDBRANCH   4   5
ENDBRANCH   1   4
BRANCH   1   8
HETATM    8  C5  UNL     1      77.979  55.436  34.104  1.00  0.00     0.194 C
HETATM    9  C6  UNL     1      78.997  56.214  33.372  1.00  0.00     0.017 C
HETATM   10  C7  UNL     1      79.155  57.468  34.209  1.00  0.00     0.007 C
HETATM   11  C10 UNL     1      77.865  56.680  32.455  1.00  0.00     0.013 C
HETATM   12  C8  UNL     1      77.673  57.696  34.567  1.00  0.00     0.007 C
HETATM   13  C9  UNL     1      77.060  56.629  33.732  1.00  0.00     0.017 C
ENDBRANCH   1   8
TORSDOF 3
ENDMDL