MODEL 3
REMARK VINA RESULT: -8.264534545      2.434      5.869
REMARK  9 active torsions:
REMARK  status: ('A' for Active; 'I' for Inactive)
REMARK    1  A    between atoms: C3_3  and  C4_4
REMARK    2  A    between atoms: C4_4  and  C5_5
REMARK    3  A    between atoms: C6_6  and  C7_7
REMARK    4  A    between atoms: C7_7  and  N1_8
REMARK    5  A    between atoms: N1_8  and  C9_10
REMARK    6  A    between atoms: N1_8  and  C16_24
REMARK    7  A    between atoms: C9_10  and  C10_11
REMARK       I    between atoms: C10_11  and  N2_13
REMARK    8  A    between atoms: C13_17  and  C14_18
REMARK    9  A    between atoms: C16_24  and  C17_25
ROOT
HETATM    1  C1  UNL     1      20.531 -13.014  19.451  1.00  0.00     0.012 C
HETATM    2  C2  UNL     1      20.614 -13.490  20.561  1.00  0.00    -0.117 C
HETATM    3  C3  UNL     1      20.706 -14.091  21.899  1.00  0.00     0.105 C
ENDROOT
BRANCH   3   4
HETATM    4  C4  UNL     1      19.910 -15.393  21.877  1.00  0.00     0.106 C
BRANCH   4   5
HETATM    5  C5  UNL     1      18.503 -15.069  21.689  1.00  0.00    -0.104 C
HETATM    6  C6  UNL     1      17.327 -14.815  21.545  1.00  0.00    -0.079 C
BRANCH   6   7
HETATM    7  C7  UNL     1      15.886 -14.484  21.348  1.00  0.00     0.331 C
BRANCH   7   8
HETATM    8  N1  UNL     1      15.874 -13.167  20.750  1.00  0.00    -0.050 N
HETATM    9  C8  UNL     1      17.020 -12.460  21.330  1.00  0.00     0.274 C
BRANCH   8  10
HETATM   10  C9  UNL     1      16.201 -13.384  19.351  1.00  0.00     0.340 C
BRANCH  10  11
HETATM   11  C10 UNL     1      15.009 -13.849  18.612  1.00  0.00     0.249 C
HETATM   12  O1  UNL     1      14.232 -13.046  18.082  1.00  0.00    -0.271 OA
HETATM   13  N2  UNL     1      14.696 -15.237  18.473  1.00  0.00    -0.311 N
HETATM   14  C11 UNL     1      13.547 -15.673  18.909  1.00  0.00     0.124 A
ATOM     15  H2  UNL     1      15.362 -15.877  18.041  1.00  0.00     0.170 HD
HETATM   16  C12 UNL     1      13.137 -16.989  18.830  1.00  0.00     0.080 A
HETATM   17  N4  UNL     1      12.555 -14.990  19.500  1.00  0.00    -0.285 N
HETATM   18  C13 UNL     1      11.893 -17.044  19.386  1.00  0.00     0.051 A
HETATM   19  N3  UNL     1      11.549 -15.788  19.797  1.00  0.00    -0.299 N
ATOM     20  H3  UNL     1      10.676 -15.518  20.249  1.00  0.00     0.187 HD
ATOM     21  H4  UNL     1      12.576 -13.988  19.693  1.00  0.00     0.188 HD
BRANCH  18  22
HETATM   22  C14 UNL     1      11.059 -18.227  19.526  1.00  0.00     0.021 C
HETATM   23  C15 UNL     1      11.211 -18.995  20.585  1.00  0.00     0.013 C
ENDBRANCH  18  22
ENDBRANCH  10  11
ENDBRANCH   8  10
BRANCH   8  24
HETATM   24  C16 UNL     1      14.677 -12.442  20.820  1.00  0.00     0.273 C
BRANCH  24  25
HETATM   25  C17 UNL     1      14.101 -12.055  22.124  1.00  0.00     0.205 C
HETATM   26  N5  UNL     1      13.813 -10.691  22.347  1.00  0.00    -0.328 N
HETATM   27  C18 UNL     1      12.769 -10.641  23.308  1.00  0.00     0.325 C
ATOM     28  H5  UNL     1      14.268  -9.894  21.903  1.00  0.00     0.165 HD
HETATM   29  O2  UNL     1      12.397  -9.596  23.929  1.00  0.00    -0.247 OA
HETATM   30  N6  UNL     1      12.205 -11.949  23.465  1.00  0.00    -0.273 N
HETATM   31  C19 UNL     1      11.106 -12.300  24.367  1.00  0.00     0.164 C
HETATM   32  C20 UNL     1      12.927 -12.783  22.583  1.00  0.00     0.252 C
HETATM   33  O3  UNL     1      12.592 -13.943  22.270  1.00  0.00    -0.271 OA
ENDBRANCH  24  25
ENDBRANCH   8  24
ENDBRANCH   7   8
ENDBRANCH   6   7
ENDBRANCH   4   5
ENDBRANCH   3   4
TORSDOF 9
ENDMDL