MODEL 5
REMARK VINA RESULT: -7.296375581      2.121      3.117
REMARK  7 active torsions:
REMARK  status: ('A' for Active; 'I' for Inactive)
REMARK    1  A    between atoms: C2_2  and  C3_3
REMARK    2  A    between atoms: C3_3  and  C4_4
REMARK    3  A    between atoms: C4_4  and  C5_5
REMARK    4  A    between atoms: C5_5  and  N1_6
REMARK    5  A    between atoms: C7_8  and  C8_9
REMARK    6  A    between atoms: C18_24  and  C19_25
REMARK    7  A    between atoms: C19_25  and  N6_26
ROOT
HETATM    1  N1  UNL     1      13.668 -13.979  20.566  1.00  0.00    -0.358 N
HETATM    2  C6  UNL     1      14.771 -14.718  20.886  1.00  0.00     0.104 A
HETATM    3  C7  UNL     1      15.860 -14.262  21.572  1.00  0.00     0.006 A
HETATM    4  C16 UNL     1      15.826 -12.921  21.968  1.00  0.00     0.017 A
HETATM    5  C17 UNL     1      14.721 -12.174  21.651  1.00  0.00     0.028 A
HETATM    6  C18 UNL     1      13.631 -12.704  20.945  1.00  0.00     0.031 A
ENDROOT
BRANCH   3   7
HETATM    7  C8  UNL     1      16.995 -15.077  21.977  1.00  0.00     0.048 A
HETATM    8  C9  UNL     1      18.266 -14.488  22.065  1.00  0.00     0.049 A
HETATM    9  C10 UNL     1      19.168 -15.432  22.476  1.00  0.00     0.052 A
HETATM   10  C11 UNL     1      20.525 -15.396  22.710  1.00  0.00     0.131 A
HETATM   11  C14 UNL     1      18.360 -16.660  22.642  1.00  0.00     0.124 A
HETATM   12  N2  UNL     1      21.286 -14.201  22.548  1.00  0.00    -0.082 NA
HETATM   13  N3  UNL     1      21.077 -16.557  23.100  1.00  0.00    -0.340 N
HETATM   14  C12 UNL     1      20.363 -17.671  23.250  1.00  0.00     0.185 A
ATOM     15  H3  UNL     1      22.079 -16.586  23.289  1.00  0.00     0.167 HD
HETATM   16  N4  UNL     1      19.009 -17.746  23.027  1.00  0.00    -0.333 N
HETATM   17  C13 UNL     1      18.347 -19.019  23.184  1.00  0.00     0.158 C
HETATM   18  N5  UNL     1      17.062 -16.354  22.324  1.00  0.00    -0.336 N
HETATM   19  C15 UNL     1      15.970 -17.317  22.468  1.00  0.00     0.158 C
ENDBRANCH   3   7
BRANCH   1  20
HETATM   20  C5  UNL     1      12.601 -14.559  19.785  1.00  0.00     0.128 C
BRANCH  20  21
HETATM   21  C4  UNL     1      12.543 -16.043  19.780  1.00  0.00     0.020 C
BRANCH  21  22
HETATM   22  C3  UNL     1      11.805 -16.698  20.903  1.00  0.00     0.001 C
BRANCH  22  23
HETATM   23  C2  UNL     1      10.957 -17.869  20.380  1.00  0.00    -0.004 C
HETATM   24  C1  UNL     1      10.403 -17.558  19.016  1.00  0.00     0.005 C
ENDBRANCH  22  23
ENDBRANCH  21  22
ENDBRANCH  20  21
ENDBRANCH   1  20
BRANCH   6  25
HETATM   25  C19 UNL     1      12.517 -11.755  20.763  1.00  0.00     0.207 C
BRANCH  25  26
HETATM   26  N6  UNL     1      11.819 -11.736  22.068  1.00  0.00    -0.281 N
HETATM   27  C20 UNL     1      11.097 -12.727  22.586  1.00  0.00     0.201 A
HETATM   28  N7  UNL     1      10.635 -12.291  23.795  1.00  0.00    -0.346 N
HETATM   29  C21 UNL     1      11.083 -11.048  23.995  1.00  0.00     0.198 A
ATOM     30  H7  UNL     1      10.049 -12.825  24.436  1.00  0.00     0.167 HD
HETATM   31  N8  UNL     1      11.812 -10.721  22.918  1.00  0.00    -0.293 N
ATOM     32  H8  UNL     1      12.287  -9.829  22.775  1.00  0.00     0.188 HD
ENDBRANCH  25  26
ENDBRANCH   6  25
TORSDOF 7
ENDMDL