MODEL 4
REMARK VINA RESULT: -7.859672540      0.888      1.096
REMARK  8 active torsions:
REMARK  status: ('A' for Active; 'I' for Inactive)
REMARK    1  A    between atoms: C4_7  and  C5_8
REMARK    2  A    between atoms: C5_8  and  C6_9
REMARK    3  A    between atoms: C6_9  and  C7_10
REMARK    4  A    between atoms: C7_10  and  N3_11
REMARK    5  A    between atoms: N5_20  and  C14_21
REMARK    6  A    between atoms: C14_21  and  C15_22
REMARK    7  A    between atoms: C15_22  and  C16_23
REMARK    8  A    between atoms: C20_30  and  N8_31
ROOT
HETATM    1  N3  UNL     1      17.029 -13.297  20.704  1.00  0.00    -0.168 N
HETATM    2  C8  UNL     1      16.631 -13.133  19.406  1.00  0.00     0.135 A
HETATM    3  N4  UNL     1      17.515 -12.810  18.475  1.00  0.00    -0.351 N
ATOM      4  H4  UNL     1      18.491 -12.677  18.741  1.00  0.00     0.166 HD
HETATM    5  C9  UNL     1      17.158 -12.651  17.188  1.00  0.00     0.090 A
HETATM    6  C10 UNL     1      15.853 -12.828  16.825  1.00  0.00     0.018 A
HETATM    7  C11 UNL     1      14.871 -13.165  17.721  1.00  0.00     0.018 A
HETATM    8  C12 UNL     1      15.231 -13.327  19.034  1.00  0.00     0.025 A
HETATM    9  C13 UNL     1      14.291 -13.682  20.001  1.00  0.00     0.124 A
HETATM   10  N5  UNL     1      14.758 -13.824  21.242  1.00  0.00    -0.192 N
HETATM   11  C20 UNL     1      16.068 -13.638  21.575  1.00  0.00     0.681 A
ENDROOT
BRANCH   1  12
HETATM   12  C7  UNL     1      18.381 -13.063  21.095  1.00  0.00     0.149 C
BRANCH  12  13
HETATM   13  C6  UNL     1      19.278 -14.268  21.051  1.00  0.00     0.027 C
BRANCH  13  14
HETATM   14  C5  UNL     1      20.434 -14.266  22.000  1.00  0.00     0.060 C
BRANCH  14  15
HETATM   15  C4  UNL     1      19.893 -14.726  23.330  1.00  0.00     0.024 A
HETATM   16  N2  UNL     1      20.161 -14.065  24.470  1.00  0.00    -0.367 N
HETATM   17  C3  UNL     1      19.694 -14.450  25.671  1.00  0.00     0.105 A
ATOM     18  H2  UNL     1      20.747 -13.232  24.421  1.00  0.00     0.165 HD
HETATM   19  C2  UNL     1      18.895 -15.593  25.708  1.00  0.00     0.107 A
HETATM   20  N1  UNL     1      18.599 -16.290  24.593  1.00  0.00    -0.367 N
HETATM   21  C1  UNL     1      17.763 -17.468  24.709  1.00  0.00     0.154 C
HETATM   22  C21 UNL     1      19.098 -15.850  23.424  1.00  0.00     0.114 A
ENDBRANCH  14  15
ENDBRANCH  13  14
ENDBRANCH  12  13
ENDBRANCH   1  12
BRANCH  11  23
HETATM   23  N8  UNL     1      16.314 -13.800  22.812  1.00  0.00    -0.234 N
ATOM     24  H82 UNL     1      15.953 -13.054  23.407  1.00  0.00     0.174 HD
ATOM     25  H81 UNL     1      16.840 -14.605  23.153  1.00  0.00     0.174 HD
ENDBRANCH  11  23
BRANCH  10  26
HETATM   26  C14 UNL     1      13.777 -14.201  22.272  1.00  0.00     0.154 C
BRANCH  26  27
HETATM   27  C15 UNL     1      12.421 -13.612  21.944  1.00  0.00     0.097 C
BRANCH  27  28
HETATM   28  C16 UNL     1      12.095 -12.574  22.953  1.00  0.00     0.084 A
HETATM   29  N6  UNL     1      11.287 -12.764  24.022  1.00  0.00    -0.354 N
HETATM   30  C17 UNL     1      11.204 -11.626  24.730  1.00  0.00     0.106 A
ATOM     31  H6  UNL     1      10.815 -13.637  24.255  1.00  0.00     0.166 HD
HETATM   32  C18 UNL     1      12.000 -10.717  24.052  1.00  0.00     0.108 A
HETATM   33  N7  UNL     1      12.544 -11.298  22.964  1.00  0.00    -0.350 N
HETATM   34  C19 UNL     1      13.437 -10.684  21.989  1.00  0.00     0.156 C
ENDBRANCH  27  28
ENDBRANCH  26  27
ENDBRANCH  10  26
TORSDOF 8
ENDMDL