MODEL 2
REMARK VINA RESULT: -8.378872703      1.358      1.538
REMARK  10 active torsions:
REMARK  status: ('A' for Active; 'I' for Inactive)
REMARK    1  A    between atoms: C3_5  and  C4_6
REMARK    2  A    between atoms: C4_6  and  C5_7
REMARK    3  A    between atoms: C8_10  and  C9_11
REMARK    4  A    between atoms: C10_12  and  S1_13
REMARK    5  A    between atoms: S1_13  and  N2_16
REMARK    6  A    between atoms: N2_16  and  C11_18
REMARK    7  A    between atoms: C11_18  and  C12_19
REMARK    8  A    between atoms: C13_20  and  C14_21
REMARK    9  A    between atoms: C14_21  and  N3_22
REMARK   10  A    between atoms: N3_22  and  O3_23
ROOT
HETATM    1  C5  UNL     1      18.425 -15.165  21.892  1.00  0.00     0.009 C
HETATM    2  C6  UNL     1      17.335 -15.130  21.183  1.00  0.00     0.031 A
HETATM    3  C7  UNL     1      17.093 -14.084  20.165  1.00  0.00     0.042 A
HETATM    4  C8  UNL     1      15.883 -14.331  19.630  1.00  0.00    -0.018 A
HETATM    5  C15 UNL     1      15.379 -15.506  20.298  1.00  0.00     0.102 A
HETATM    6  N4  UNL     1      16.217 -15.963  21.191  1.00  0.00    -0.361 N
HETATM    7  C16 UNL     1      15.936 -17.149  22.020  1.00  0.00     0.155 C
ENDROOT
BRANCH   4   8
HETATM    8  C9  UNL     1      15.350 -13.475  18.592  1.00  0.00     0.026 C
HETATM    9  C10 UNL     1      14.390 -12.624  18.656  1.00  0.00     0.132 C
BRANCH   9  10
HETATM   10  S1  UNL     1      13.329 -12.104  19.909  1.00  0.00     0.249 S
HETATM   11  O1  UNL     1      12.285 -13.145  20.184  1.00  0.00    -0.201 OA
HETATM   12  O2  UNL     1      12.683 -10.786  19.694  1.00  0.00    -0.201 OA
BRANCH  10  13
HETATM   13  N2  UNL     1      14.230 -11.988  21.422  1.00  0.00    -0.305 N
ATOM     14  H2  UNL     1      15.154 -11.572  21.532  1.00  0.00     0.173 HD
BRANCH  13  15
HETATM   15  C11 UNL     1      13.436 -12.588  22.489  1.00  0.00     0.225 C
BRANCH  15  16
HETATM   16  C12 UNL     1      12.693 -11.566  23.223  1.00  0.00    -0.085 C
HETATM   17  C13 UNL     1      12.060 -10.725  23.820  1.00  0.00    -0.087 C
BRANCH  17  18
HETATM   18  C14 UNL     1      11.277  -9.711  24.526  1.00  0.00     0.236 C
BRANCH  18  19
HETATM   19  N3  UNL     1      12.106  -8.715  25.149  1.00  0.00    -0.092 NA
BRANCH  19  20
HETATM   20  O3  UNL     1      13.346  -8.822  24.643  1.00  0.00    -0.295 OA
ATOM     21  H3  UNL     1      13.947  -8.377  25.231  1.00  0.00     0.238 HD
ENDBRANCH  19  20
ENDBRANCH  18  19
ENDBRANCH  17  18
ENDBRANCH  15  16
ENDBRANCH  13  15
ENDBRANCH  10  13
ENDBRANCH   9  10
ENDBRANCH   4   8
BRANCH   1  22
HETATM   22  C4  UNL     1      18.801 -16.128  22.922  1.00  0.00     0.087 C
BRANCH  22  23
HETATM   23  C3  UNL     1      19.881 -15.481  23.747  1.00  0.00     0.019 A
HETATM   24  N1  UNL     1      21.174 -15.337  23.428  1.00  0.00    -0.362 N
HETATM   25  C2  UNL     1      21.801 -14.697  24.453  1.00  0.00     0.012 A
ATOM     26  H1  UNL     1      21.614 -15.653  22.564  1.00  0.00     0.165 HD
HETATM   27  C1  UNL     1      23.231 -14.343  24.502  1.00  0.00     0.068 C
HETATM   28  C19 UNL     1      20.874 -14.444  25.420  1.00  0.00    -0.032 A
HETATM   29  C17 UNL     1      19.660 -14.935  24.984  1.00  0.00    -0.031 A
HETATM   30  C20 UNL     1      21.037 -13.767  26.742  1.00  0.00     0.050 C
HETATM   31  C18 UNL     1      18.358 -14.885  25.711  1.00  0.00     0.051 C
ENDBRANCH  22  23
ENDBRANCH   1  22
TORSDOF 10
ENDMDL