MODEL 4
REMARK VINA RESULT: -8.811159973      1.016      1.214
REMARK  9 active torsions:
REMARK  status: ('A' for Active; 'I' for Inactive)
REMARK    1  A    between atoms: O1_1  and  C1_3
REMARK    2  A    between atoms: C1_3  and  C2_4
REMARK    3  A    between atoms: C2_4  and  N1_5
REMARK    4  A    between atoms: C6_9  and  C7_10
REMARK    5  A    between atoms: C10_13  and  C11_14
REMARK    6  A    between atoms: C11_14  and  C12_15
REMARK    7  A    between atoms: C12_15  and  N2_16
REMARK    8  A    between atoms: C15_19  and  C16_20
REMARK    9  A    between atoms: C16_20  and  N3_21
ROOT
HETATM    1  C7  UNL     1      19.933 -13.913  22.603  1.00  0.00    -0.008 A
HETATM    2  C8  UNL     1      18.580 -13.784  22.832  1.00  0.00     0.014 A
HETATM    3  C9  UNL     1      17.687 -13.520  21.816  1.00  0.00     0.008 A
HETATM    4  C10 UNL     1      18.156 -13.379  20.526  1.00  0.00    -0.057 A
HETATM    5  C22 UNL     1      19.491 -13.506  20.290  1.00  0.00     0.008 A
HETATM    6  C23 UNL     1      20.392 -13.774  21.326  1.00  0.00     0.014 A
ENDROOT
BRANCH   4   7
HETATM    7  C11 UNL     1      17.240 -13.094  19.391  1.00  0.00     0.058 C
BRANCH   7   8
HETATM    8  C12 UNL     1      16.274 -14.255  19.237  1.00  0.00     0.132 C
BRANCH   8   9
HETATM    9  N2  UNL     1      14.994 -13.959  19.855  1.00  0.00    -0.366 N
HETATM   10  C13 UNL     1      14.527 -14.695  20.879  1.00  0.00     0.091 A
HETATM   11  C14 UNL     1      13.296 -14.413  21.476  1.00  0.00     0.026 A
HETATM   12  C15 UNL     1      12.516 -13.365  21.032  1.00  0.00    -0.036 A
HETATM   13  C20 UNL     1      13.013 -12.623  19.980  1.00  0.00     0.026 A
HETATM   14  C21 UNL     1      14.236 -12.941  19.424  1.00  0.00     0.091 A
BRANCH  12  15
HETATM   15  C16 UNL     1      11.201 -13.044  21.651  1.00  0.00     0.186 C
BRANCH  15  16
HETATM   16  N3  UNL     1      11.329 -12.182  22.793  1.00  0.00    -0.299 N
HETATM   17  C17 UNL     1      11.997 -11.024  22.811  1.00  0.00     0.112 A
HETATM   18  C18 UNL     1      11.879 -10.494  24.102  1.00  0.00     0.037 A
HETATM   19  C19 UNL     1      11.127 -11.382  24.816  1.00  0.00     0.108 A
HETATM   20  N4  UNL     1      10.818 -12.383  23.989  1.00  0.00    -0.310 N
ATOM     21  H4  UNL     1      10.259 -13.196  24.249  1.00  0.00     0.186 HD
ENDBRANCH  15  16
ENDBRANCH  12  15
ENDBRANCH   8   9
ENDBRANCH   7   8
ENDBRANCH   4   7
BRANCH   1  22
HETATM   22  C6  UNL     1      20.803 -14.192  23.727  1.00  0.00     0.058 A
HETATM   23  C5  UNL     1      20.316 -14.106  25.095  1.00  0.00     0.033 A
HETATM   24  C4  UNL     1      21.180 -14.378  26.087  1.00  0.00     0.021 A
HETATM   25  C3  UNL     1      22.563 -14.749  25.819  1.00  0.00     0.110 A
HETATM   26  N1  UNL     1      22.939 -14.808  24.586  1.00  0.00    -0.301 N
HETATM   27  N5  UNL     1      22.049 -14.528  23.553  1.00  0.00    -0.298 N
ATOM     28  H5  UNL     1      22.397 -14.589  22.596  1.00  0.00     0.187 HD
BRANCH  26  29
HETATM   29  C2  UNL     1      24.330 -15.179  24.288  1.00  0.00     0.174 C
BRANCH  29  30
HETATM   30  C1  UNL     1      24.507 -16.641  24.683  1.00  0.00     0.185 C
BRANCH  30  31
HETATM   31  O1  UNL     1      25.694 -16.784  25.392  1.00  0.00    -0.399 OA
ATOM     32  H1  UNL     1      26.421 -16.824  24.782  1.00  0.00     0.209 HD
ENDBRANCH  30  31
ENDBRANCH  29  30
ENDBRANCH  26  29
ENDBRANCH   1  22
TORSDOF 9
ENDMDL