MODEL 5
REMARK VINA RESULT: -7.452871330      2.582      5.072
REMARK  9 active torsions:
REMARK  status: ('A' for Active; 'I' for Inactive)
REMARK    1  A    between atoms: N1_2  and  C2_4
REMARK    2  A    between atoms: C2_4  and  C3_6
REMARK    3  A    between atoms: N3_8  and  C5_9
REMARK    4  A    between atoms: C5_9  and  C6_10
REMARK    5  A    between atoms: C6_10  and  C7_11
REMARK    6  A    between atoms: C7_11  and  C8_12
REMARK    7  A    between atoms: C8_12  and  C9_13
REMARK    8  A    between atoms: C9_13  and  C10_14
REMARK    9  A    between atoms: C16_23  and  N6_24
ROOT
HETATM    1  C8  UNL     1      16.858 -12.904  21.615  1.00  0.00     0.005 C
ENDROOT
BRANCH   1   2
HETATM    2  C7  UNL     1      18.258 -12.450  21.292  1.00  0.00     0.002 C
BRANCH   2   3
HETATM    3  C6  UNL     1      18.837 -13.301  20.181  1.00  0.00     0.020 C
BRANCH   3   4
HETATM    4  C5  UNL     1      20.190 -13.771  20.534  1.00  0.00     0.129 C
BRANCH   4   5
HETATM    5  N3  UNL     1      20.330 -14.583  21.701  1.00  0.00    -0.352 N
HETATM    6  C4  UNL     1      21.036 -14.149  22.764  1.00  0.00     0.108 A
HETATM    7  C3  UNL     1      21.197 -14.876  23.945  1.00  0.00     0.043 A
HETATM    8  C20 UNL     1      20.589 -16.130  24.028  1.00  0.00     0.023 A
HETATM    9  N8  UNL     1      19.883 -16.531  22.932  1.00  0.00    -0.350 N
HETATM   10  C21 UNL     1      20.713 -17.006  25.200  1.00  0.00     0.069 C
HETATM   11  C18 UNL     1      19.761 -15.791  21.824  1.00  0.00     0.185 A
HETATM   12  C19 UNL     1      19.208 -17.841  22.992  1.00  0.00     0.156 C
BRANCH   7  13
HETATM   13  C2  UNL     1      21.961 -14.347  25.059  1.00  0.00     0.129 C
HETATM   14  N2  UNL     1      21.302 -13.779  26.221  1.00  0.00    -0.082 NA
BRANCH  13  15
HETATM   15  N1  UNL     1      23.195 -14.304  25.129  1.00  0.00    -0.364 N
HETATM   16  C1  UNL     1      24.389 -14.207  24.504  1.00  0.00     0.119 C
ATOM     17  H1  UNL     1      23.414 -14.374  26.123  1.00  0.00     0.165 HD
ENDBRANCH  13  15
ENDBRANCH   7  13
ENDBRANCH   4   5
ENDBRANCH   3   4
ENDBRANCH   2   3
ENDBRANCH   1   2
BRANCH   1  18
HETATM   18  C9  UNL     1      15.774 -12.235  20.851  1.00  0.00     0.042 C
BRANCH  18  19
HETATM   19  C10 UNL     1      14.493 -12.951  20.786  1.00  0.00    -0.014 A
HETATM   20  C11 UNL     1      14.317 -14.048  19.971  1.00  0.00     0.099 A
HETATM   21  N4  UNL     1      13.133 -14.686  19.937  1.00  0.00    -0.369 N
HETATM   22  C12 UNL     1      12.970 -15.840  19.083  1.00  0.00     0.154 C
HETATM   23  C13 UNL     1      12.071 -14.294  20.683  1.00  0.00     0.105 A
HETATM   24  C14 UNL     1      12.200 -13.191  21.521  1.00  0.00     0.023 A
HETATM   25  C15 UNL     1      11.134 -12.751  22.290  1.00  0.00     0.121 A
HETATM   26  C17 UNL     1      13.404 -12.532  21.564  1.00  0.00     0.069 A
HETATM   27  N5  UNL     1      11.306 -11.660  23.086  1.00  0.00    -0.201 N
HETATM   28  C16 UNL     1      12.475 -11.012  23.135  1.00  0.00     0.676 A
ATOM     29  H5  UNL     1      10.527 -11.330  23.656  1.00  0.00     0.183 HD
HETATM   30  N7  UNL     1      13.506 -11.460  22.372  1.00  0.00    -0.191 N
ATOM     31  H7  UNL     1      14.395 -10.962  22.414  1.00  0.00     0.184 HD
BRANCH  28  32
HETATM   32  N6  UNL     1      12.571  -9.980  23.908  1.00  0.00    -0.234 N
ATOM     33  H62 UNL     1      11.823  -9.688  24.537  1.00  0.00     0.174 HD
ATOM     34  H61 UNL     1      13.435  -9.439  23.886  1.00  0.00     0.174 HD
ENDBRANCH  28  32
ENDBRANCH  18  19
ENDBRANCH   1  18
TORSDOF 9
ENDMDL