MODEL 2
REMARK VINA RESULT: -7.859384395      1.694     11.690
REMARK  10 active torsions:
REMARK  status: ('A' for Active; 'I' for Inactive)
REMARK    1  A    between atoms: C3_4  and  C4_5
REMARK    2  A    between atoms: C5_6  and  C6_7
REMARK    3  A    between atoms: C6_7  and  C7_8
REMARK    4  A    between atoms: C7_8  and  N2_9
REMARK    5  A    between atoms: C10_12  and  C11_13
REMARK    6  A    between atoms: C11_13  and  C12_14
REMARK    7  A    between atoms: C12_14  and  N3_15
REMARK    8  A    between atoms: C16_24  and  C17_25
REMARK    9  A    between atoms: C17_25  and  N5_26
REMARK   10  A    between atoms: C20_29  and  C21_30
ROOT
HETATM    1  C1  UNL     1      18.475 -15.454  25.964  1.00  0.00     0.155 C
HETATM    2  N1  UNL     1      18.870 -14.978  24.661  1.00  0.00    -0.362 N
HETATM    3  C2  UNL     1      17.949 -14.977  23.656  1.00  0.00     0.111 A
HETATM    4  C3  UNL     1      18.225 -14.559  22.376  1.00  0.00     0.033 A
HETATM    5  C14 UNL     1      19.511 -14.126  22.142  1.00  0.00     0.024 A
HETATM    6  C15 UNL     1      20.431 -14.130  23.162  1.00  0.00     0.028 A
HETATM    7  C16 UNL     1      20.129 -14.561  24.464  1.00  0.00     0.029 A
ENDROOT
BRANCH   4   8
HETATM    8  C4  UNL     1      17.237 -14.568  21.330  1.00  0.00    -0.066 C
HETATM    9  C5  UNL     1      16.397 -14.557  20.455  1.00  0.00    -0.099 C
BRANCH   9  10
HETATM   10  C6  UNL     1      15.374 -14.523  19.409  1.00  0.00     0.114 C
BRANCH  10  11
HETATM   11  C7  UNL     1      15.076 -13.077  19.041  1.00  0.00     0.141 C
BRANCH  11  12
HETATM   12  N2  UNL     1      14.220 -12.488  20.053  1.00  0.00    -0.352 N
HETATM   13  C8  UNL     1      14.691 -11.604  20.946  1.00  0.00     0.093 A
HETATM   14  C9  UNL     1      13.899 -11.032  21.914  1.00  0.00     0.042 A
HETATM   15  C10 UNL     1      12.575 -11.381  21.967  1.00  0.00     0.013 A
HETATM   16  N4  UNL     1      12.110 -12.266  21.071  1.00  0.00    -0.356 N
HETATM   17  C13 UNL     1      12.919 -12.798  20.143  1.00  0.00     0.182 A
ATOM     18  H4  UNL     1      11.128 -12.536  21.095  1.00  0.00     0.166 HD
BRANCH  15  19
HETATM   19  C11 UNL     1      11.667 -10.784  23.008  1.00  0.00     0.084 C
BRANCH  19  20
HETATM   20  C12 UNL     1      11.654 -11.753  24.173  1.00  0.00     0.235 C
BRANCH  20  21
HETATM   21  N3  UNL     1      10.368 -12.381  24.231  1.00  0.00    -0.079 N
ATOM     22  H33 UNL     1       9.848 -12.288  23.359  1.00  0.00     0.274 HD
ATOM     23  H32 UNL     1      10.431 -13.398  24.250  1.00  0.00     0.274 HD
ATOM     24  H31 UNL     1       9.858 -12.006  25.032  1.00  0.00     0.274 HD
ENDBRANCH  20  21
ENDBRANCH  19  20
ENDBRANCH  15  19
ENDBRANCH  11  12
ENDBRANCH  10  11
ENDBRANCH   9  10
ENDBRANCH   4   8
BRANCH   7  25
HETATM   25  C17 UNL     1      21.189 -14.515  25.502  1.00  0.00     0.184 C
BRANCH  25  26
HETATM   26  N5  UNL     1      22.427 -15.153  25.106  1.00  0.00    -0.361 N
HETATM   27  C18 UNL     1      22.488 -16.503  25.153  1.00  0.00     0.091 A
HETATM   28  C19 UNL     1      23.604 -17.217  24.808  1.00  0.00     0.032 A
HETATM   29  C20 UNL     1      24.725 -16.527  24.392  1.00  0.00     0.007 A
HETATM   30  C22 UNL     1      24.662 -15.151  24.344  1.00  0.00     0.032 A
HETATM   31  C23 UNL     1      23.510 -14.489  24.705  1.00  0.00     0.091 A
BRANCH  29  32
HETATM   32  C21 UNL     1      25.943 -17.254  24.014  1.00  0.00     0.120 C
HETATM   33  N6  UNL     1      26.821 -16.788  23.212  1.00  0.00    -0.387 N
ATOM     34  H62 UNL     1      26.696 -15.865  22.798  1.00  0.00     0.157 HD
ATOM     35  H61 UNL     1      27.667 -17.293  22.949  1.00  0.00     0.157 HD
HETATM   36  N7  UNL     1      26.120 -18.554  24.596  1.00  0.00    -0.082 NA
ENDBRANCH  29  32
ENDBRANCH  25  26
ENDBRANCH   7  25
TORSDOF 10
ENDMDL