MODEL 4
REMARK VINA RESULT: -7.480458322      2.048      2.524
REMARK  10 active torsions:
REMARK  status: ('A' for Active; 'I' for Inactive)
REMARK    1  A    between atoms: C6_10  and  C7_11
REMARK    2  A    between atoms: N3_14  and  C10_15
REMARK    3  A    between atoms: C10_15  and  C11_16
REMARK    4  A    between atoms: C11_16  and  C12_17
REMARK    5  A    between atoms: C12_17  and  C13_18
REMARK    6  A    between atoms: C13_18  and  C14_19
REMARK    7  A    between atoms: N5_22  and  C15_23
REMARK    8  A    between atoms: C15_23  and  C16_24
REMARK    9  A    between atoms: C16_24  and  C17_25
REMARK   10  A    between atoms: C17_25  and  C18_26
ROOT
HETATM    1  C7  UNL     1      12.554 -14.386  21.086  1.00  0.00    -0.007 A
HETATM    2  C8  UNL     1      13.225 -14.200  19.884  1.00  0.00     0.031 A
HETATM    3  C9  UNL     1      13.541 -15.293  19.095  1.00  0.00     0.091 A
HETATM    4  N3  UNL     1      13.233 -16.546  19.433  1.00  0.00    -0.366 N
HETATM    5  C21 UNL     1      12.584 -16.743  20.593  1.00  0.00     0.091 A
HETATM    6  C22 UNL     1      12.239 -15.683  21.428  1.00  0.00     0.031 A
ENDROOT
BRANCH   4   7
HETATM    7  C10 UNL     1      13.577 -17.676  18.590  1.00  0.00     0.128 C
BRANCH   7   8
HETATM    8  C11 UNL     1      14.523 -18.556  19.423  1.00  0.00     0.021 C
BRANCH   8   9
HETATM    9  C12 UNL     1      15.814 -17.850  19.680  1.00  0.00     0.009 C
BRANCH   9  10
HETATM   10  C13 UNL     1      16.171 -17.920  21.136  1.00  0.00     0.078 C
BRANCH  10  11
HETATM   11  C14 UNL     1      16.534 -16.558  21.603  1.00  0.00     0.096 A
HETATM   12  N4  UNL     1      17.743 -15.958  21.572  1.00  0.00    -0.285 N
HETATM   13  N5  UNL     1      17.703 -14.742  22.081  1.00  0.00    -0.275 N
ATOM     14  H4  UNL     1      18.587 -16.393  21.200  1.00  0.00     0.188 HD
HETATM   15  C20 UNL     1      16.418 -14.556  22.453  1.00  0.00     0.202 A
HETATM   16  N6  UNL     1      15.700 -15.656  22.166  1.00  0.00    -0.340 N
ATOM     17  H6  UNL     1      14.703 -15.787  22.341  1.00  0.00     0.168 HD
BRANCH  13  18
HETATM   18  C15 UNL     1      18.768 -13.771  22.236  1.00  0.00     0.243 C
BRANCH  18  19
HETATM   19  C16 UNL     1      19.472 -14.088  23.484  1.00  0.00    -0.085 C
BRANCH  19  20
HETATM   20  C17 UNL     1      20.056 -14.343  24.517  1.00  0.00    -0.105 C
BRANCH  20  21
HETATM   21  C18 UNL     1      20.761 -14.668  25.757  1.00  0.00     0.089 C
HETATM   22  C19 UNL     1      20.944 -13.407  26.547  1.00  0.00     0.018 C
ENDBRANCH  20  21
ENDBRANCH  19  20
ENDBRANCH  18  19
ENDBRANCH  13  18
ENDBRANCH  10  11
ENDBRANCH   9  10
ENDBRANCH   8   9
ENDBRANCH   7   8
ENDBRANCH   4   7
BRANCH   1  23
HETATM   23  C6  UNL     1      12.203 -13.256  21.945  1.00  0.00     0.046 A
HETATM   24  C5  UNL     1      13.135 -12.197  22.308  1.00  0.00     0.064 A
HETATM   25  C4  UNL     1      12.528 -11.316  23.095  1.00  0.00     0.080 A
HETATM   26  C3  UNL     1      11.229 -11.756  23.264  1.00  0.00     0.134 A
HETATM   27  N2  UNL     1      12.737 -10.171  23.768  1.00  0.00    -0.340 N
HETATM   28  N1  UNL     1      10.647 -10.851  24.057  1.00  0.00    -0.327 N
HETATM   29  N7  UNL     1      11.095 -12.978  22.515  1.00  0.00    -0.340 N
HETATM   30  C2  UNL     1      11.545  -9.893  24.366  1.00  0.00     0.097 A
ATOM     31  H1  UNL     1       9.679 -10.880  24.376  1.00  0.00     0.169 HD
HETATM   32  C1  UNL     1      11.324  -8.839  25.130  1.00  0.00     0.063 C
ATOM     33  H7  UNL     1      10.245 -13.538  22.450  1.00  0.00     0.167 HD
ATOM     34  H2  UNL     1      13.599  -9.628  23.819  1.00  0.00     0.167 HD
ENDBRANCH   1  23
TORSDOF 10
ENDMDL