MODEL 2
REMARK VINA RESULT: -6.659539620      2.485      5.985
REMARK  11 active torsions:
REMARK  status: ('A' for Active; 'I' for Inactive)
REMARK    1  A    between atoms: C3_3  and  N1_4
REMARK    2  A    between atoms: N2_7  and  C6_8
REMARK    3  A    between atoms: C6_8  and  C7_9
REMARK    4  A    between atoms: C8_10  and  O1_11
REMARK    5  A    between atoms: C8_10  and  C9_13
REMARK    6  A    between atoms: C9_13  and  C10_14
REMARK    7  A    between atoms: C10_14  and  C11_15
REMARK    8  A    between atoms: N3_19  and  C16_21
REMARK    9  A    between atoms: C20_25  and  C21_26
REMARK   10  A    between atoms: C22_27  and  C23_28
REMARK   11  A    between atoms: C23_28  and  O2_29
ROOT
HETATM    1  C1  UNL     1      13.428 -10.444  22.436  1.00  0.00     0.013 C
HETATM    2  C2  UNL     1      13.264 -11.086  21.430  1.00  0.00    -0.089 C
HETATM    3  C3  UNL     1      13.063 -11.877  20.232  1.00  0.00     0.333 C
ENDROOT
BRANCH   3   4
HETATM    4  N1  UNL     1      13.435 -13.232  20.501  1.00  0.00    -0.014 N
HETATM    5  C4  UNL     1      13.264 -14.122  19.397  1.00  0.00     0.270 C
HETATM    6  C5  UNL     1      14.144 -15.287  19.858  1.00  0.00     0.269 C
HETATM    7  N2  UNL     1      14.806 -14.875  21.068  1.00  0.00    -0.021 N
HETATM    8  C18 UNL     1      13.880 -14.853  22.128  1.00  0.00     0.269 C
HETATM    9  C20 UNL     1      14.846 -13.395  20.778  1.00  0.00     0.471 C
HETATM   10  C19 UNL     1      12.857 -13.794  21.674  1.00  0.00     0.270 C
BRANCH   7  11
HETATM   11  C6  UNL     1      16.118 -15.281  21.266  1.00  0.00     0.278 C
BRANCH  11  12
HETATM   12  C7  UNL     1      16.663 -15.963  22.415  1.00  0.00     0.250 C
HETATM   13  C8  UNL     1      18.171 -15.687  22.591  1.00  0.00     0.090 C
HETATM   14  C13 UNL     1      18.308 -16.321  23.951  1.00  0.00     0.068 C
HETATM   15  C14 UNL     1      17.581 -17.614  23.696  1.00  0.00     0.240 C
HETATM   16  N3  UNL     1      16.669 -17.369  22.549  1.00  0.00    -0.062 N
HETATM   17  C15 UNL     1      17.131 -18.109  21.398  1.00  0.00     0.273 C
BRANCH  13  18
HETATM   18  O1  UNL     1      18.962 -16.356  21.705  1.00  0.00    -0.388 OA
ATOM     19  H1  UNL     1      19.507 -17.024  22.104  1.00  0.00     0.210 HD
ENDBRANCH  13  18
BRANCH  13  20
HETATM   20  C9  UNL     1      18.522 -14.242  22.580  1.00  0.00     0.040 C
BRANCH  20  21
HETATM   21  C10 UNL     1      19.806 -13.900  21.877  1.00  0.00     0.003 C
BRANCH  21  22
HETATM   22  C11 UNL     1      19.427 -12.993  20.699  1.00  0.00    -0.004 C
HETATM   23  C12 UNL     1      20.529 -13.091  19.665  1.00  0.00     0.005 C
ENDBRANCH  21  22
ENDBRANCH  20  21
ENDBRANCH  13  20
BRANCH  16  24
HETATM   24  C16 UNL     1      15.433 -18.007  22.965  1.00  0.00     0.233 C
HETATM   25  C17 UNL     1      15.698 -18.868  24.213  1.00  0.00     0.035 C
ENDBRANCH  16  24
ENDBRANCH  11  12
ENDBRANCH   7  11
BRANCH   9  26
HETATM   26  C21 UNL     1      15.663 -13.180  19.610  1.00  0.00    -0.042 C
HETATM   27  C22 UNL     1      16.320 -12.991  18.640  1.00  0.00    -0.077 C
BRANCH  27  28
HETATM   28  C23 UNL     1      17.112 -12.747  17.433  1.00  0.00     0.257 C
BRANCH  28  29
HETATM   29  O2  UNL     1      16.622 -11.567  16.858  1.00  0.00    -0.389 OA
ATOM     30  H2  UNL     1      17.280 -11.267  16.242  1.00  0.00     0.210 HD
ENDBRANCH  28  29
ENDBRANCH  27  28
ENDBRANCH   9  26
ENDBRANCH   3   4
TORSDOF 11
ENDMDL