MODEL 3
REMARK VINA RESULT: -8.659748986      1.203      1.530
REMARK  10 active torsions:
REMARK  status: ('A' for Active; 'I' for Inactive)
REMARK    1  A    between atoms: N2_4  and  N3_6
REMARK    2  A    between atoms: N4_11  and  C4_12
REMARK    3  A    between atoms: C4_12  and  C5_13
REMARK    4  A    between atoms: C6_14  and  C7_15
REMARK    5  A    between atoms: C10_18  and  C11_19
REMARK    6  A    between atoms: C11_19  and  C12_20
REMARK    7  A    between atoms: C12_20  and  C13_21
REMARK    8  A    between atoms: C13_21  and  N5_22
REMARK    9  A    between atoms: C16_25  and  C17_26
REMARK   10  A    between atoms: C17_26  and  O1_27
ROOT
HETATM    1  C7  UNL     1      18.719 -14.241  22.723  1.00  0.00     0.017 A
HETATM    2  C8  UNL     1      18.118 -15.392  22.254  1.00  0.00     0.021 A
HETATM    3  C9  UNL     1      17.216 -15.378  21.207  1.00  0.00     0.008 A
HETATM    4  C10 UNL     1      16.877 -14.196  20.581  1.00  0.00    -0.058 A
HETATM    5  C20 UNL     1      17.463 -13.052  21.034  1.00  0.00     0.008 A
HETATM    6  C21 UNL     1      18.365 -13.065  22.081  1.00  0.00     0.021 A
ENDROOT
BRANCH   1   7
HETATM    7  C6  UNL     1      19.657 -14.255  23.812  1.00  0.00    -0.065 C
HETATM    8  C5  UNL     1      20.449 -14.288  24.727  1.00  0.00    -0.081 C
BRANCH   8   9
HETATM    9  C4  UNL     1      21.405 -14.351  25.843  1.00  0.00     0.223 C
BRANCH   9  10
HETATM   10  N4  UNL     1      22.621 -14.905  25.343  1.00  0.00    -0.342 N
HETATM   11  C3  UNL     1      22.844 -16.223  25.453  1.00  0.00     0.096 A
HETATM   12  C2  UNL     1      24.022 -16.804  24.978  1.00  0.00     0.067 A
HETATM   13  C1  UNL     1      24.961 -15.976  24.384  1.00  0.00     0.123 A
HETATM   14  N3  UNL     1      26.071 -16.469  23.925  1.00  0.00    -0.271 N
HETATM   15  N6  UNL     1      24.713 -14.650  24.284  1.00  0.00    -0.337 N
ATOM     16  H3  UNL     1      26.764 -15.861  23.488  1.00  0.00     0.190 HD
HETATM   17  C22 UNL     1      23.545 -14.130  24.766  1.00  0.00     0.185 A
ATOM     18  H6  UNL     1      25.401 -14.036  23.848  1.00  0.00     0.168 HD
BRANCH  14  19
HETATM   19  N2  UNL     1      26.307 -17.836  24.037  1.00  0.00    -0.248 N
HETATM   20  N1  UNL     1      27.472 -18.307  24.015  1.00  0.00    -0.331 N
ATOM     21  H12 UNL     1      28.253 -17.659  23.912  1.00  0.00     0.178 HD
ATOM     22  H11 UNL     1      27.646 -19.309  24.098  1.00  0.00     0.178 HD
ATOM     23  H2  UNL     1      25.516 -18.471  24.140  1.00  0.00     0.207 HD
ENDBRANCH  14  19
ENDBRANCH   9  10
ENDBRANCH   8   9
ENDBRANCH   1   7
BRANCH   4  24
HETATM   24  C11 UNL     1      15.899 -14.238  19.457  1.00  0.00     0.040 C
BRANCH  24  25
HETATM   25  C12 UNL     1      14.816 -13.229  19.596  1.00  0.00     0.025 C
BRANCH  25  26
HETATM   26  C13 UNL     1      13.817 -13.658  20.607  1.00  0.00     0.128 C
BRANCH  26  27
HETATM   27  N5  UNL     1      13.395 -12.671  21.543  1.00  0.00    -0.366 N
HETATM   28  C14 UNL     1      12.498 -12.993  22.483  1.00  0.00     0.091 A
HETATM   29  C15 UNL     1      12.069 -12.050  23.408  1.00  0.00     0.026 A
HETATM   30  C16 UNL     1      12.555 -10.763  23.380  1.00  0.00    -0.032 A
HETATM   31  C18 UNL     1      13.471 -10.438  22.418  1.00  0.00     0.026 A
HETATM   32  C19 UNL     1      13.858 -11.410  21.530  1.00  0.00     0.091 A
BRANCH  30  33
HETATM   33  C17 UNL     1      12.118  -9.719  24.357  1.00  0.00     0.203 C
BRANCH  33  34
HETATM   34  O1  UNL     1      13.168  -8.848  24.677  1.00  0.00    -0.396 OA
ATOM     35  H1  UNL     1      13.117  -8.046  24.171  1.00  0.00     0.209 HD
ENDBRANCH  33  34
ENDBRANCH  30  33
ENDBRANCH  26  27
ENDBRANCH  25  26
ENDBRANCH  24  25
ENDBRANCH   4  24
TORSDOF 10
ENDMDL