MODEL 2
REMARK VINA RESULT: -6.824766674      2.655      5.959
REMARK  4 active torsions:
REMARK  status: ('A' for Active; 'I' for Inactive)
REMARK    1  A    between atoms: C2_2  and  C3_3
REMARK    2  A    between atoms: C3_3  and  O1_4
REMARK    3  A    between atoms: O1_4  and  C4_5
REMARK    4  A    between atoms: C8_9  and  C9_10
ROOT
HETATM    1  C4  UNL     1      18.435   6.233   2.176  1.00  0.00     0.121 C
HETATM    2  C5  UNL     1      19.053   5.537   3.396  1.00  0.00     0.032 C
HETATM    3  C6  UNL     1      20.411   5.041   2.961  1.00  0.00     0.003 C
HETATM    4  C7  UNL     1      20.127   3.910   1.956  1.00  0.00     0.007 C
HETATM    5  C8  UNL     1      19.506   4.583   0.749  1.00  0.00     0.019 C
HETATM    6  C16 UNL     1      18.167   5.124   1.147  1.00  0.00     0.038 C
ENDROOT
BRANCH   5   7
HETATM    7  C9  UNL     1      19.580   3.813  -0.479  1.00  0.00     0.198 C
HETATM    8  N1  UNL     1      20.031   2.435  -0.204  1.00  0.00    -0.070 N
HETATM    9  C10 UNL     1      20.052   1.841  -1.552  1.00  0.00     0.233 C
ATOM     10  H12 UNL     1      20.908   2.363   0.312  1.00  0.00     0.277 HD
ATOM     11  H11 UNL     1      19.472   1.928   0.481  1.00  0.00     0.277 HD
HETATM   12  C11 UNL     1      20.078   2.974  -2.536  1.00  0.00     0.039 C
HETATM   13  C12 UNL     1      20.412   4.162  -1.605  1.00  0.00    -0.010 C
HETATM   14  C13 UNL     1      21.884   4.285  -1.503  1.00  0.00     0.011 C
HETATM   15  C15 UNL     1      20.304   5.423  -2.358  1.00  0.00     0.011 C
HETATM   16  C14 UNL     1      21.751   5.729  -1.978  1.00  0.00     0.002 C
ENDBRANCH   5   7
BRANCH   1  17
HETATM   17  O1  UNL     1      17.227   6.770   2.622  1.00  0.00    -0.386 OA
BRANCH  17  18
HETATM   18  C3  UNL     1      16.798   5.992   3.688  1.00  0.00     0.167 C
BRANCH  18  19
HETATM   19  C2  UNL     1      15.432   5.384   3.425  1.00  0.00     0.022 C
HETATM   20  C1  UNL     1      15.613   3.897   3.217  1.00  0.00     0.007 C
ENDBRANCH  18  19
ENDBRANCH  17  18
ENDBRANCH   1  17
TORSDOF 4
ENDMDL