MODEL 5
REMARK VINA RESULT: -5.907723093      1.206      1.865
REMARK  6 active torsions:
REMARK  status: ('A' for Active; 'I' for Inactive)
REMARK    1  A    between atoms: C4_4  and  C5_5
REMARK    2  A    between atoms: C5_5  and  C6_6
REMARK    3  A    between atoms: C6_6  and  S1_7
REMARK    4  A    between atoms: S1_7  and  C7_8
REMARK    5  A    between atoms: C7_8  and  N1_10
REMARK    6  A    between atoms: N1_10  and  C8_12
ROOT
HETATM    1  C7  UNL     1      19.845   2.554   1.525  1.00  0.00     0.134 C
HETATM    2  S2  UNL     1      18.314   2.870   1.952  1.00  0.00    -0.053 SA
ENDROOT
BRANCH   1   3
HETATM    3  S1  UNL     1      20.985   2.016   2.816  1.00  0.00    -0.101 SA
BRANCH   3   4
HETATM    4  C6  UNL     1      22.151   3.351   3.163  1.00  0.00     0.082 C
BRANCH   4   5
HETATM    5  C5  UNL     1      23.487   3.065   2.550  1.00  0.00     0.015 C
BRANCH   5   6
HETATM    6  C4  UNL     1      24.510   3.969   3.156  1.00  0.00    -0.010 A
HETATM    7  C2  UNL     1      25.565   4.598   2.270  1.00  0.00    -0.014 A
HETATM    8  C1  UNL     1      25.473   4.210   0.798  1.00  0.00     0.010 C
HETATM    9  C3  UNL     1      24.419   5.415   2.845  1.00  0.00     0.009 A
ENDBRANCH   5   6
ENDBRANCH   4   5
ENDBRANCH   3   4
ENDBRANCH   1   3
BRANCH   1  10
HETATM   10  N1  UNL     1      20.289   2.684   0.189  1.00  0.00    -0.371 N
ATOM     11  H1  UNL     1      20.673   1.874  -0.299  1.00  0.00     0.161 HD
BRANCH  10  12
HETATM   12  C8  UNL     1      20.204   3.949  -0.484  1.00  0.00     0.083 C
HETATM   13  C9  UNL     1      19.886   3.700  -1.920  1.00  0.00     0.025 C
HETATM   14  C10 UNL     1      20.209   4.774  -2.880  1.00  0.00     0.002 C
HETATM   15  C11 UNL     1      20.968   5.917  -2.264  1.00  0.00     0.000 C
HETATM   16  C12 UNL     1      22.111   5.236  -1.496  1.00  0.00     0.002 C
HETATM   17  C13 UNL     1      21.472   4.702  -0.234  1.00  0.00     0.025 C
ENDBRANCH  10  12
ENDBRANCH   1  10
TORSDOF 6
ENDMDL