MODEL 3
REMARK VINA RESULT: -6.116152167      2.912      4.728
REMARK  7 active torsions:
REMARK  status: ('A' for Active; 'I' for Inactive)
REMARK    1  A    between atoms: C2_2  and  C3_3
REMARK    2  A    between atoms: C3_3  and  N1_4
REMARK    3  A    between atoms: N1_4  and  C4_6
REMARK    4  A    between atoms: C4_6  and  O1_10
REMARK    5  A    between atoms: O1_10  and  C6_11
REMARK    6  A    between atoms: C6_11  and  C9_14
REMARK    7  A    between atoms: C9_14  and  C10_15
ROOT
HETATM    1  O1  UNL     1      18.379   2.172   1.568  1.00  0.00    -0.308 OA
ENDROOT
BRANCH   1   2
HETATM    2  C4  UNL     1      17.293   2.600   2.240  1.00  0.00     0.215 C
HETATM    3  N2  UNL     1      16.985   3.822   2.189  1.00  0.00    -0.361 N
HETATM    4  C5  UNL     1      15.826   4.377   2.884  1.00  0.00     0.150 C
ATOM      5  H2  UNL     1      17.570   4.450   1.637  1.00  0.00     0.162 HD
BRANCH   2   6
HETATM    6  N1  UNL     1      16.505   1.704   2.994  1.00  0.00    -0.353 N
ATOM      7  H1  UNL     1      16.019   2.077   3.810  1.00  0.00     0.163 HD
BRANCH   6   8
HETATM    8  C3  UNL     1      16.332   0.304   2.702  1.00  0.00     0.149 C
BRANCH   8   9
HETATM    9  C2  UNL     1      16.730  -0.600   3.803  1.00  0.00    -0.018 C
HETATM   10  C1  UNL     1      17.741  -0.303   4.601  1.00  0.00     0.008 C
ENDBRANCH   8   9
ENDBRANCH   6   8
ENDBRANCH   2   6
ENDBRANCH   1   2
BRANCH   1  11
HETATM   11  C6  UNL     1      19.739   2.361   2.010  1.00  0.00     0.081 C
HETATM   12  C7  UNL     1      20.284   0.922   1.847  1.00  0.00     0.051 C
HETATM   13  C8  UNL     1      19.828   2.624   3.466  1.00  0.00     0.051 C
BRANCH  11  14
HETATM   14  C9  UNL     1      20.349   3.303   1.078  1.00  0.00     0.013 C
BRANCH  14  15
HETATM   15  C10 UNL     1      19.885   3.533  -0.279  1.00  0.00    -0.081 C
HETATM   16  C11 UNL     1      20.734   2.957  -1.393  1.00  0.00     0.034 C
HETATM   17  C12 UNL     1      19.869   3.120  -2.659  1.00  0.00     0.004 C
HETATM   18  C13 UNL     1      19.834   4.556  -3.099  1.00  0.00     0.001 C
HETATM   19  C14 UNL     1      20.215   5.410  -1.917  1.00  0.00     0.004 C
HETATM   20  C15 UNL     1      19.446   4.892  -0.690  1.00  0.00     0.034 C
ENDBRANCH  14  15
ENDBRANCH  11  14
ENDBRANCH   1  11
TORSDOF 7
ENDMDL