MODEL 3
REMARK VINA RESULT: -6.760102988      2.366      4.305
REMARK  5 active torsions:
REMARK  status: ('A' for Active; 'I' for Inactive)
REMARK    1  A    between atoms: N1_2  and  C2_5
REMARK    2  A    between atoms: C2_5  and  C3_6
REMARK    3  A    between atoms: C3_6  and  C4_7
REMARK    4  A    between atoms: C9_12  and  N2_13
REMARK    5  A    between atoms: N2_13  and  N3_15
ROOT
HETATM    1  C4  UNL     1      21.538   4.187   0.695  1.00  0.00    -0.036 C
HETATM    2  C5  UNL     1      21.892   4.099  -0.745  1.00  0.00     0.014 C
HETATM    3  C6  UNL     1      20.734   4.153  -1.687  1.00  0.00    -0.013 C
HETATM    4  C7  UNL     1      20.134   2.823  -2.007  1.00  0.00     0.007 C
HETATM    5  C8  UNL     1      19.975   1.889  -0.885  1.00  0.00     0.033 C
HETATM    6  C9  UNL     1      19.679   2.498   0.449  1.00  0.00     0.048 C
HETATM    7  C10 UNL     1      18.684   3.612   0.400  1.00  0.00     0.037 C
HETATM    8  C11 UNL     1      19.289   4.957   0.157  1.00  0.00    -0.011 C
HETATM    9  C12 UNL     1      19.673   5.166  -1.282  1.00  0.00     0.009 C
HETATM   10  C13 UNL     1      20.484   5.227   1.004  1.00  0.00     0.014 C
HETATM   11  C14 UNL     1      20.968   2.839   1.118  1.00  0.00     0.042 C
ENDROOT
BRANCH   6  12
HETATM   12  N2  UNL     1      19.065   1.427   1.255  1.00  0.00    -0.313 N
ATOM     13  H2  UNL     1      18.053   1.302   1.291  1.00  0.00     0.182 HD
BRANCH  12  14
HETATM   14  N3  UNL     1      19.830   0.686   1.887  1.00  0.00    -0.253 N
HETATM   15  N4  UNL     1      20.205  -0.324   2.474  1.00  0.00    -0.331 N
ATOM     16  H42 UNL     1      19.357  -0.880   2.364  1.00  0.00     0.178 HD
ATOM     17  H41 UNL     1      20.835  -0.935   2.994  1.00  0.00     0.178 HD
ATOM     18  H3  UNL     1      20.655   1.280   1.970  1.00  0.00     0.207 HD
ENDBRANCH  12  14
ENDBRANCH   6  12
BRANCH   1  19
HETATM   19  C3  UNL     1      22.704   4.456   1.581  1.00  0.00     0.037 C
BRANCH  19  20
HETATM   20  C2  UNL     1      24.038   4.405   0.921  1.00  0.00     0.232 C
BRANCH  20  21
HETATM   21  N1  UNL     1      25.006   3.699   1.776  1.00  0.00    -0.079 N
HETATM   22  C1  UNL     1      25.530   4.649   2.748  1.00  0.00     0.266 C
ATOM     23  H12 UNL     1      25.742   3.238   1.241  1.00  0.00     0.276 HD
ATOM     24  H11 UNL     1      24.612   2.866   2.213  1.00  0.00     0.276 HD
ENDBRANCH  20  21
ENDBRANCH  19  20
ENDBRANCH   1  19
TORSDOF 5
ENDMDL