MODEL 1
REMARK VINA RESULT: -7.074711391      0.000      0.000
REMARK  5 active torsions:
REMARK  status: ('A' for Active; 'I' for Inactive)
REMARK    1  A    between atoms: C2_2  and  N1_3
REMARK    2  A    between atoms: C2_2  and  C3_6
REMARK    3  A    between atoms: C3_6  and  O3_7
REMARK    4  A    between atoms: C8_13  and  C9_14
REMARK    5  A    between atoms: C10_15  and  C11_16
ROOT
HETATM    1  C3  UNL     1      19.191   5.114   2.267  1.00  0.00     0.112 C
HETATM    2  C4  UNL     1      19.452   6.197   3.309  1.00  0.00     0.045 C
HETATM    3  C5  UNL     1      20.340   5.709   4.420  1.00  0.00     0.003 C
HETATM    4  C6  UNL     1      21.571   4.998   3.966  1.00  0.00     0.001 C
HETATM    5  C7  UNL     1      21.267   3.904   2.985  1.00  0.00     0.012 C
HETATM    6  C8  UNL     1      20.493   4.542   1.832  1.00  0.00     0.049 C
ENDROOT
BRANCH   1   7
HETATM    7  C2  UNL     1      18.088   4.249   2.630  1.00  0.00     0.106 C
HETATM    8  C1  UNL     1      18.044   3.205   3.422  1.00  0.00     0.048 C
BRANCH   7   9
HETATM    9  N1  UNL     1      16.802   4.561   2.043  1.00  0.00    -0.117 N
HETATM   10  O1  UNL     1      16.056   5.312   2.645  1.00  0.00    -0.532 OA
HETATM   11  O2  UNL     1      16.479   4.008   0.859  1.00  0.00    -0.532 OA
ENDBRANCH   7   9
ENDBRANCH   1   7
BRANCH   1  12
HETATM   12  O3  UNL     1      18.739   5.858   1.133  1.00  0.00    -0.383 OA
ATOM     13  H3  UNL     1      19.052   6.745   1.267  1.00  0.00     0.211 HD
ENDBRANCH   1  12
BRANCH   6  14
HETATM   14  C9  UNL     1      20.486   3.755   0.617  1.00  0.00    -0.018 C
HETATM   15  C10 UNL     1      21.201   3.850  -0.450  1.00  0.00     0.003 C
BRANCH  15  16
HETATM   16  C11 UNL     1      22.261   4.719  -0.889  1.00  0.00    -0.066 C
HETATM   17  C12 UNL     1      23.634   4.761  -0.379  1.00  0.00     0.048 C
HETATM   18  C13 UNL     1      22.004   5.612  -1.891  1.00  0.00    -0.024 C
HETATM   19  C14 UNL     1      20.680   5.704  -2.525  1.00  0.00     0.036 C
ENDBRANCH  15  16
ENDBRANCH   6  14
TORSDOF 5
ENDMDL