MODEL 1
REMARK VINA RESULT: -7.231886220      0.000      0.000
REMARK  4 active torsions:
REMARK  status: ('A' for Active; 'I' for Inactive)
REMARK    1  A    between atoms: C1_2  and  C2_3
REMARK    2  A    between atoms: C1_2  and  C6_9
REMARK    3  A    between atoms: C2_3  and  N1_4
REMARK    4  A    between atoms: N1_4  and  C3_6
ROOT
HETATM    1  C6  UNL     1      21.346   4.959   0.064  1.00  0.00     0.057 C
HETATM    2  C7  UNL     1      22.510   4.189  -0.429  1.00  0.00     0.012 C
HETATM    3  C8  UNL     1      23.820   4.957  -0.228  1.00  0.00     0.001 C
HETATM    4  C9  UNL     1      24.703   4.342   0.805  1.00  0.00     0.000 C
HETATM    5  C10 UNL     1      24.658   5.093   2.139  1.00  0.00     0.000 C
HETATM    6  C11 UNL     1      24.424   4.123   3.236  1.00  0.00     0.000 C
HETATM    7  C12 UNL     1      23.354   4.427   4.203  1.00  0.00     0.000 C
HETATM    8  C13 UNL     1      22.075   4.959   3.700  1.00  0.00     0.000 C
HETATM    9  C14 UNL     1      20.998   3.893   3.499  1.00  0.00     0.000 C
HETATM   10  C15 UNL     1      21.040   3.387   2.045  1.00  0.00     0.001 C
HETATM   11  C16 UNL     1      20.487   4.342   1.084  1.00  0.00     0.012 C
ENDROOT
BRANCH   1  12
HETATM   12  C1  UNL     1      20.467   5.376  -1.082  1.00  0.00     0.148 C
HETATM   13  O1  UNL     1      20.722   6.433  -1.628  1.00  0.00    -0.296 OA
BRANCH  12  14
HETATM   14  C2  UNL     1      19.331   4.560  -1.554  1.00  0.00     0.193 C
BRANCH  14  15
HETATM   15  N1  UNL     1      19.729   3.801  -2.696  1.00  0.00    -0.411 N
ATOM     16  H1  UNL     1      20.067   4.240  -3.552  1.00  0.00     0.154 HD
BRANCH  15  17
HETATM   17  C3  UNL     1      19.621   2.382  -2.555  1.00  0.00     0.077 A
HETATM   18  C4  UNL     1      20.842   1.524  -2.465  1.00  0.00     0.027 A
HETATM   19  C5  UNL     1      19.836   1.665  -1.293  1.00  0.00     0.027 A
ENDBRANCH  15  17
ENDBRANCH  14  15
ENDBRANCH  12  14
ENDBRANCH   1  12
TORSDOF 4
ENDMDL