MODEL 2
REMARK VINA RESULT: -6.366313607      2.022      3.866
REMARK  6 active torsions:
REMARK  status: ('A' for Active; 'I' for Inactive)
REMARK    1  A    between atoms: C1_2  and  N1_3
REMARK    2  A    between atoms: C1_2  and  O1_10
REMARK    3  A    between atoms: N1_3  and  C2_5
REMARK    4  A    between atoms: O1_10  and  C7_11
REMARK    5  A    between atoms: C7_11  and  C8_12
REMARK    6  A    between atoms: C8_12  and  C9_13
ROOT
HETATM    1  S1  UNL     1      26.175   5.140   3.898  1.00  0.00    -0.033 SA
HETATM    2  C1  UNL     1      25.293   4.394   2.727  1.00  0.00     0.210 C
ENDROOT
BRANCH   2   3
HETATM    3  N1  UNL     1      24.362   3.407   3.093  1.00  0.00    -0.357 N
ATOM      4  H1  UNL     1      24.450   2.462   2.720  1.00  0.00     0.162 HD
BRANCH   3   5
HETATM    5  C2  UNL     1      23.290   3.726   3.987  1.00  0.00     0.084 C
HETATM    6  C3  UNL     1      22.103   2.796   3.822  1.00  0.00     0.025 C
HETATM    7  C4  UNL     1      20.858   3.643   3.967  1.00  0.00     0.002 C
HETATM    8  C5  UNL     1      21.373   4.997   4.402  1.00  0.00     0.002 C
HETATM    9  C6  UNL     1      22.672   5.075   3.587  1.00  0.00     0.025 C
ENDBRANCH   3   5
ENDBRANCH   2   3
BRANCH   2  10
HETATM   10  O1  UNL     1      25.460   4.724   1.407  1.00  0.00    -0.327 OA
BRANCH  10  11
HETATM   11  C7  UNL     1      24.660   4.158   0.413  1.00  0.00     0.178 C
BRANCH  11  12
HETATM   12  C8  UNL     1      23.673   5.171  -0.085  1.00  0.00     0.031 C
BRANCH  12  13
HETATM   13  C9  UNL     1      22.536   4.406  -0.748  1.00  0.00    -0.013 C
HETATM   14  C10 UNL     1      21.531   3.968   0.271  1.00  0.00     0.005 C
HETATM   15  C11 UNL     1      20.440   5.006   0.433  1.00  0.00     0.000 C
HETATM   16  C12 UNL     1      19.615   5.085  -0.859  1.00  0.00     0.000 C
HETATM   17  C13 UNL     1      20.478   4.665  -2.037  1.00  0.00     0.000 C
HETATM   18  C14 UNL     1      21.860   5.274  -1.772  1.00  0.00     0.005 C
ENDBRANCH  12  13
ENDBRANCH  11  12
ENDBRANCH  10  11
ENDBRANCH   2  10
TORSDOF 6
ENDMDL