MODEL 2
REMARK VINA RESULT: -6.917157830      3.270      4.588
REMARK  5 active torsions:
REMARK  status: ('A' for Active; 'I' for Inactive)
REMARK    1  A    between atoms: C2_2  and  C3_3
REMARK    2  A    between atoms: C2_2  and  N1_15
REMARK    3  A    between atoms: C3_3  and  C4_4
REMARK    4  A    between atoms: N1_15  and  O1_16
REMARK    5  A    between atoms: N1_15  and  C15_18
ROOT
HETATM    1  C4  UNL     1      19.498   4.060   0.758  1.00  0.00    -0.037 C
HETATM    2  C5  UNL     1      20.860   4.629   0.896  1.00  0.00     0.014 C
HETATM    3  C6  UNL     1      21.570   4.752  -0.462  1.00  0.00    -0.013 C
HETATM    4  C7  UNL     1      20.834   5.748  -1.282  1.00  0.00     0.009 C
HETATM    5  C8  UNL     1      19.437   5.199  -1.500  1.00  0.00    -0.013 C
HETATM    6  C9  UNL     1      19.495   3.856  -2.209  1.00  0.00     0.014 C
HETATM    7  C10 UNL     1      20.204   2.891  -1.283  1.00  0.00    -0.043 C
HETATM    8  C11 UNL     1      20.232   1.545  -2.009  1.00  0.00     0.015 C
HETATM    9  C12 UNL     1      21.604   3.386  -1.105  1.00  0.00     0.014 C
HETATM   10  C13 UNL     1      19.524   2.722   0.036  1.00  0.00     0.018 C
HETATM   11  C14 UNL     1      18.722   4.988  -0.209  1.00  0.00     0.014 C
ENDROOT
BRANCH   1  12
HETATM   12  C3  UNL     1      18.721   4.021   2.016  1.00  0.00     0.037 C
BRANCH  12  13
HETATM   13  C2  UNL     1      17.256   4.143   2.006  1.00  0.00     0.114 C
HETATM   14  C1  UNL     1      16.421   2.933   2.179  1.00  0.00     0.035 C
BRANCH  13  15
HETATM   15  N1  UNL     1      16.912   5.034   3.120  1.00  0.00    -0.232 N
BRANCH  15  16
HETATM   16  O1  UNL     1      16.053   4.656   4.087  1.00  0.00    -0.285 OA
ATOM     17  H1  UNL     1      15.318   4.083   3.904  1.00  0.00     0.245 HD
ENDBRANCH  15  16
BRANCH  15  18
HETATM   18  C15 UNL     1      17.485   6.315   3.194  1.00  0.00     0.376 C
HETATM   19  O2  UNL     1      16.974   7.317   2.655  1.00  0.00    -0.281 OA
ENDBRANCH  15  18
ENDBRANCH  13  15
ENDBRANCH  12  13
ENDBRANCH   1  12
TORSDOF 5
ENDMDL