MODEL 2
REMARK VINA RESULT: -6.978485160      1.597      4.063
REMARK  4 active torsions:
REMARK  status: ('A' for Active; 'I' for Inactive)
REMARK    1  A    between atoms: C4_4  and  C5_5
REMARK    2  A    between atoms: C5_5  and  C6_6
REMARK    3  A    between atoms: C6_6  and  C7_7
REMARK    4  A    between atoms: C7_7  and  N1_8
ROOT
HETATM    1  C5  UNL     1      21.627   4.054   2.723  1.00  0.00    -0.018 C
HETATM    2  C13 UNL     1      20.817   5.193   3.218  1.00  0.00     0.014 C
HETATM    3  C14 UNL     1      21.730   5.192   4.459  1.00  0.00     0.002 C
HETATM    4  C15 UNL     1      21.920   3.714   4.161  1.00  0.00     0.014 C
ENDROOT
BRANCH   1   5
HETATM    5  C4  UNL     1      22.956   4.481   2.074  1.00  0.00    -0.002 C
HETATM    6  C3  UNL     1      22.976   4.218   0.589  1.00  0.00     0.005 C
HETATM    7  C2  UNL     1      24.278   4.857   0.082  1.00  0.00     0.000 C
HETATM    8  C1  UNL     1      25.479   4.194   0.710  1.00  0.00     0.000 C
HETATM    9  C17 UNL     1      25.401   4.412   2.199  1.00  0.00     0.000 C
HETATM   10  C16 UNL     1      24.121   3.725   2.679  1.00  0.00     0.005 C
ENDBRANCH   1   5
BRANCH   1  11
HETATM   11  C6  UNL     1      20.953   3.074   1.883  1.00  0.00    -0.005 C
BRANCH  11  12
HETATM   12  C7  UNL     1      19.514   2.988   1.724  1.00  0.00     0.056 C
BRANCH  12  13
HETATM   13  N1  UNL     1      18.922   3.045   0.435  1.00  0.00    -0.293 NA
HETATM   14  C8  UNL     1      18.442   4.335   0.041  1.00  0.00     0.095 C
HETATM   15  C9  UNL     1      19.526   5.331  -0.269  1.00  0.00     0.015 C
HETATM   16  C10 UNL     1      20.215   4.891  -1.527  1.00  0.00     0.002 C
HETATM   17  C11 UNL     1      19.866   3.454  -1.803  1.00  0.00     0.015 C
HETATM   18  C12 UNL     1      19.931   2.641  -0.531  1.00  0.00     0.095 C
ENDBRANCH  12  13
ENDBRANCH  11  12
ENDBRANCH   1  11
TORSDOF 4
ENDMDL