MODEL 2
REMARK VINA RESULT: -7.893484208      3.262      6.617
REMARK  12 active torsions:
REMARK  status: ('A' for Active; 'I' for Inactive)
REMARK    1  A    between atoms: S1_2  and  C2_3
REMARK    2  A    between atoms: C2_3  and  O1_4
REMARK    3  A    between atoms: C2_3  and  C3_6
REMARK    4  A    between atoms: C3_6  and  N1_7
REMARK    5  A    between atoms: C3_6  and  C9_25
REMARK       I    between atoms: N1_7  and  C4_9
REMARK    6  A    between atoms: C4_9  and  C5_11
REMARK    7  A    between atoms: C5_11  and  N2_12
REMARK    8  A    between atoms: C6_13  and  N3_14
REMARK    9  A    between atoms: C11_29  and  N7_30
REMARK       I    between atoms: N7_30  and  C12_32
REMARK   10  A    between atoms: C12_32  and  C13_34
REMARK   11  A    between atoms: C19_49  and  S3_50
REMARK   12  A    between atoms: S3_50  and  C20_51
ROOT
HETATM    1  C9  UNL     1      32.011 -42.396 -25.177  1.00  0.00    -0.001 C
HETATM    2  C10 UNL     1      31.957 -42.419 -23.837  1.00  0.00     0.033 C
HETATM    3  N6  UNL     1      31.938 -41.772 -22.554  1.00  0.00    -0.369 N
ATOM      4  H6  UNL     1      32.335 -40.920 -22.157  1.00  0.00     0.161 HD
HETATM    5  C11 UNL     1      31.116 -42.844 -22.074  1.00  0.00     0.204 C
HETATM    6  C16 UNL     1      31.936 -43.695 -23.060  1.00  0.00     0.140 C
HETATM    7  S2  UNL     1      30.889 -44.961 -23.754  1.00  0.00    -0.149 SA
HETATM    8  C17 UNL     1      30.869 -44.705 -25.537  1.00  0.00     0.114 C
HETATM    9  C18 UNL     1      31.917 -43.690 -25.852  1.00  0.00    -0.032 C
HETATM   10  C19 UNL     1      32.771 -43.966 -26.763  1.00  0.00     0.061 C
ENDROOT
BRANCH   1  11
HETATM   11  C3  UNL     1      32.103 -41.130 -25.837  1.00  0.00     0.159 C
BRANCH  11  12
HETATM   12  C2  UNL     1      32.854 -39.972 -25.327  1.00  0.00     0.206 C
BRANCH  12  13
HETATM   13  S1  UNL     1      32.727 -38.462 -26.295  1.00  0.00    -0.140 SA
HETATM   14  C1  UNL     1      33.490 -37.100 -25.378  1.00  0.00     0.092 C
ENDBRANCH  12  13
BRANCH  12  15
HETATM   15  O1  UNL     1      34.228 -40.372 -25.511  1.00  0.00    -0.383 OA
ATOM     16  H1  UNL     1      34.604 -40.273 -24.644  1.00  0.00     0.211 HD
ENDBRANCH  12  15
ENDBRANCH  11  12
BRANCH  11  17
HETATM   17  N1  UNL     1      30.732 -40.626 -26.050  1.00  0.00    -0.348 N
HETATM   18  C4  UNL     1      30.035 -40.789 -27.250  1.00  0.00     0.236 C
HETATM   19  O2  UNL     1      30.612 -41.390 -28.176  1.00  0.00    -0.272 OA
ATOM     20  H1  UNL     1      30.271 -40.134 -25.285  1.00  0.00     0.163 HD
BRANCH  18  21
HETATM   21  C5  UNL     1      28.672 -40.294 -27.475  1.00  0.00     0.239 C
BRANCH  21  22
HETATM   22  N2  UNL     1      27.659 -41.294 -27.348  1.00  0.00    -0.257 N
HETATM   23  C6  UNL     1      27.256 -41.798 -26.170  1.00  0.00     0.260 A
HETATM   24  N4  UNL     1      26.252 -42.741 -26.198  1.00  0.00    -0.275 N
HETATM   25  C7  UNL     1      25.693 -43.150 -27.330  1.00  0.00     0.331 A
ATOM     26  H4  UNL     1      25.926 -43.139 -25.317  1.00  0.00     0.173 HD
HETATM   27  O5  UNL     1      24.774 -44.012 -27.370  1.00  0.00    -0.246 OA
HETATM   28  N5  UNL     1      26.116 -42.632 -28.495  1.00  0.00    -0.260 N
HETATM   29  C8  UNL     1      27.086 -41.714 -28.518  1.00  0.00     0.333 A
ATOM     30  H5  UNL     1      25.692 -42.942 -29.369  1.00  0.00     0.175 HD
HETATM   31  O6  UNL     1      27.450 -41.256 -29.628  1.00  0.00    -0.246 OA
BRANCH  23  32
HETATM   32  N3  UNL     1      27.803 -41.455 -24.912  1.00  0.00    -0.079 N
HETATM   33  O3  UNL     1      28.538 -42.188 -24.278  1.00  0.00    -0.529 OA
HETATM   34  O4  UNL     1      27.487 -40.242 -24.353  1.00  0.00    -0.529 OA
ENDBRANCH  23  32
ENDBRANCH  21  22
ENDBRANCH  18  21
ENDBRANCH  11  17
ENDBRANCH   1  11
BRANCH  10  35
HETATM   35  S3  UNL     1      32.697 -45.533 -27.621  1.00  0.00    -0.064 SA
BRANCH  35  36
HETATM   36  C20 UNL     1      33.833 -46.695 -26.891  1.00  0.00     0.164 A
HETATM   37  N12 UNL     1      34.851 -47.279 -27.560  1.00  0.00    -0.331 N
HETATM   38  C21 UNL     1      35.523 -48.101 -26.741  1.00  0.00     0.199 A
ATOM     39  H12 UNL     1      35.076 -47.118 -28.542  1.00  0.00     0.168 HD
HETATM   40  N13 UNL     1      34.927 -48.034 -25.549  1.00  0.00    -0.294 N
HETATM   41  N14 UNL     1      33.907 -47.183 -25.645  1.00  0.00    -0.279 N
ATOM     42  H13 UNL     1      35.204 -48.546 -24.711  1.00  0.00     0.187 HD
ATOM     43  H14 UNL     1      33.275 -46.939 -24.882  1.00  0.00     0.189 HD
ENDBRANCH  35  36
ENDBRANCH  10  35
BRANCH   5  44
HETATM   44  N7  UNL     1      31.358 -43.205 -20.694  1.00  0.00    -0.333 N
HETATM   45  C12 UNL     1      30.420 -43.048 -19.661  1.00  0.00     0.275 C
HETATM   46  O7  UNL     1      29.290 -42.565 -19.916  1.00  0.00    -0.266 OA
ATOM     47  H7  UNL     1      32.267 -43.600 -20.456  1.00  0.00     0.165 HD
BRANCH  45  48
HETATM   48  C13 UNL     1      30.717 -43.428 -18.292  1.00  0.00     0.162 A
HETATM   49  N8  UNL     1      31.963 -43.586 -17.804  1.00  0.00    -0.276 N
HETATM   50  N9  UNL     1      31.843 -43.934 -16.515  1.00  0.00    -0.236 N
ATOM     51  H8  UNL     1      32.835 -43.463 -18.319  1.00  0.00     0.189 HD
HETATM   52  C14 UNL     1      32.931 -44.207 -15.600  1.00  0.00     0.200 C
HETATM   53  N10 UNL     1      30.558 -43.997 -16.184  1.00  0.00    -0.267 N
HETATM   54  C15 UNL     1      29.838 -43.686 -17.277  1.00  0.00     0.149 A
ATOM     55  H10 UNL     1      30.184 -44.237 -15.265  1.00  0.00     0.190 HD
HETATM   56  N11 UNL     1      28.538 -43.632 -17.367  1.00  0.00    -0.382 N
ATOM     57 2H11 UNL     1      27.992 -43.397 -18.195  1.00  0.00     0.157 HD
ATOM     58 1H11 UNL     1      27.882 -43.824 -16.609  1.00  0.00     0.157 HD
ENDBRANCH  45  48
ENDBRANCH   5  44
TORSDOF 12
ENDMDL