MODEL 3
REMARK VINA RESULT: -6.205464088      1.589      1.820
REMARK  20 active torsions:
REMARK  status: ('A' for Active; 'I' for Inactive)
REMARK    1  A    between atoms: C2_2  and  O1_3
REMARK    2  A    between atoms: C2_2  and  C3_5
REMARK    3  A    between atoms: C3_5  and  O2_6
REMARK    4  A    between atoms: O2_6  and  C4_7
REMARK    5  A    between atoms: C5_8  and  O3_9
REMARK    6  A    between atoms: O3_9  and  C6_10
REMARK    7  A    between atoms: C6_10  and  C8_12
REMARK    8  A    between atoms: C6_10  and  C9_15
REMARK    9  A    between atoms: C8_12  and  O4_13
REMARK   10  A    between atoms: C9_15  and  C10_16
REMARK   11  A    between atoms: C10_16  and  S1_17
REMARK   12  A    between atoms: C14_23  and  O7_24
REMARK   13  A    between atoms: C17_29  and  O9_31
REMARK   14  A    between atoms: C19_33  and  O10_34
REMARK   15  A    between atoms: C22_39  and  C23_40
REMARK   16  A    between atoms: C23_40  and  O12_41
REMARK   17  A    between atoms: C25_46  and  O14_47
REMARK   18  A    between atoms: O14_47  and  C26_48
REMARK   19  A    between atoms: C26_48  and  C27_50
REMARK   20  A    between atoms: C27_50  and  O16_51
ROOT
HETATM    1  C23 UNL     1      30.303 -42.620 -29.073  1.00  0.00     0.233 C
HETATM    2  C24 UNL     1      31.068 -42.827 -30.259  1.00  0.00     0.091 C
HETATM    3  N1  UNL     1      31.670 -43.018 -31.207  1.00  0.00    -0.195 NA
ENDROOT
BRANCH   1   4
HETATM    4  C22 UNL     1      31.036 -42.096 -27.876  1.00  0.00     0.082 C
HETATM    5  C13 UNL     1      30.759 -42.868 -26.591  1.00  0.00     0.149 C
HETATM    6  C12 UNL     1      31.755 -42.252 -25.594  1.00  0.00     0.113 A
HETATM    7  O6  UNL     1      29.507 -42.805 -26.405  1.00  0.00    -0.324 OA
HETATM    8  C5  UNL     1      32.158 -43.189 -24.449  1.00  0.00     0.169 A
HETATM    9  C25 UNL     1      31.202 -41.229 -24.700  1.00  0.00     0.213 A
HETATM   10  C4  UNL     1      31.607 -42.168 -23.514  1.00  0.00     0.214 A
HETATM   11  O13 UNL     1      29.816 -41.205 -24.655  1.00  0.00    -0.319 OA
HETATM   12  C20 UNL     1      29.190 -40.466 -25.672  1.00  0.00     0.292 C
HETATM   13  C15 UNL     1      27.836 -41.112 -25.653  1.00  0.00     0.185 C
HETATM   14  O11 UNL     1      29.903 -40.285 -26.686  1.00  0.00    -0.358 OA
HETATM   15  O8  UNL     1      27.858 -42.384 -25.019  1.00  0.00    -0.320 OA
HETATM   16  C16 UNL     1      27.085 -41.234 -26.912  1.00  0.00     0.077 C
HETATM   17  C14 UNL     1      28.531 -43.339 -25.827  1.00  0.00     0.311 C
HETATM   18  C19 UNL     1      27.418 -43.740 -26.807  1.00  0.00     0.245 C
HETATM   19  C17 UNL     1      26.496 -42.620 -27.131  1.00  0.00     0.090 C
HETATM   20  C18 UNL     1      26.124 -42.712 -28.594  1.00  0.00     0.049 C
HETATM   21  C21 UNL     1      30.661 -40.626 -27.625  1.00  0.00     0.181 C
BRANCH   8  22
HETATM   22  O3  UNL     1      33.496 -43.352 -24.258  1.00  0.00    -0.370 OA
BRANCH  22  23
HETATM   23  C6  UNL     1      34.081 -44.509 -24.002  1.00  0.00     0.080 C
HETATM   24  C7  UNL     1      34.519 -44.346 -22.479  1.00  0.00     0.048 C
BRANCH  23  25
HETATM   25  C8  UNL     1      33.350 -45.793 -23.996  1.00  0.00     0.201 C
BRANCH  25  26
HETATM   26  O4  UNL     1      33.428 -46.539 -25.142  1.00  0.00    -0.398 OA
ATOM     27  H4  UNL     1      32.603 -46.743 -25.566  1.00  0.00     0.209 HD
ENDBRANCH  25  26
ENDBRANCH  23  25
BRANCH  23  28
HETATM   28  C9  UNL     1      35.436 -44.763 -24.707  1.00  0.00     0.052 C
BRANCH  28  29
HETATM   29  C10 UNL     1      36.362 -45.510 -23.777  1.00  0.00     0.111 C
BRANCH  29  30
HETATM   30  S1  UNL     1      37.087 -46.949 -24.486  1.00  0.00     0.011 S
HETATM   31  C11 UNL     1      38.045 -46.634 -25.929  1.00  0.00     0.127 C
HETATM   32  O5  UNL     1      35.901 -48.091 -24.900  1.00  0.00    -0.258 OA
ENDBRANCH  29  30
ENDBRANCH  28  29
ENDBRANCH  23  28
ENDBRANCH  22  23
ENDBRANCH   8  22
BRANCH  10  33
HETATM   33  O2  UNL     1      30.515 -42.593 -22.809  1.00  0.00    -0.375 OA
BRANCH  33  34
HETATM   34  C3  UNL     1      30.378 -42.194 -21.521  1.00  0.00     0.199 C
BRANCH  34  35
HETATM   35  C2  UNL     1      30.720 -43.275 -20.545  1.00  0.00     0.138 C
HETATM   36  C1  UNL     1      32.026 -42.889 -19.858  1.00  0.00     0.041 C
BRANCH  35  37
HETATM   37  O1  UNL     1      29.743 -43.236 -19.542  1.00  0.00    -0.394 OA
ATOM     38  H1  UNL     1      28.936 -43.509 -19.964  1.00  0.00     0.210 HD
ENDBRANCH  35  37
ENDBRANCH  34  35
ENDBRANCH  33  34
ENDBRANCH  10  33
BRANCH   9  39
HETATM   39  O14 UNL     1      31.649 -39.945 -24.643  1.00  0.00    -0.278 OA
BRANCH  39  40
HETATM   40  C26 UNL     1      32.769 -39.350 -24.150  1.00  0.00     0.285 C
HETATM   41  O15 UNL     1      33.774 -39.348 -24.878  1.00  0.00    -0.263 OA
BRANCH  40  42
HETATM   42  C27 UNL     1      32.782 -38.726 -22.782  1.00  0.00     0.275 C
BRANCH  42  43
HETATM   43  O16 UNL     1      31.528 -38.691 -22.230  1.00  0.00    -0.391 OA
ATOM     44  H16 UNL     1      31.305 -39.514 -21.813  1.00  0.00     0.210 HD
ENDBRANCH  42  43
ENDBRANCH  40  42
ENDBRANCH  39  40
ENDBRANCH   9  39
BRANCH  17  45
HETATM   45  O7  UNL     1      28.719 -44.452 -24.976  1.00  0.00    -0.341 OA
ATOM     46  H7  UNL     1      29.443 -45.051 -25.115  1.00  0.00     0.215 HD
ENDBRANCH  17  45
BRANCH  18  47
HETATM   47  O10 UNL     1      26.679 -44.799 -26.246  1.00  0.00    -0.384 OA
ATOM     48  H10 UNL     1      25.791 -44.503 -26.086  1.00  0.00     0.210 HD
ENDBRANCH  18  47
BRANCH  19  49
HETATM   49  O9  UNL     1      25.319 -42.785 -26.400  1.00  0.00    -0.387 OA
ATOM     50  H9  UNL     1      24.557 -42.723 -26.964  1.00  0.00     0.210 HD
ENDBRANCH  19  49
ENDBRANCH   1   4
BRANCH   1  51
HETATM   51  O12 UNL     1      29.214 -41.767 -29.387  1.00  0.00    -0.381 OA
ATOM     52  H12 UNL     1      28.441 -42.284 -29.581  1.00  0.00     0.211 HD
ENDBRANCH   1  51
TORSDOF 20
ENDMDL