MODEL 3
REMARK VINA RESULT: -7.482472013      3.145      7.112
REMARK  15 active torsions:
REMARK  status: ('A' for Active; 'I' for Inactive)
REMARK    1  A    between atoms: O1_2  and  C2_3
REMARK    2  A    between atoms: C2_3  and  C3_5
REMARK    3  A    between atoms: C3_5  and  N1_6
REMARK    4  A    between atoms: C4_7  and  C5_8
REMARK    5  A    between atoms: C13_27  and  C14_28
REMARK       I    between atoms: C14_28  and  N6_30
REMARK    6  A    between atoms: N6_30  and  C15_32
REMARK    7  A    between atoms: C15_32  and  O8_33
REMARK    8  A    between atoms: C15_32  and  C16_35
REMARK    9  A    between atoms: C16_35  and  N7_36
REMARK   10  A    between atoms: C16_35  and  C18_42
REMARK   11  A    between atoms: N7_36  and  N8_38
REMARK   12  A    between atoms: N8_38  and  O9_40
REMARK   13  A    between atoms: C20_44  and  C21_45
REMARK   14  A    between atoms: C21_45  and  O10_47
REMARK   15  A    between atoms: C23_49  and  S2_50
ROOT
HETATM    1  N1  UNL     1      31.268 -42.233 -22.230  1.00  0.00    -0.239 NA
HETATM    2  C4  UNL     1      32.586 -41.769 -21.846  1.00  0.00     0.175 C
HETATM    3  C6  UNL     1      32.985 -40.387 -22.253  1.00  0.00     0.113 C
HETATM    4  S1  UNL     1      33.820 -40.460 -23.883  1.00  0.00    -0.091 SA
HETATM    5  C7  UNL     1      33.192 -41.917 -24.756  1.00  0.00     0.154 A
HETATM    6  N2  UNL     1      33.863 -42.611 -25.672  1.00  0.00    -0.320 N
ATOM      7  H2  UNL     1      34.790 -42.407 -26.045  1.00  0.00     0.169 HD
HETATM    8  C8  UNL     1      33.046 -43.654 -26.006  1.00  0.00     0.146 A
HETATM    9  C9  UNL     1      31.858 -43.582 -25.273  1.00  0.00     0.156 A
HETATM   10  C10 UNL     1      30.897 -44.549 -25.422  1.00  0.00     0.280 A
HETATM   11  O5  UNL     1      29.828 -44.515 -24.765  1.00  0.00    -0.265 OA
HETATM   12  N3  UNL     1      31.126 -45.558 -26.292  1.00  0.00    -0.273 N
ATOM     13  H3  UNL     1      30.418 -46.284 -26.413  1.00  0.00     0.173 HD
HETATM   14  C11 UNL     1      32.264 -45.626 -27.001  1.00  0.00     0.330 A
HETATM   15  O6  UNL     1      32.489 -46.570 -27.824  1.00  0.00    -0.246 OA
HETATM   16  N4  UNL     1      33.207 -44.680 -26.851  1.00  0.00    -0.287 N
HETATM   17  C12 UNL     1      34.452 -44.749 -27.618  1.00  0.00     0.163 C
HETATM   18  N5  UNL     1      31.965 -42.489 -24.504  1.00  0.00    -0.269 N
HETATM   19  C13 UNL     1      30.976 -41.939 -23.576  1.00  0.00     0.162 C
ENDROOT
BRANCH  19  20
HETATM   20  C14 UNL     1      29.656 -41.693 -24.100  1.00  0.00     0.282 C
HETATM   21  O7  UNL     1      28.533 -42.092 -23.773  1.00  0.00    -0.265 OA
HETATM   22  N6  UNL     1      29.613 -40.789 -25.245  1.00  0.00    -0.327 N
ATOM     23  H6  UNL     1      30.488 -40.401 -25.598  1.00  0.00     0.165 HD
BRANCH  22  24
HETATM   24  C15 UNL     1      28.382 -40.423 -25.896  1.00  0.00     0.246 C
BRANCH  24  25
HETATM   25  O8  UNL     1      27.341 -40.233 -25.002  1.00  0.00    -0.374 OA
ATOM     26  H8  UNL     1      26.497 -40.161 -25.432  1.00  0.00     0.212 HD
ENDBRANCH  24  25
BRANCH  24  27
HETATM   27  C16 UNL     1      27.997 -41.424 -26.985  1.00  0.00     0.173 C
BRANCH  27  28
HETATM   28  N7  UNL     1      26.604 -41.695 -27.022  1.00  0.00    -0.321 N
ATOM     29  H7  UNL     1      25.933 -40.999 -27.346  1.00  0.00     0.177 HD
BRANCH  28  30
HETATM   30  N8  UNL     1      26.203 -42.939 -26.601  1.00  0.00    -0.116 NA
HETATM   31  C17 UNL     1      24.918 -43.359 -27.128  1.00  0.00     0.170 C
BRANCH  30  32
HETATM   32  O9  UNL     1      26.095 -42.944 -25.246  1.00  0.00    -0.294 OA
ATOM     33  H9  UNL     1      25.178 -42.993 -25.003  1.00  0.00     0.239 HD
ENDBRANCH  30  32
ENDBRANCH  28  30
ENDBRANCH  27  28
BRANCH  27  34
HETATM   34  C18 UNL     1      28.649 -41.050 -28.261  1.00  0.00     0.151 C
HETATM   35  C19 UNL     1      28.090 -39.845 -28.950  1.00  0.00     0.045 C
HETATM   36  C20 UNL     1      29.208 -39.516 -29.919  1.00  0.00     0.055 C
HETATM   37  C23 UNL     1      30.375 -40.320 -29.433  1.00  0.00     0.189 C
HETATM   38  O11 UNL     1      30.027 -40.876 -28.202  1.00  0.00    -0.368 OA
BRANCH  36  39
HETATM   39  C21 UNL     1      29.486 -38.047 -29.984  1.00  0.00     0.121 C
HETATM   40  C22 UNL     1      28.248 -37.248 -29.649  1.00  0.00     0.040 C
BRANCH  39  41
HETATM   41  O10 UNL     1      30.484 -37.688 -29.078  1.00  0.00    -0.395 OA
ATOM     42  H10 UNL     1      30.986 -36.949 -29.401  1.00  0.00     0.210 HD
ENDBRANCH  39  41
ENDBRANCH  36  39
BRANCH  37  43
HETATM   43  S2  UNL     1      30.688 -41.725 -30.562  1.00  0.00    -0.141 SA
HETATM   44  C24 UNL     1      31.410 -43.107 -29.670  1.00  0.00     0.092 C
ENDBRANCH  37  43
ENDBRANCH  27  34
ENDBRANCH  24  27
ENDBRANCH  22  24
ENDBRANCH  19  20
BRANCH   1  45
HETATM   45  C3  UNL     1      30.291 -41.821 -21.297  1.00  0.00     0.209 C
BRANCH  45  46
HETATM   46  C2  UNL     1      30.160 -42.688 -20.076  1.00  0.00     0.272 C
HETATM   47  O2  UNL     1      29.056 -42.854 -19.505  1.00  0.00    -0.264 OA
BRANCH  46  48
HETATM   48  O1  UNL     1      31.246 -43.333 -19.542  1.00  0.00    -0.326 OA
HETATM   49  C1  UNL     1      31.383 -43.515 -18.145  1.00  0.00     0.213 C
ENDBRANCH  46  48
ENDBRANCH  45  46
ENDBRANCH   1  45
BRANCH   2  50
HETATM   50  C5  UNL     1      33.668 -42.748 -21.930  1.00  0.00     0.192 C
HETATM   51  O3  UNL     1      33.467 -43.950 -22.129  1.00  0.00    -0.647 OA
HETATM   52  O4  UNL     1      34.975 -42.325 -21.784  1.00  0.00    -0.647 OA
ENDBRANCH   2  50
TORSDOF 15
ENDMDL