MODEL 4
REMARK VINA RESULT: -9.317021059      2.024      2.633
REMARK  13 active torsions:
REMARK  status: ('A' for Active; 'I' for Inactive)
REMARK    1  A    between atoms: C3_3  and  S1_4
REMARK    2  A    between atoms: S1_4  and  C4_5
REMARK    3  A    between atoms: C5_10  and  N3_11
REMARK    4  A    between atoms: N3_11  and  C6_13
REMARK    5  A    between atoms: C7_16  and  N5_17
REMARK    6  A    between atoms: C8_22  and  N7_23
REMARK    7  A    between atoms: C10_25  and  C11_26
REMARK    8  A    between atoms: C11_26  and  N8_27
REMARK       I    between atoms: N8_27  and  C12_29
REMARK    9  A    between atoms: C12_29  and  C13_31
REMARK   10  A    between atoms: C13_31  and  C14_32
REMARK   11  A    between atoms: C13_31  and  N11_43
REMARK   12  A    between atoms: C14_32  and  N9_33
REMARK   13  A    between atoms: N12_47  and  C21_49
ROOT
HETATM    1  C1  UNL     1      20.714 -48.965 -31.141  1.00  0.00     0.013 C
HETATM    2  C2  UNL     1      21.663 -48.254 -30.932  1.00  0.00    -0.107 C
HETATM    3  C3  UNL     1      22.824 -47.399 -30.662  1.00  0.00     0.175 C
ENDROOT
BRANCH   3   4
HETATM    4  S1  UNL     1      22.331 -45.676 -30.560  1.00  0.00    -0.080 SA
BRANCH   4   5
HETATM    5  C4  UNL     1      23.594 -44.791 -29.627  1.00  0.00     0.175 A
HETATM    6  N1  UNL     1      24.877 -44.609 -29.983  1.00  0.00    -0.265 N
HETATM    7  N2  UNL     1      25.507 -43.914 -29.060  1.00  0.00    -0.129 N
ATOM      8  H1  UNL     1      25.301 -44.957 -30.844  1.00  0.00     0.189 HD
HETATM    9  C5  UNL     1      24.622 -43.630 -28.070  1.00  0.00     0.713 A
ATOM     10  H2  UNL     1      26.489 -43.637 -29.083  1.00  0.00     0.205 HD
HETATM   11  N17 UNL     1      23.466 -44.173 -28.437  1.00  0.00    -0.167 N
ATOM     12  H17 UNL     1      22.604 -44.129 -27.894  1.00  0.00     0.186 HD
BRANCH   9  13
HETATM   13  N3  UNL     1      24.929 -42.901 -26.912  1.00  0.00    -0.020 N
ATOM     14  H3  UNL     1      24.243 -42.237 -26.555  1.00  0.00     0.203 HD
BRANCH  13  15
HETATM   15  C6  UNL     1      26.046 -43.038 -26.281  1.00  0.00     0.714 C
HETATM   16  N4  UNL     1      26.699 -41.909 -25.907  1.00  0.00    -0.022 N
HETATM   17  C7  UNL     1      27.842 -41.774 -25.212  1.00  0.00     0.692 C
ATOM     18  H4  UNL     1      26.259 -41.035 -26.195  1.00  0.00     0.203 HD
HETATM   19  N6  UNL     1      28.827 -42.699 -25.013  1.00  0.00    -0.169 N
HETATM   20  C8  UNL     1      28.864 -43.975 -25.498  1.00  0.00     0.211 C
ATOM     21  H6  UNL     1      29.618 -42.405 -24.440  1.00  0.00     0.186 HD
HETATM   22  C23 UNL     1      27.746 -44.729 -25.779  1.00  0.00     0.306 C
HETATM   23  O7  UNL     1      27.955 -45.953 -25.784  1.00  0.00    -0.263 OA
HETATM   24  N16 UNL     1      26.481 -44.287 -26.041  1.00  0.00    -0.152 N
ATOM     25  H16 UNL     1      25.761 -45.010 -26.059  1.00  0.00     0.187 HD
BRANCH  17  26
HETATM   26  N5  UNL     1      28.090 -40.654 -24.642  1.00  0.00    -0.234 N
ATOM     27  H52 UNL     1      27.908 -40.672 -23.639  1.00  0.00     0.174 HD
ATOM     28  H51 UNL     1      28.432 -39.878 -25.209  1.00  0.00     0.174 HD
ENDBRANCH  17  26
BRANCH  20  29
HETATM   29  N7  UNL     1      30.151 -44.537 -25.719  1.00  0.00    -0.244 N
HETATM   30  C9  UNL     1      31.165 -44.653 -24.846  1.00  0.00     0.131 A
HETATM   31  C10 UNL     1      32.186 -45.261 -25.548  1.00  0.00     0.023 A
HETATM   32  C20 UNL     1      31.773 -45.501 -26.828  1.00  0.00     0.145 A
HETATM   33  N12 UNL     1      32.354 -46.027 -27.812  1.00  0.00    -0.173 N
HETATM   34  N15 UNL     1      30.497 -45.033 -26.892  1.00  0.00    -0.277 N
ATOM     35  H12 UNL     1      31.776 -46.070 -28.652  1.00  0.00     0.186 HD
ATOM     36  H15 UNL     1      29.900 -45.062 -27.719  1.00  0.00     0.189 HD
BRANCH  31  37
HETATM   37  C11 UNL     1      33.510 -45.595 -24.992  1.00  0.00     0.166 C
BRANCH  37  38
HETATM   38  N8  UNL     1      33.597 -45.370 -23.548  1.00  0.00    -0.355 N
HETATM   39  C12 UNL     1      34.218 -44.201 -23.061  1.00  0.00     0.248 C
HETATM   40  O1  UNL     1      34.674 -43.383 -23.926  1.00  0.00    -0.271 OA
ATOM     41  H8  UNL     1      33.210 -46.054 -22.898  1.00  0.00     0.162 HD
BRANCH  39  42
HETATM   42  C13 UNL     1      34.335 -43.931 -21.623  1.00  0.00     0.265 C
BRANCH  42  43
HETATM   43  C14 UNL     1      33.733 -42.658 -21.141  1.00  0.00     0.174 C
BRANCH  43  44
HETATM   44  N9  UNL     1      32.437 -42.697 -20.577  1.00  0.00    -0.306 N
HETATM   45  C15 UNL     1      32.220 -43.138 -19.310  1.00  0.00     0.108 A
HETATM   46  C16 UNL     1      30.980 -43.219 -18.735  1.00  0.00     0.022 A
HETATM   47  C17 UNL     1      30.753 -43.701 -17.349  1.00  0.00     0.056 C
HETATM   48  C18 UNL     1      29.908 -42.826 -19.505  1.00  0.00     0.256 A
HETATM   49  O2  UNL     1      28.738 -42.879 -19.030  1.00  0.00    -0.267 OA
HETATM   50  N10 UNL     1      30.154 -42.395 -20.753  1.00  0.00    -0.275 N
HETATM   51  C19 UNL     1      31.367 -42.316 -21.315  1.00  0.00     0.329 A
ATOM     52  H10 UNL     1      29.354 -42.106 -21.316  1.00  0.00     0.173 HD
HETATM   53  O3  UNL     1      31.501 -41.895 -22.502  1.00  0.00    -0.246 OA
ENDBRANCH  43  44
ENDBRANCH  42  43
BRANCH  42  54
HETATM   54  N11 UNL     1      35.768 -43.892 -21.284  1.00  0.00    -0.140 N
HETATM   55  O4  UNL     1      36.334 -42.830 -20.960  1.00  0.00    -0.536 OA
HETATM   56  O5  UNL     1      36.552 -45.038 -21.309  1.00  0.00    -0.536 OA
ENDBRANCH  42  54
ENDBRANCH  39  42
ENDBRANCH  37  38
ENDBRANCH  31  37
BRANCH  33  57
HETATM   57  C21 UNL     1      33.621 -46.559 -27.984  1.00  0.00     0.705 A
HETATM   58  N13 UNL     1      34.744 -45.930 -28.444  1.00  0.00    -0.178 N
HETATM   59  C22 UNL     1      35.764 -46.802 -28.476  1.00  0.00     0.276 A
ATOM     60  H13 UNL     1      34.798 -44.949 -28.719  1.00  0.00     0.185 HD
HETATM   61  O6  UNL     1      35.295 -47.957 -28.044  1.00  0.00    -0.218 OA
HETATM   62  N14 UNL     1      34.044 -47.827 -27.755  1.00  0.00    -0.090 N
ATOM     63  H14 UNL     1      33.451 -48.578 -27.401  1.00  0.00     0.213 HD
ENDBRANCH  33  57
ENDBRANCH  20  29
ENDBRANCH  13  15
ENDBRANCH   9  13
ENDBRANCH   4   5
ENDBRANCH   3   4
TORSDOF 13
ENDMDL