MODEL 4
REMARK VINA RESULT: -6.403166769      1.749      5.766
REMARK  18 active torsions:
REMARK  status: ('A' for Active; 'I' for Inactive)
REMARK    1  A    between atoms: O1_2  and  C2_3
REMARK    2  A    between atoms: C2_3  and  C3_5
REMARK    3  A    between atoms: C8_10  and  C9_11
REMARK    4  A    between atoms: C9_11  and  O3_12
REMARK    5  A    between atoms: C10_15  and  C11_16
REMARK    6  A    between atoms: C13_22  and  O9_23
REMARK    7  A    between atoms: C15_26  and  O10_27
REMARK    8  A    between atoms: O10_27  and  C16_28
REMARK    9  A    between atoms: C17_30  and  C18_31
REMARK   10  A    between atoms: C17_30  and  C19_34
REMARK   11  A    between atoms: C18_31  and  O12_32
REMARK   12  A    between atoms: C19_34  and  O13_35
REMARK   13  A    between atoms: C20_38  and  O15_39
REMARK   14  A    between atoms: C20_38  and  O16_41
REMARK   15  A    between atoms: C22_43  and  O17_44
REMARK   16  A    between atoms: C23_46  and  C25_48
REMARK   17  A    between atoms: C25_48  and  O18_49
REMARK   18  A    between atoms: O18_49  and  C26_50
ROOT
HETATM    1  C3  UNL     1      31.496 -45.408 -26.439  1.00  0.00     0.109 C
HETATM    2  C4  UNL     1      30.793 -44.862 -25.227  1.00  0.00     0.063 C
HETATM    3  C5  UNL     1      29.338 -45.028 -25.129  1.00  0.00     0.139 C
HETATM    4  C6  UNL     1      28.597 -45.553 -26.308  1.00  0.00     0.035 C
HETATM    5  C7  UNL     1      27.228 -44.910 -26.492  1.00  0.00     0.036 C
HETATM    6  C8  UNL     1      27.240 -43.870 -27.602  1.00  0.00     0.148 C
HETATM    7  O4  UNL     1      28.337 -43.171 -27.814  1.00  0.00    -0.347 OA
HETATM    8  C10 UNL     1      28.921 -42.293 -26.989  1.00  0.00     0.286 C
HETATM    9  C12 UNL     1      28.495 -42.610 -25.598  1.00  0.00     0.312 C
HETATM   10  O7  UNL     1      27.804 -41.788 -24.989  1.00  0.00    -0.261 OA
HETATM   11  O8  UNL     1      28.762 -43.739 -24.834  1.00  0.00    -0.312 OA
HETATM   12  C13 UNL     1      30.405 -42.140 -27.114  1.00  0.00     0.104 C
HETATM   13  C14 UNL     1      31.423 -42.985 -26.591  1.00  0.00    -0.006 C
HETATM   14  C15 UNL     1      31.329 -43.459 -25.148  1.00  0.00     0.164 C
HETATM   15  C23 UNL     1      31.965 -44.207 -27.250  1.00  0.00     0.020 C
HETATM   16  C24 UNL     1      33.504 -44.240 -27.258  1.00  0.00     0.023 C
ENDROOT
BRANCH  14  17
HETATM   17  O10 UNL     1      32.628 -43.572 -24.590  1.00  0.00    -0.348 OA
BRANCH  17  18
HETATM   18  C16 UNL     1      32.773 -42.939 -23.361  1.00  0.00     0.301 C
HETATM   19  O11 UNL     1      31.665 -42.849 -22.624  1.00  0.00    -0.318 OA
HETATM   20  C17 UNL     1      31.688 -42.181 -21.461  1.00  0.00     0.214 C
HETATM   21  O14 UNL     1      32.298 -40.931 -21.514  1.00  0.00    -0.289 OA
HETATM   22  C20 UNL     1      32.712 -40.544 -22.759  1.00  0.00     0.314 C
HETATM   23  C22 UNL     1      33.427 -41.596 -23.551  1.00  0.00     0.266 C
BRANCH  20  24
HETATM   24  C18 UNL     1      30.194 -41.992 -21.060  1.00  0.00     0.235 C
BRANCH  24  25
HETATM   25  O12 UNL     1      29.516 -41.870 -22.274  1.00  0.00    -0.395 OA
ATOM     26  H12 UNL     1      28.708 -41.421 -22.054  1.00  0.00     0.209 HD
ENDBRANCH  24  25
ENDBRANCH  20  24
BRANCH  20  27
HETATM   27  C19 UNL     1      32.321 -42.921 -20.305  1.00  0.00     0.235 C
BRANCH  27  28
HETATM   28  O13 UNL     1      31.524 -43.099 -19.210  1.00  0.00    -0.395 OA
ATOM     29  H13 UNL     1      31.743 -43.841 -18.660  1.00  0.00     0.209 HD
ENDBRANCH  27  28
ENDBRANCH  20  27
BRANCH  22  30
HETATM   30  O15 UNL     1      33.684 -39.523 -22.540  1.00  0.00    -0.341 OA
ATOM     31  H15 UNL     1      34.502 -39.874 -22.873  1.00  0.00     0.215 HD
ENDBRANCH  22  30
BRANCH  22  32
HETATM   32  O16 UNL     1      31.701 -39.956 -23.526  1.00  0.00    -0.336 OA
HETATM   33  C21 UNL     1      32.099 -39.713 -24.829  1.00  0.00     0.208 C
ENDBRANCH  22  32
BRANCH  23  34
HETATM   34  O17 UNL     1      34.785 -41.641 -23.222  1.00  0.00    -0.383 OA
ATOM     35  H17 UNL     1      35.326 -41.695 -24.001  1.00  0.00     0.210 HD
ENDBRANCH  23  34
ENDBRANCH  17  18
ENDBRANCH  14  17
BRANCH   1  36
HETATM   36  C2  UNL     1      32.639 -46.294 -26.023  1.00  0.00     0.264 C
HETATM   37  O2  UNL     1      32.921 -46.408 -24.804  1.00  0.00    -0.265 OA
BRANCH  36  38
HETATM   38  O1  UNL     1      33.429 -47.016 -26.895  1.00  0.00    -0.326 OA
HETATM   39  C1  UNL     1      34.503 -47.821 -26.523  1.00  0.00     0.213 C
ENDBRANCH  36  38
ENDBRANCH   1  36
BRANCH  12  40
HETATM   40  O9  UNL     1      30.661 -41.859 -28.460  1.00  0.00    -0.360 OA
ATOM     41  H9  UNL     1      31.421 -41.289 -28.474  1.00  0.00     0.217 HD
ENDBRANCH  12  40
BRANCH  15  42
HETATM   42  C25 UNL     1      31.625 -44.388 -28.696  1.00  0.00     0.193 C
BRANCH  42  43
HETATM   43  O18 UNL     1      32.844 -44.830 -29.324  1.00  0.00    -0.321 OA
BRANCH  43  44
HETATM   44  C26 UNL     1      32.846 -45.627 -30.449  1.00  0.00     0.254 C
HETATM   45  C27 UNL     1      32.968 -47.122 -30.339  1.00  0.00     0.126 C
HETATM   46  O19 UNL     1      32.742 -45.064 -31.568  1.00  0.00    -0.266 OA
ENDBRANCH  43  44
ENDBRANCH  42  43
ENDBRANCH  15  42
BRANCH   8  47
HETATM   47  C11 UNL     1      28.329 -40.949 -27.288  1.00  0.00     0.227 C
HETATM   48  O5  UNL     1      27.139 -40.752 -27.623  1.00  0.00    -0.645 OA
HETATM   49  O6  UNL     1      29.089 -39.784 -27.210  1.00  0.00    -0.645 OA
ENDBRANCH   8  47
BRANCH   6  50
HETATM   50  C9  UNL     1      25.881 -43.251 -27.611  1.00  0.00     0.196 C
BRANCH  50  51
HETATM   51  O3  UNL     1      25.526 -43.053 -26.248  1.00  0.00    -0.398 OA
ATOM     52  H3  UNL     1      24.692 -42.599 -26.255  1.00  0.00     0.209 HD
ENDBRANCH  50  51
ENDBRANCH   6  50
TORSDOF 18
ENDMDL