MODEL 4
REMARK VINA RESULT: -5.666025082      2.716      5.493
REMARK  13 active torsions:
REMARK  status: ('A' for Active; 'I' for Inactive)
REMARK    1  A    between atoms: O1_2  and  C2_3
REMARK    2  A    between atoms: C3_4  and  S1_5
REMARK    3  A    between atoms: S1_5  and  S2_6
REMARK    4  A    between atoms: S2_6  and  C4_7
REMARK    5  A    between atoms: C4_7  and  N1_8
REMARK       I    between atoms: N1_8  and  C5_10
REMARK    6  A    between atoms: C5_10  and  C6_12
REMARK    7  A    between atoms: C9_25  and  O3_26
REMARK    8  A    between atoms: C10_28  and  C11_29
REMARK       I    between atoms: N8_35  and  C13_37
REMARK    9  A    between atoms: C13_37  and  C14_39
REMARK   10  A    between atoms: C14_39  and  N9_40
REMARK   11  A    between atoms: C14_39  and  C15_44
REMARK   12  A    between atoms: C17_47  and  O7_48
REMARK   13  A    between atoms: O7_48  and  S5_49
ROOT
HETATM    1  C2  UNL     1      30.406 -44.151 -24.854  1.00  0.00     0.098 C
HETATM    2  C3  UNL     1      31.776 -44.490 -24.605  1.00  0.00     0.078 C
HETATM    3  C10 UNL     1      32.606 -43.566 -24.140  1.00  0.00     0.139 C
HETATM    4  N7  UNL     1      32.206 -42.261 -23.955  1.00  0.00    -0.295 N
HETATM    5  S3  UNL     1      32.522 -40.512 -23.519  1.00  0.00     0.005 SA
HETATM    6  C12 UNL     1      31.407 -40.575 -25.013  1.00  0.00     0.097 C
HETATM    7  N8  UNL     1      31.349 -39.869 -26.035  1.00  0.00    -0.320 N
ATOM      8  H8  UNL     1      32.039 -39.117 -26.047  1.00  0.00     0.169 HD
HETATM    9  C13 UNL     1      30.545 -39.890 -27.158  1.00  0.00     0.253 C
HETATM   10  O6  UNL     1      29.383 -39.472 -27.183  1.00  0.00    -0.271 OA
HETATM   11  C16 UNL     1      30.872 -41.764 -24.239  1.00  0.00     0.193 C
HETATM   12  C17 UNL     1      30.055 -42.687 -25.043  1.00  0.00     0.233 C
ENDROOT
BRANCH   2  13
HETATM   13  S1  UNL     1      32.438 -46.087 -24.935  1.00  0.00    -0.048 SA
BRANCH  13  14
HETATM   14  S2  UNL     1      32.888 -46.228 -26.971  1.00  0.00    -0.028 SA
BRANCH  14  15
HETATM   15  C4  UNL     1      34.579 -45.847 -27.243  1.00  0.00     0.287 C
HETATM   16  N6  UNL     1      34.678 -44.428 -27.734  1.00  0.00    -0.033 N
HETATM   17  C8  UNL     1      35.747 -44.917 -28.593  1.00  0.00     0.273 C
ATOM     18  H62 UNL     1      33.871 -43.929 -28.109  1.00  0.00     0.281 HD
ATOM     19  H61 UNL     1      34.815 -43.645 -27.095  1.00  0.00     0.281 HD
HETATM   20  C9  UNL     1      35.213 -46.316 -28.535  1.00  0.00     0.212 C
BRANCH  15  21
HETATM   21  N1  UNL     1      35.515 -45.938 -26.156  1.00  0.00    -0.310 N
HETATM   22  C5  UNL     1      35.939 -47.037 -25.410  1.00  0.00     0.291 C
HETATM   23  O2  UNL     1      35.512 -48.182 -25.626  1.00  0.00    -0.264 OA
ATOM     24  H1  UNL     1      35.940 -45.051 -25.886  1.00  0.00     0.166 HD
BRANCH  22  25
HETATM   25  C6  UNL     1      36.916 -46.900 -24.320  1.00  0.00     0.206 A
HETATM   26  N2  UNL     1      37.970 -47.685 -24.077  1.00  0.00    -0.264 N
HETATM   27  N3  UNL     1      38.576 -47.191 -22.988  1.00  0.00    -0.225 N
ATOM     28  H2  UNL     1      38.257 -48.502 -24.615  1.00  0.00     0.190 HD
HETATM   29  N4  UNL     1      37.945 -46.139 -22.549  1.00  0.00    -0.223 N
ATOM     30  H3  UNL     1      39.416 -47.585 -22.563  1.00  0.00     0.210 HD
HETATM   31  C7  UNL     1      38.305 -45.328 -21.381  1.00  0.00     0.202 C
HETATM   32  N5  UNL     1      36.916 -45.952 -23.371  1.00  0.00    -0.262 N
ATOM     33  H5  UNL     1      36.230 -45.202 -23.291  1.00  0.00     0.190 HD
ENDBRANCH  22  25
ENDBRANCH  15  21
BRANCH  20  34
HETATM   34  O3  UNL     1      34.385 -46.742 -29.528  1.00  0.00    -0.389 OA
ATOM     35  H3  UNL     1      34.201 -47.673 -29.581  1.00  0.00     0.210 HD
ENDBRANCH  20  34
ENDBRANCH  14  15
ENDBRANCH  13  14
ENDBRANCH   2  13
BRANCH   1  36
HETATM   36  O1  UNL     1      29.734 -44.935 -25.756  1.00  0.00    -0.356 OA
HETATM   37  C1  UNL     1      28.800 -45.791 -25.098  1.00  0.00     0.209 C
ENDBRANCH   1  36
BRANCH   3  38
HETATM   38  C11 UNL     1      34.020 -43.894 -23.868  1.00  0.00     0.229 C
HETATM   39  O4  UNL     1      34.922 -43.616 -24.697  1.00  0.00    -0.643 OA
HETATM   40  O5  UNL     1      34.332 -44.509 -22.694  1.00  0.00    -0.643 OA
ENDBRANCH   3  38
BRANCH  12  41
HETATM   41  O7  UNL     1      28.696 -42.639 -24.704  1.00  0.00    -0.242 OA
BRANCH  41  42
HETATM   42  S5  UNL     1      27.596 -42.139 -25.778  1.00  0.00     0.252 S
HETATM   43  O8  UNL     1      27.874 -42.297 -27.229  1.00  0.00    -0.572 OA
HETATM   44  O9  UNL     1      26.328 -42.981 -25.538  1.00  0.00    -0.572 OA
HETATM   45  O10 UNL     1      27.057 -40.549 -25.457  1.00  0.00    -0.572 OA
ENDBRANCH  41  42
ENDBRANCH  12  41
BRANCH   9  46
HETATM   46  C14 UNL     1      31.119 -40.457 -28.441  1.00  0.00     0.285 C
BRANCH  46  47
HETATM   47  N9  UNL     1      30.031 -40.863 -29.306  1.00  0.00    -0.066 N
ATOM     48  H93 UNL     1      29.529 -41.674 -28.944  1.00  0.00     0.275 HD
ATOM     49  H92 UNL     1      29.257 -40.199 -29.294  1.00  0.00     0.275 HD
ATOM     50  H91 UNL     1      30.393 -41.020 -30.247  1.00  0.00     0.275 HD
ENDBRANCH  46  47
BRANCH  46  51
HETATM   51  C15 UNL     1      31.967 -41.678 -28.160  1.00  0.00     0.129 C
HETATM   52  S4  UNL     1      31.132 -43.200 -28.703  1.00  0.00    -0.095 SA
ENDBRANCH  46  51
ENDBRANCH   9  46
TORSDOF 13
ENDMDL