MODEL 4
REMARK VINA RESULT: -6.874766648      1.136      1.529
REMARK  19 active torsions:
REMARK  status: ('A' for Active; 'I' for Inactive)
REMARK    1  A    between atoms: C2_2  and  O2_4
REMARK    2  A    between atoms: O2_4  and  C3_5
REMARK    3  A    between atoms: C3_5  and  C4_6
REMARK    4  A    between atoms: C4_6  and  O3_7
REMARK    5  A    between atoms: O3_7  and  C5_8
REMARK    6  A    between atoms: C6_10  and  C7_11
REMARK    7  A    between atoms: C8_14  and  O7_15
REMARK    8  A    between atoms: O7_15  and  C9_16
REMARK    9  A    between atoms: C11_19  and  O9_20
REMARK   10  A    between atoms: O9_20  and  S1_21
REMARK   11  A    between atoms: C12_25  and  O13_26
REMARK   12  A    between atoms: O13_26  and  C13_27
REMARK   13  A    between atoms: C13_27  and  C14_29
REMARK   14  A    between atoms: C15_30  and  C16_31
REMARK   15  A    between atoms: C18_36  and  O15_37
REMARK   16  A    between atoms: C19_39  and  O16_40
REMARK   17  A    between atoms: C20_42  and  O17_43
REMARK   18  A    between atoms: C22_46  and  O18_47
REMARK   19  A    between atoms: O18_47  and  C23_48
ROOT
HETATM    1  C5  UNL     1      30.034 -45.329 -25.309  1.00  0.00     0.293 C
HETATM    2  O4  UNL     1      28.950 -45.977 -25.940  1.00  0.00    -0.340 OA
HETATM    3  C6  UNL     1      27.746 -45.314 -25.767  1.00  0.00     0.257 C
HETATM    4  C8  UNL     1      27.748 -44.069 -26.581  1.00  0.00     0.204 C
HETATM    5  C11 UNL     1      29.160 -43.411 -26.633  1.00  0.00     0.212 C
HETATM    6  C12 UNL     1      29.809 -43.828 -25.348  1.00  0.00     0.220 C
ENDROOT
BRANCH   6   7
HETATM    7  O13 UNL     1      30.851 -43.089 -24.851  1.00  0.00    -0.307 OA
BRANCH   7   8
HETATM    8  C13 UNL     1      31.220 -42.987 -23.523  1.00  0.00     0.274 C
HETATM    9  O14 UNL     1      31.229 -44.095 -22.942  1.00  0.00    -0.264 OA
BRANCH   8  10
HETATM   10  C14 UNL     1      31.548 -41.702 -22.947  1.00  0.00     0.118 C
HETATM   11  C15 UNL     1      32.947 -41.369 -23.109  1.00  0.00     0.050 C
HETATM   12  C17 UNL     1      33.012 -40.371 -24.233  1.00  0.00     0.046 C
HETATM   13  C18 UNL     1      31.568 -40.090 -24.644  1.00  0.00     0.157 C
HETATM   14  C19 UNL     1      30.847 -40.486 -23.484  1.00  0.00     0.129 C
HETATM   15  C20 UNL     1      29.451 -40.867 -23.390  1.00  0.00     0.159 C
HETATM   16  C21 UNL     1      29.431 -41.604 -22.038  1.00  0.00     0.069 C
HETATM   17  C22 UNL     1      30.912 -41.652 -21.577  1.00  0.00     0.156 C
BRANCH  11  18
HETATM   18  C16 UNL     1      33.673 -40.945 -21.885  1.00  0.00     0.059 C
HETATM   19  N1  UNL     1      34.243 -41.804 -21.139  1.00  0.00    -0.411 N
ATOM     20  H12 UNL     1      34.192 -42.790 -21.399  1.00  0.00     0.155 HD
ATOM     21  H11 UNL     1      34.742 -41.513 -20.298  1.00  0.00     0.155 HD
ENDBRANCH  11  18
BRANCH  13  22
HETATM   22  O15 UNL     1      31.261 -40.543 -25.889  1.00  0.00    -0.392 OA
ATOM     23  H15 UNL     1      31.677 -40.049 -26.586  1.00  0.00     0.210 HD
ENDBRANCH  13  22
BRANCH  14  24
HETATM   24  O16 UNL     1      31.055 -39.484 -22.484  1.00  0.00    -0.383 OA
ATOM     25  H16 UNL     1      30.776 -38.676 -22.897  1.00  0.00     0.210 HD
ENDBRANCH  14  24
BRANCH  15  26
HETATM   26  O17 UNL     1      28.656 -39.725 -23.219  1.00  0.00    -0.392 OA
ATOM     27  H17 UNL     1      28.396 -39.646 -22.308  1.00  0.00     0.210 HD
ENDBRANCH  15  26
BRANCH  17  28
HETATM   28  O18 UNL     1      31.167 -42.847 -20.901  1.00  0.00    -0.315 OA
BRANCH  28  29
HETATM   29  C23 UNL     1      31.233 -42.980 -19.548  1.00  0.00     0.255 C
HETATM   30  C24 UNL     1      29.960 -43.070 -18.751  1.00  0.00     0.126 C
HETATM   31  O19 UNL     1      32.355 -43.026 -18.971  1.00  0.00    -0.266 OA
ENDBRANCH  28  29
ENDBRANCH  17  28
ENDBRANCH   8  10
ENDBRANCH   7   8
ENDBRANCH   6   7
BRANCH   1  32
HETATM   32  O3  UNL     1      31.230 -45.744 -25.830  1.00  0.00    -0.356 OA
BRANCH  32  33
HETATM   33  C4  UNL     1      31.965 -46.428 -24.866  1.00  0.00     0.197 C
BRANCH  33  34
HETATM   34  C3  UNL     1      33.443 -46.133 -24.992  1.00  0.00     0.205 C
BRANCH  34  35
HETATM   35  O2  UNL     1      34.069 -46.738 -26.072  1.00  0.00    -0.320 OA
BRANCH  35  36
HETATM   36  C2  UNL     1      34.928 -47.798 -26.069  1.00  0.00     0.254 C
HETATM   37  C1  UNL     1      36.281 -47.726 -25.465  1.00  0.00     0.126 C
HETATM   38  O1  UNL     1      34.569 -48.859 -26.590  1.00  0.00    -0.266 OA
ENDBRANCH  35  36
ENDBRANCH  34  35
ENDBRANCH  33  34
ENDBRANCH  32  33
ENDBRANCH   1  32
BRANCH   5  39
HETATM   39  O9  UNL     1      29.028 -42.039 -26.671  1.00  0.00    -0.246 OA
BRANCH  39  40
HETATM   40  S1  UNL     1      29.476 -41.387 -28.131  1.00  0.00     0.252 S
HETATM   41  O10 UNL     1      28.474 -41.849 -29.173  1.00  0.00    -0.572 OA
HETATM   42  O11 UNL     1      30.867 -41.682 -28.541  1.00  0.00    -0.572 OA
HETATM   43  O12 UNL     1      29.310 -39.705 -28.026  1.00  0.00    -0.572 OA
ENDBRANCH  39  40
ENDBRANCH   5  39
BRANCH   4  44
HETATM   44  O7  UNL     1      26.807 -43.107 -26.171  1.00  0.00    -0.310 OA
BRANCH  44  45
HETATM   45  C9  UNL     1      25.837 -42.518 -26.922  1.00  0.00     0.255 C
HETATM   46  C10 UNL     1      24.697 -43.360 -27.387  1.00  0.00     0.126 C
HETATM   47  O8  UNL     1      25.957 -41.301 -27.178  1.00  0.00    -0.266 OA
ENDBRANCH  44  45
ENDBRANCH   4  44
BRANCH   3  48
HETATM   48  C7  UNL     1      26.697 -46.223 -26.302  1.00  0.00     0.206 C
HETATM   49  O5  UNL     1      25.966 -46.945 -25.590  1.00  0.00    -0.646 OA
HETATM   50  O6  UNL     1      26.517 -46.274 -27.669  1.00  0.00    -0.646 OA
ENDBRANCH   3  48
TORSDOF 19
ENDMDL