MODEL 2
REMARK VINA RESULT: -8.777653950      0.861      1.108
REMARK  13 active torsions:
REMARK  status: ('A' for Active; 'I' for Inactive)
REMARK    1  A    between atoms: C3_3  and  N1_4
REMARK    2  A    between atoms: C4_6  and  O1_7
REMARK    3  A    between atoms: C4_6  and  C5_9
REMARK    4  A    between atoms: C6_10  and  C7_11
REMARK    5  A    between atoms: C8_12  and  C9_13
REMARK    6  A    between atoms: C11_19  and  N3_20
REMARK       I    between atoms: N3_20  and  C12_22
REMARK    7  A    between atoms: C12_22  and  C13_24
REMARK    8  A    between atoms: C13_24  and  O6_25
REMARK    9  A    between atoms: C13_24  and  C14_27
REMARK   10  A    between atoms: N9_39  and  N10_40
REMARK       I    between atoms: N10_40  and  C18_42
REMARK   11  A    between atoms: N14_49  and  C19_50
REMARK   12  A    between atoms: C19_50  and  N15_51
REMARK   13  A    between atoms: C24_56  and  C25_57
ROOT
HETATM    1  C14 UNL     1      22.476 -45.900 -29.126  1.00  0.00     0.165 C
HETATM    2  C15 UNL     1      22.930 -46.701 -30.294  1.00  0.00     0.062 C
HETATM    3  N4  UNL     1      23.258 -47.322 -31.190  1.00  0.00    -0.197 NA
ENDROOT
BRANCH   1   4
HETATM    4  C13 UNL     1      23.104 -44.556 -29.244  1.00  0.00     0.223 C
BRANCH   4   5
HETATM    5  C12 UNL     1      23.911 -44.127 -28.075  1.00  0.00     0.248 C
HETATM    6  N3  UNL     1      25.097 -44.833 -27.708  1.00  0.00    -0.342 N
ATOM      7  H3  UNL     1      25.381 -45.633 -28.273  1.00  0.00     0.163 HD
HETATM    8  O5  UNL     1      23.621 -43.143 -27.355  1.00  0.00    -0.271 OA
BRANCH   6   9
HETATM    9  C11 UNL     1      25.907 -44.466 -26.580  1.00  0.00     0.220 C
HETATM   10  C10 UNL     1      27.182 -45.282 -26.526  1.00  0.00     0.253 C
HETATM   11  N2  UNL     1      27.889 -44.080 -26.495  1.00  0.00    -0.284 N
HETATM   12  O4  UNL     1      27.357 -46.541 -26.517  1.00  0.00    -0.270 OA
HETATM   13  C8  UNL     1      29.119 -43.380 -26.139  1.00  0.00     0.132 C
HETATM   14  C16 UNL     1      26.808 -43.295 -27.051  1.00  0.00     0.225 C
HETATM   15  C7  UNL     1      28.996 -42.225 -25.516  1.00  0.00     0.069 C
HETATM   16  C17 UNL     1      27.659 -41.568 -25.656  1.00  0.00     0.129 C
HETATM   17  N5  UNL     1      26.704 -42.083 -26.349  1.00  0.00    -0.354 N
HETATM   18  N6  UNL     1      27.497 -40.328 -24.976  1.00  0.00    -0.082 NA
ATOM     19  H5  UNL     1      25.817 -41.581 -26.390  1.00  0.00     0.163 HD
BRANCH  13  20
HETATM   20  C9  UNL     1      30.370 -44.074 -26.372  1.00  0.00     0.228 C
HETATM   21  O2  UNL     1      30.577 -45.291 -26.291  1.00  0.00    -0.643 OA
HETATM   22  O3  UNL     1      31.495 -43.295 -26.735  1.00  0.00    -0.643 OA
ENDBRANCH  13  20
BRANCH  15  23
HETATM   23  C6  UNL     1      30.078 -41.469 -24.927  1.00  0.00     0.100 A
HETATM   24  C5  UNL     1      30.763 -41.444 -23.733  1.00  0.00     0.156 A
HETATM   25  N9  UNL     1      31.797 -40.541 -23.916  1.00  0.00    -0.172 N
HETATM   26  N8  UNL     1      31.719 -40.072 -25.130  1.00  0.00    -0.220 N
HETATM   27  N7  UNL     1      30.725 -40.581 -25.772  1.00  0.00    -0.281 N
ATOM     28  H8  UNL     1      32.365 -39.387 -25.522  1.00  0.00     0.210 HD
ATOM     29  H7  UNL     1      30.461 -40.368 -26.734  1.00  0.00     0.188 HD
BRANCH  24  30
HETATM   30  C4  UNL     1      30.623 -42.312 -22.630  1.00  0.00     0.175 C
HETATM   31  N1  UNL     1      31.113 -43.519 -22.253  1.00  0.00    -0.318 N
ATOM     32  H1  UNL     1      31.078 -43.710 -21.252  1.00  0.00     0.169 HD
BRANCH  31  33
HETATM   33  C3  UNL     1      31.667 -44.556 -23.048  1.00  0.00     0.147 A
HETATM   34  C2  UNL     1      33.004 -44.622 -23.494  1.00  0.00     0.073 A
HETATM   35  C1  UNL     1      33.965 -43.524 -23.316  1.00  0.00     0.074 C
HETATM   36  N14 UNL     1      33.196 -45.798 -24.041  1.00  0.00    -0.261 N
HETATM   37  N13 UNL     1      32.055 -46.468 -23.961  1.00  0.00    -0.237 N
HETATM   38  N12 UNL     1      31.173 -45.733 -23.382  1.00  0.00    -0.269 N
ATOM     39  H13 UNL     1      31.900 -47.416 -24.305  1.00  0.00     0.208 HD
ATOM     40  H12 UNL     1      30.211 -46.024 -23.203  1.00  0.00     0.190 HD
BRANCH  36  41
HETATM   41  C19 UNL     1      34.442 -46.272 -24.647  1.00  0.00     0.275 C
BRANCH  41  42
HETATM   42  N15 UNL     1      34.520 -46.012 -26.025  1.00  0.00    -0.361 N
HETATM   43  C20 UNL     1      35.616 -45.312 -26.556  1.00  0.00     0.061 C
HETATM   44  C21 UNL     1      35.345 -44.709 -27.913  1.00  0.00     0.044 C
HETATM   45  C22 UNL     1      33.936 -44.848 -28.381  1.00  0.00     0.008 C
HETATM   46  C23 UNL     1      33.261 -46.122 -28.066  1.00  0.00     0.037 C
HETATM   47  C24 UNL     1      33.831 -46.871 -26.911  1.00  0.00     0.186 C
BRANCH  47  48
HETATM   48  C25 UNL     1      34.559 -48.061 -27.365  1.00  0.00     0.196 C
HETATM   49  O8  UNL     1      34.793 -49.030 -26.628  1.00  0.00    -0.646 OA
HETATM   50  O9  UNL     1      35.043 -48.167 -28.693  1.00  0.00    -0.646 OA
ENDBRANCH  47  48
ENDBRANCH  41  42
ENDBRANCH  36  41
ENDBRANCH  31  33
BRANCH  30  51
HETATM   51  O1  UNL     1      29.784 -41.816 -21.700  1.00  0.00    -0.344 OA
ATOM     52  H1  UNL     1      29.038 -41.389 -22.104  1.00  0.00     0.219 HD
ENDBRANCH  30  51
ENDBRANCH  24  30
BRANCH  25  53
HETATM   53  N10 UNL     1      32.727 -40.144 -22.968  1.00  0.00    -0.231 N
HETATM   54  C18 UNL     1      33.169 -38.759 -22.949  1.00  0.00     0.348 C
HETATM   55  N11 UNL     1      34.114 -38.395 -21.942  1.00  0.00    -0.038 NA
HETATM   56  O7  UNL     1      32.761 -37.924 -23.745  1.00  0.00    -0.249 OA
ATOM     57  H10 UNL     1      33.097 -40.815 -22.294  1.00  0.00     0.193 HD
ENDBRANCH  25  53
ENDBRANCH  15  23
ENDBRANCH   6   9
ENDBRANCH   4   5
BRANCH   4  58
HETATM   58  O6  UNL     1      23.781 -44.291 -30.415  1.00  0.00    -0.385 OA
ATOM     59  H6  UNL     1      23.784 -43.357 -30.589  1.00  0.00     0.210 HD
ENDBRANCH   4  58
ENDBRANCH   1   4
TORSDOF 13
ENDMDL