MODEL 4
REMARK VINA RESULT: -7.178644439      4.733      9.211
REMARK  16 active torsions:
REMARK  status: ('A' for Active; 'I' for Inactive)
REMARK    1  A    between atoms: O1_2  and  C2_3
REMARK    2  A    between atoms: C2_3  and  O2_4
REMARK    3  A    between atoms: C6_9  and  C7_10
REMARK    4  A    between atoms: C7_10  and  O4_11
REMARK    5  A    between atoms: C7_10  and  C8_13
REMARK    6  A    between atoms: C8_13  and  O5_14
REMARK    7  A    between atoms: C13_21  and  O7_22
REMARK    8  A    between atoms: O7_22  and  C14_23
REMARK    9  A    between atoms: C20_31  and  N1_32
REMARK   10  A    between atoms: C22_37  and  O10_38
REMARK   11  A    between atoms: O10_38  and  S1_39
REMARK   12  A    between atoms: S1_39  and  O13_42
REMARK   13  A    between atoms: O13_42  and  C23_43
REMARK   14  A    between atoms: C23_43  and  C24_44
REMARK   15  A    between atoms: C25_48  and  O14_49
REMARK   16  A    between atoms: C26_51  and  N3_52
ROOT
HETATM    1  C14 UNL     1      30.609 -43.205 -28.667  1.00  0.00     0.291 C
HETATM    2  O8  UNL     1      31.552 -42.226 -29.036  1.00  0.00    -0.351 OA
HETATM    3  C15 UNL     1      31.580 -41.127 -28.219  1.00  0.00     0.150 C
HETATM    4  C16 UNL     1      32.581 -40.151 -28.847  1.00  0.00     0.042 C
HETATM    5  C17 UNL     1      30.259 -40.460 -28.097  1.00  0.00     0.159 C
HETATM    6  O9  UNL     1      30.137 -39.201 -28.614  1.00  0.00    -0.376 OA
HETATM    7  C18 UNL     1      28.756 -39.018 -28.657  1.00  0.00     0.149 C
HETATM    8  C19 UNL     1      28.315 -37.937 -29.589  1.00  0.00     0.042 C
HETATM    9  C20 UNL     1      28.153 -40.374 -29.071  1.00  0.00     0.221 C
HETATM   10  C21 UNL     1      29.327 -41.229 -29.060  1.00  0.00     0.085 C
HETATM   11  C22 UNL     1      29.245 -42.601 -28.441  1.00  0.00     0.208 C
ENDROOT
BRANCH   1  12
HETATM   12  O7  UNL     1      31.088 -44.010 -27.665  1.00  0.00    -0.347 OA
BRANCH  12  13
HETATM   13  C13 UNL     1      32.379 -44.418 -27.840  1.00  0.00     0.194 C
HETATM   14  C2  UNL     1      33.229 -44.367 -26.586  1.00  0.00     0.193 C
HETATM   15  C4  UNL     1      34.520 -44.960 -27.220  1.00  0.00     0.112 C
HETATM   16  C5  UNL     1      33.899 -46.286 -27.673  1.00  0.00     0.101 C
HETATM   17  O3  UNL     1      33.821 -47.099 -26.575  1.00  0.00    -0.344 OA
HETATM   18  C9  UNL     1      34.783 -47.052 -28.587  1.00  0.00     0.156 C
HETATM   19  C11 UNL     1      32.577 -45.859 -28.250  1.00  0.00     0.053 C
HETATM   20  C6  UNL     1      34.855 -48.010 -26.612  1.00  0.00     0.292 C
HETATM   21  O6  UNL     1      35.706 -47.601 -27.663  1.00  0.00    -0.351 OA
HETATM   22  C10 UNL     1      34.033 -48.208 -29.165  1.00  0.00     0.042 C
HETATM   23  C12 UNL     1      32.647 -45.848 -29.784  1.00  0.00     0.016 C
BRANCH  14  24
HETATM   24  O1  UNL     1      33.455 -43.079 -26.164  1.00  0.00    -0.358 OA
HETATM   25  C1  UNL     1      34.625 -42.532 -26.617  1.00  0.00     0.205 C
ENDBRANCH  14  24
BRANCH  14  26
HETATM   26  O2  UNL     1      32.738 -45.212 -25.653  1.00  0.00    -0.358 OA
HETATM   27  C3  UNL     1      32.593 -44.817 -24.369  1.00  0.00     0.205 C
ENDBRANCH  14  26
BRANCH  20  28
HETATM   28  C7  UNL     1      35.695 -48.034 -25.369  1.00  0.00     0.197 C
BRANCH  28  29
HETATM   29  O4  UNL     1      35.181 -47.091 -24.479  1.00  0.00    -0.389 OA
ATOM     30  H4  UNL     1      34.238 -47.202 -24.443  1.00  0.00     0.210 HD
ENDBRANCH  28  29
BRANCH  28  31
HETATM   31  C8  UNL     1      37.140 -47.690 -25.627  1.00  0.00     0.200 C
BRANCH  31  32
HETATM   32  O5  UNL     1      37.831 -47.656 -24.417  1.00  0.00    -0.398 OA
ATOM     33  H5  UNL     1      38.513 -48.317 -24.424  1.00  0.00     0.209 HD
ENDBRANCH  31  32
ENDBRANCH  28  31
ENDBRANCH  20  28
ENDBRANCH  12  13
ENDBRANCH   1  12
BRANCH  11  34
HETATM   34  O10 UNL     1      28.977 -42.584 -27.108  1.00  0.00    -0.243 OA
BRANCH  34  35
HETATM   35  S1  UNL     1      27.980 -43.203 -26.101  1.00  0.00     0.402 S
HETATM   36  O11 UNL     1      27.155 -41.846 -25.722  1.00  0.00    -0.169 OA
HETATM   37  O12 UNL     1      29.299 -44.305 -25.307  1.00  0.00    -0.169 OA
BRANCH  35  38
HETATM   38  O13 UNL     1      26.845 -44.213 -25.529  1.00  0.00    -0.250 OA
BRANCH  38  39
HETATM   39  C23 UNL     1      26.714 -45.569 -25.653  1.00  0.00     0.253 C
BRANCH  39  40
HETATM   40  C24 UNL     1      26.260 -45.971 -27.039  1.00  0.00     0.351 C
HETATM   41  N2  UNL     1      25.494 -47.179 -27.036  1.00  0.00    -0.016 N
HETATM   42  C25 UNL     1      24.259 -46.890 -27.720  1.00  0.00     0.378 C
ATOM     43  H22 UNL     1      25.996 -47.975 -27.430  1.00  0.00     0.283 HD
ATOM     44  H21 UNL     1      25.356 -47.565 -26.102  1.00  0.00     0.283 HD
HETATM   45  C26 UNL     1      24.492 -45.543 -28.321  1.00  0.00     0.377 C
HETATM   46  O15 UNL     1      25.415 -44.956 -27.489  1.00  0.00    -0.321 OA
BRANCH  42  47
HETATM   47  O14 UNL     1      24.049 -47.807 -28.755  1.00  0.00    -0.366 OA
ATOM     48  H14 UNL     1      24.670 -47.659 -29.459  1.00  0.00     0.212 HD
ENDBRANCH  42  47
BRANCH  45  49
HETATM   49  N3  UNL     1      23.275 -44.749 -28.334  1.00  0.00    -0.049 N
ATOM     50  H33 UNL     1      22.622 -45.054 -27.613  1.00  0.00     0.277 HD
ATOM     51  H32 UNL     1      23.446 -43.800 -28.002  1.00  0.00     0.277 HD
ATOM     52  H31 UNL     1      22.839 -44.750 -29.256  1.00  0.00     0.277 HD
ENDBRANCH  45  49
ENDBRANCH  39  40
ENDBRANCH  38  39
ENDBRANCH  35  38
ENDBRANCH  34  35
ENDBRANCH  11  34
BRANCH   9  53
HETATM   53  N1  UNL     1      27.025 -40.712 -28.286  1.00  0.00    -0.072 N
ATOM     54  H13 UNL     1      26.582 -39.880 -27.896  1.00  0.00     0.274 HD
ATOM     55  H12 UNL     1      26.256 -41.046 -28.866  1.00  0.00     0.274 HD
ATOM     56  H11 UNL     1      27.258 -41.385 -27.555  1.00  0.00     0.274 HD
ENDBRANCH   9  53
TORSDOF 16
ENDMDL