MODEL 1
REMARK VINA RESULT: -8.187644482      0.000      0.000
REMARK  18 active torsions:
REMARK  status: ('A' for Active; 'I' for Inactive)
REMARK    1  A    between atoms: S1_2  and  C2_5
REMARK    2  A    between atoms: N1_7  and  C4_8
REMARK    3  A    between atoms: C5_9  and  C6_10
REMARK    4  A    between atoms: C6_10  and  O3_11
REMARK    5  A    between atoms: C6_10  and  C15_41
REMARK    6  A    between atoms: O3_11  and  C7_12
REMARK    7  A    between atoms: C7_12  and  C8_14
REMARK    8  A    between atoms: C8_14  and  S2_15
REMARK    9  A    between atoms: S2_15  and  C9_16
REMARK   10  A    between atoms: C10_19  and  O5_20
REMARK   11  A    between atoms: C11_22  and  C12_23
REMARK   12  A    between atoms: C12_23  and  C13_24
REMARK       I    between atoms: C13_24  and  N3_26
REMARK   13  A    between atoms: N3_26  and  C14_28
REMARK   14  A    between atoms: N8_37  and  N9_38
REMARK   15  A    between atoms: C16_44  and  S3_45
REMARK   16  A    between atoms: S3_45  and  N10_46
REMARK   17  A    between atoms: C17_51  and  O11_52
REMARK   18  A    between atoms: O11_52  and  C18_53
ROOT
HETATM    1  C7  UNL     1      31.163 -41.251 -29.572  1.00  0.00     0.269 C
HETATM    2  O4  UNL     1      32.003 -41.079 -30.500  1.00  0.00    -0.264 OA
ENDROOT
BRANCH   1   3
HETATM    3  O3  UNL     1      29.830 -41.067 -29.904  1.00  0.00    -0.300 OA
BRANCH   3   4
HETATM    4  C6  UNL     1      28.968 -40.203 -29.227  1.00  0.00     0.256 C
BRANCH   4   5
HETATM    5  C5  UNL     1      27.721 -40.989 -28.909  1.00  0.00     0.034 C
HETATM    6  C4  UNL     1      27.683 -42.264 -29.110  1.00  0.00     0.096 C
BRANCH   6   7
HETATM    7  N1  UNL     1      26.650 -43.202 -28.899  1.00  0.00    -0.318 N
HETATM    8  C3  UNL     1      25.748 -43.483 -29.895  1.00  0.00     0.123 A
HETATM    9  C2  UNL     1      24.832 -44.396 -29.491  1.00  0.00     0.111 A
HETATM   10  C17 UNL     1      25.147 -44.710 -28.208  1.00  0.00     0.144 A
HETATM   11  C16 UNL     1      26.282 -43.954 -27.860  1.00  0.00     0.191 A
BRANCH   9  12
HETATM   12  S1  UNL     1      23.514 -45.031 -30.474  1.00  0.00     0.176 S
HETATM   13  C1  UNL     1      24.106 -46.419 -31.419  1.00  0.00     0.167 C
HETATM   14  O1  UNL     1      23.094 -43.972 -31.483  1.00  0.00    -0.223 OA
HETATM   15  O2  UNL     1      22.316 -45.388 -29.662  1.00  0.00    -0.223 OA
ENDBRANCH   9  12
BRANCH  10  16
HETATM   16  O11 UNL     1      24.438 -45.621 -27.437  1.00  0.00    -0.259 OA
BRANCH  16  17
HETATM   17  C18 UNL     1      24.653 -46.998 -27.533  1.00  0.00     0.378 C
HETATM   18  N11 UNL     1      25.572 -47.632 -26.667  1.00  0.00    -0.032 NA
HETATM   19  O12 UNL     1      24.023 -47.683 -28.401  1.00  0.00    -0.242 OA
ENDBRANCH  16  17
ENDBRANCH  10  16
BRANCH  11  20
HETATM   20  S3  UNL     1      26.980 -43.999 -26.284  1.00  0.00     0.275 S
HETATM   21  O9  UNL     1      26.197 -42.992 -25.390  1.00  0.00    -0.199 OA
HETATM   22  O10 UNL     1      28.377 -43.465 -26.193  1.00  0.00    -0.199 OA
BRANCH  20  23
HETATM   23  N10 UNL     1      26.754 -45.497 -25.456  1.00  0.00    -0.323 N
ATOM     24 2H10 UNL     1      25.989 -46.133 -25.684  1.00  0.00     0.169 HD
ATOM     25 1H10 UNL     1      27.448 -45.681 -24.732  1.00  0.00     0.169 HD
ENDBRANCH  20  23
ENDBRANCH  11  20
ENDBRANCH   6   7
ENDBRANCH   4   5
BRANCH   4  26
HETATM   26  C15 UNL     1      28.688 -38.954 -29.944  1.00  0.00     0.207 C
HETATM   27  O7  UNL     1      28.497 -37.857 -29.361  1.00  0.00    -0.646 OA
HETATM   28  O8  UNL     1      28.615 -38.911 -31.343  1.00  0.00    -0.646 OA
ENDBRANCH   4  26
ENDBRANCH   3   4
ENDBRANCH   1   3
BRANCH   1  29
HETATM   29  C8  UNL     1      31.620 -41.630 -28.213  1.00  0.00     0.193 C
BRANCH  29  30
HETATM   30  S2  UNL     1      31.895 -40.217 -27.128  1.00  0.00    -0.082 SA
BRANCH  30  31
HETATM   31  C9  UNL     1      31.023 -40.533 -25.589  1.00  0.00     0.168 A
HETATM   32  N2  UNL     1      29.722 -40.934 -25.488  1.00  0.00    -0.314 N
HETATM   33  C10 UNL     1      29.390 -41.079 -24.194  1.00  0.00     0.167 A
ATOM     34  H2  UNL     1      29.096 -41.098 -26.277  1.00  0.00     0.170 HD
HETATM   35  C11 UNL     1      30.515 -40.763 -23.440  1.00  0.00     0.095 A
HETATM   36  N8  UNL     1      31.479 -40.439 -24.329  1.00  0.00    -0.240 N
BRANCH  33  37
HETATM   37  O5  UNL     1      28.135 -41.476 -23.753  1.00  0.00    -0.345 OA
ATOM     38  H5  UNL     1      27.785 -41.276 -22.893  1.00  0.00     0.219 HD
ENDBRANCH  33  37
BRANCH  35  39
HETATM   39  C12 UNL     1      30.595 -40.784 -21.957  1.00  0.00     0.167 C
BRANCH  39  40
HETATM   40  C13 UNL     1      30.414 -42.135 -21.410  1.00  0.00     0.241 C
HETATM   41  O6  UNL     1      31.101 -43.084 -21.848  1.00  0.00    -0.272 OA
HETATM   42  N3  UNL     1      29.461 -42.348 -20.391  1.00  0.00    -0.157 N
ATOM     43  H3  UNL     1      28.494 -42.056 -20.537  1.00  0.00     0.187 HD
BRANCH  42  44
HETATM   44  C14 UNL     1      29.799 -42.913 -19.266  1.00  0.00     0.716 A
HETATM   45  N4  UNL     1      28.935 -43.204 -18.251  1.00  0.00    -0.115 N
HETATM   46  N5  UNL     1      29.669 -43.765 -17.306  1.00  0.00    -0.213 N
ATOM     47  H4  UNL     1      27.932 -43.025 -18.227  1.00  0.00     0.207 HD
HETATM   48  N6  UNL     1      30.927 -43.837 -17.673  1.00  0.00    -0.213 N
ATOM     49  H5  UNL     1      29.306 -44.097 -16.413  1.00  0.00     0.210 HD
HETATM   50  N7  UNL     1      31.009 -43.309 -18.888  1.00  0.00    -0.115 N
ATOM     51  H6  UNL     1      31.697 -44.226 -17.128  1.00  0.00     0.210 HD
ATOM     52  H7  UNL     1      31.861 -43.223 -19.442  1.00  0.00     0.207 HD
ENDBRANCH  42  44
ENDBRANCH  39  40
ENDBRANCH  35  39
BRANCH  36  53
HETATM   53  N9  UNL     1      32.778 -40.062 -23.962  1.00  0.00    -0.336 N
ATOM     54  H92 UNL     1      33.012 -39.641 -23.063  1.00  0.00     0.177 HD
ATOM     55  H91 UNL     1      33.610 -40.170 -24.543  1.00  0.00     0.177 HD
ENDBRANCH  36  53
ENDBRANCH  30  31
ENDBRANCH  29  30
ENDBRANCH   1  29
TORSDOF 18
ENDMDL