MODEL 3
REMARK VINA RESULT: -4.608944310      1.720      5.175
REMARK  5 active torsions:
REMARK  status: ('A' for Active; 'I' for Inactive)
REMARK    1  A    between atoms: C3_6  and  C4_7
REMARK    2  A    between atoms: C4_7  and  N2_8
REMARK    3  A    between atoms: C4_7  and  C5_12
REMARK    4  A    between atoms: C5_12  and  N3_13
REMARK    5  A    between atoms: C5_12  and  N4_17
ROOT
HETATM    1  C4  UNL     1      25.757  31.456  19.206  1.00  0.00     0.290 C
ENDROOT
BRANCH   1   2
HETATM    2  C3  UNL     1      25.642  32.585  20.107  1.00  0.00     0.048 A
HETATM    3  C2  UNL     1      26.561  33.590  20.196  1.00  0.00     0.075 A
HETATM    4  C1  UNL     1      26.354  34.643  21.097  1.00  0.00     0.101 A
HETATM    5  N1  UNL     1      27.209  35.610  21.203  1.00  0.00    -0.385 N
HETATM    6  N6  UNL     1      25.260  34.680  21.879  1.00  0.00    -0.339 N
ATOM      7  H12 UNL     1      28.038  35.582  20.610  1.00  0.00     0.157 HD
ATOM      8  H11 UNL     1      27.058  36.376  21.858  1.00  0.00     0.157 HD
HETATM    9  C6  UNL     1      24.373  33.679  21.770  1.00  0.00     0.182 A
ATOM     10  H6  UNL     1      25.110  35.446  22.536  1.00  0.00     0.168 HD
HETATM   11  N5  UNL     1      24.565  32.671  20.913  1.00  0.00    -0.354 N
ATOM     12  H5  UNL     1      23.864  31.933  20.867  1.00  0.00     0.166 HD
ENDBRANCH   1   2
BRANCH   1  13
HETATM   13  N2  UNL     1      26.109  31.988  17.878  1.00  0.00    -0.066 N
ATOM     14  H23 UNL     1      25.600  32.840  17.642  1.00  0.00     0.275 HD
ATOM     15  H22 UNL     1      27.050  32.382  17.843  1.00  0.00     0.275 HD
ATOM     16  H21 UNL     1      25.966  31.238  17.202  1.00  0.00     0.275 HD
ENDBRANCH   1  13
BRANCH   1  17
HETATM   17  C5  UNL     1      24.569  30.582  19.033  1.00  0.00     0.413 C
BRANCH  17  18
HETATM   18  N3  UNL     1      23.888  31.118  17.828  1.00  0.00    -0.048 N
ATOM     19  H33 UNL     1      24.409  31.852  17.347  1.00  0.00     0.276 HD
ATOM     20  H32 UNL     1      23.857  30.468  17.043  1.00  0.00     0.276 HD
ATOM     21  H31 UNL     1      22.970  31.410  18.164  1.00  0.00     0.276 HD
ENDBRANCH  17  18
BRANCH  17  22
HETATM   22  N4  UNL     1      24.926  29.214  18.661  1.00  0.00    -0.048 N
ATOM     23  H43 UNL     1      24.612  28.998  17.714  1.00  0.00     0.276 HD
ATOM     24  H42 UNL     1      25.932  29.122  18.526  1.00  0.00     0.276 HD
ATOM     25  H41 UNL     1      24.580  28.523  19.327  1.00  0.00     0.276 HD
ENDBRANCH  17  22
ENDBRANCH   1  17
TORSDOF 5
ENDMDL