MODEL 5
REMARK VINA RESULT: -4.421347879      1.307      2.155
REMARK  6 active torsions:
REMARK  status: ('A' for Active; 'I' for Inactive)
REMARK    1  A    between atoms: N1_1  and  C1_4
REMARK    2  A    between atoms: C2_9  and  S1_10
REMARK    3  A    between atoms: S1_10  and  C3_11
REMARK    4  A    between atoms: C3_11  and  C4_12
REMARK    5  A    between atoms: C4_12  and  N4_13
REMARK    6  A    between atoms: N5_17  and  N6_18
ROOT
HETATM    1  C1  UNL     1      26.910  35.484  20.597  1.00  0.00     0.713 A
HETATM    2  N2  UNL     1      26.310  34.813  21.598  1.00  0.00    -0.129 N
ATOM      3  H2  UNL     1      26.203  35.149  22.555  1.00  0.00     0.205 HD
HETATM    4  N3  UNL     1      25.882  33.648  21.139  1.00  0.00    -0.263 N
ATOM      5  H3  UNL     1      25.393  32.944  21.691  1.00  0.00     0.189 HD
HETATM    6  C2  UNL     1      26.194  33.535  19.825  1.00  0.00     0.198 A
HETATM    7  N5  UNL     1      26.832  34.693  19.519  1.00  0.00    -0.068 N
ENDROOT
BRANCH   6   8
HETATM    8  S1  UNL     1      25.847  32.168  18.724  1.00  0.00    -0.088 SA
BRANCH   8   9
HETATM    9  C3  UNL     1      25.415  30.747  19.729  1.00  0.00     0.109 C
BRANCH   9  10
HETATM   10  C4  UNL     1      24.646  29.698  18.968  1.00  0.00     0.240 C
BRANCH  10  11
HETATM   11  N4  UNL     1      24.597  29.924  17.559  1.00  0.00    -0.079 N
ATOM     12  H43 UNL     1      25.263  29.321  17.075  1.00  0.00     0.274 HD
ATOM     13  H42 UNL     1      23.726  29.565  17.168  1.00  0.00     0.274 HD
ATOM     14  H41 UNL     1      24.736  30.898  17.291  1.00  0.00     0.274 HD
ENDBRANCH  10  11
ENDBRANCH   9  10
ENDBRANCH   8   9
ENDBRANCH   6   8
BRANCH   7  15
HETATM   15  N6  UNL     1      27.316  34.960  18.233  1.00  0.00    -0.322 N
ATOM     16  H62 UNL     1      27.443  35.911  17.886  1.00  0.00     0.178 HD
ATOM     17  H61 UNL     1      27.588  34.282  17.522  1.00  0.00     0.178 HD
ENDBRANCH   7  15
BRANCH   1  18
HETATM   18  N1  UNL     1      27.467  36.649  20.591  1.00  0.00    -0.231 N
ATOM     19  H12 UNL     1      27.727  37.155  21.436  1.00  0.00     0.174 HD
ATOM     20  H11 UNL     1      27.736  37.246  19.809  1.00  0.00     0.174 HD
ENDBRANCH   1  18
TORSDOF 6
ENDMDL