MODEL 2
REMARK VINA RESULT: -5.384341705      0.798      1.143
REMARK  7 active torsions:
REMARK  status: ('A' for Active; 'I' for Inactive)
REMARK    1  A    between atoms: N1_1  and  N2_4
REMARK    2  A    between atoms: N2_4  and  N3_5
REMARK    3  A    between atoms: N3_5  and  C1_7
REMARK    4  A    between atoms: C1_7  and  C2_8
REMARK    5  A    between atoms: C2_8  and  N4_9
REMARK    6  A    between atoms: N7_16  and  N8_17
REMARK    7  A    between atoms: C4_20  and  N9_21
ROOT
HETATM    1  N4  UNL     1      26.539  34.328  20.585  1.00  0.00    -0.106 N
HETATM    2  N5  UNL     1      27.097  34.513  21.777  1.00  0.00    -0.114 N
ATOM      3  H5  UNL     1      26.874  33.998  22.628  1.00  0.00     0.206 HD
HETATM    4  C3  UNL     1      28.016  35.508  21.666  1.00  0.00     0.727 A
HETATM    5  N6  UNL     1      28.756  35.960  22.618  1.00  0.00    -0.231 N
ATOM      6  H61 UNL     1      29.446  36.707  22.536  1.00  0.00     0.174 HD
ATOM      7  H62 UNL     1      28.746  35.629  23.583  1.00  0.00     0.174 HD
HETATM    8  N7  UNL     1      28.029  35.943  20.396  1.00  0.00     0.085 N
HETATM    9  C4  UNL     1      27.116  35.212  19.736  1.00  0.00     0.729 A
ENDROOT
BRANCH   1  10
HETATM   10  C2  UNL     1      25.507  33.370  20.238  1.00  0.00     0.191 C
BRANCH  10  11
HETATM   11  C1  UNL     1      26.208  32.125  19.744  1.00  0.00     0.178 C
BRANCH  11  12
HETATM   12  N3  UNL     1      25.972  31.885  18.338  1.00  0.00    -0.251 N
ATOM     13  H3  UNL     1      26.225  32.568  17.624  1.00  0.00     0.197 HD
BRANCH  12  14
HETATM   14  N2  UNL     1      25.449  30.809  18.051  1.00  0.00    -0.249 NA
BRANCH  14  15
HETATM   15  N1  UNL     1      24.898  29.734  17.758  1.00  0.00    -0.261 N
ATOM     16  H12 UNL     1      24.791  30.679  17.388  1.00  0.00     0.193 HD
ATOM     17  H11 UNL     1      24.457  28.842  17.533  1.00  0.00     0.193 HD
ENDBRANCH  14  15
ENDBRANCH  12  14
ENDBRANCH  11  12
ENDBRANCH  10  11
ENDBRANCH   1  10
BRANCH   9  18
HETATM   18  N9  UNL     1      26.839  35.341  18.484  1.00  0.00    -0.231 N
ATOM     19  H92 UNL     1      25.908  35.234  18.081  1.00  0.00     0.174 HD
ATOM     20  H91 UNL     1      27.508  35.563  17.746  1.00  0.00     0.174 HD
ENDBRANCH   9  18
BRANCH   8  21
HETATM   21  N8  UNL     1      28.831  36.953  19.875  1.00  0.00    -0.309 N
ATOM     22  H82 UNL     1      29.757  37.232  20.199  1.00  0.00     0.178 HD
ATOM     23  H81 UNL     1      28.606  37.562  19.089  1.00  0.00     0.178 HD
ENDBRANCH   8  21
TORSDOF 7
ENDMDL