MODEL 2
REMARK VINA RESULT: -4.563630846      1.523      2.551
REMARK  6 active torsions:
REMARK  status: ('A' for Active; 'I' for Inactive)
REMARK    1  A    between atoms: C2_2  and  N1_3
REMARK    2  A    between atoms: C2_2  and  C3_7
REMARK    3  A    between atoms: C3_7  and  O1_8
REMARK    4  A    between atoms: C3_7  and  N2_10
REMARK    5  A    between atoms: C5_16  and  N5_17
REMARK    6  A    between atoms: N5_17  and  N6_19
ROOT
HETATM    1  N2  UNL     1      26.119  32.778  19.132  1.00  0.00    -0.090 N
HETATM    2  N3  UNL     1      26.724  33.029  17.986  1.00  0.00    -0.277 N
ATOM      3  H3  UNL     1      26.819  32.385  17.200  1.00  0.00     0.188 HD
HETATM    4  C4  UNL     1      27.192  34.283  18.046  1.00  0.00     0.215 A
HETATM    5  N4  UNL     1      26.866  34.815  19.259  1.00  0.00    -0.184 N
ATOM      6  H4  UNL     1      27.089  35.754  19.591  1.00  0.00     0.185 HD
HETATM    7  C5  UNL     1      26.193  33.865  19.933  1.00  0.00     0.716 A
ENDROOT
BRANCH   1   8
HETATM    8  C3  UNL     1      25.465  31.568  19.533  1.00  0.00     0.289 C
BRANCH   8   9
HETATM    9  C2  UNL     1      25.017  30.692  18.432  1.00  0.00     0.230 C
HETATM   10  C1  UNL     1      23.535  30.992  18.183  1.00  0.00     0.044 C
BRANCH   9  11
HETATM   11  N1  UNL     1      25.133  29.296  18.650  1.00  0.00    -0.071 N
ATOM     12  H13 UNL     1      24.234  28.842  18.813  1.00  0.00     0.274 HD
ATOM     13  H12 UNL     1      25.391  28.781  17.809  1.00  0.00     0.274 HD
ATOM     14  H11 UNL     1      25.791  29.163  19.418  1.00  0.00     0.274 HD
ENDBRANCH   9  11
ENDBRANCH   8   9
BRANCH   8  15
HETATM   15  O1  UNL     1      26.273  30.890  20.454  1.00  0.00    -0.372 OA
ATOM     16  H1  UNL     1      26.665  31.479  21.088  1.00  0.00     0.212 HD
ENDBRANCH   8  15
ENDBRANCH   1   8
BRANCH   7  17
HETATM   17  N5  UNL     1      25.709  33.988  21.136  1.00  0.00    -0.137 N
ATOM     18  H5  UNL     1      25.054  33.289  21.486  1.00  0.00     0.205 HD
BRANCH  17  19
HETATM   19  N6  UNL     1      26.069  35.056  21.951  1.00  0.00    -0.331 N
ATOM     20  H62 UNL     1      25.557  35.933  21.856  1.00  0.00     0.177 HD
ATOM     21  H61 UNL     1      26.825  34.971  22.631  1.00  0.00     0.177 HD
ENDBRANCH  17  19
ENDBRANCH   7  17
TORSDOF 6
ENDMDL