MODEL 1
REMARK VINA RESULT: -6.009712978      0.000      0.000
REMARK  4 active torsions:
REMARK  status: ('A' for Active; 'I' for Inactive)
REMARK    1  A    between atoms: N1_1  and  C1_4
REMARK    2  A    between atoms: C2_7  and  N3_8
REMARK    3  A    between atoms: N3_8  and  C3_10
REMARK    4  A    between atoms: C4_12  and  N4_13
ROOT
HETATM    1  C1  UNL     1      23.463  30.190  17.867  1.00  0.00     0.705 A
HETATM    2  N2  UNL     1      24.166  31.334  17.882  1.00  0.00    -0.020 N
ATOM      3  H2  UNL     1      23.970  32.146  17.298  1.00  0.00     0.203 HD
HETATM    4  C2  UNL     1      25.168  31.256  18.780  1.00  0.00     0.711 A
HETATM    5  N5  UNL     1      25.059  30.016  19.322  1.00  0.00    -0.117 N
ATOM      6  H5  UNL     1      25.671  29.633  20.042  1.00  0.00     0.206 HD
HETATM    7  N6  UNL     1      24.034  29.378  18.772  1.00  0.00    -0.118 N
ATOM      8  H6  UNL     1      23.730  28.431  18.997  1.00  0.00     0.206 HD
ENDROOT
BRANCH   4   9
HETATM    9  N3  UNL     1      26.143  32.247  19.106  1.00  0.00    -0.174 N
ATOM     10  H3  UNL     1      27.009  32.313  18.572  1.00  0.00     0.182 HD
BRANCH   9  11
HETATM   11  C3  UNL     1      25.894  33.147  20.188  1.00  0.00     0.394 C
HETATM   12  O1  UNL     1      26.923  33.178  21.129  1.00  0.00    -0.289 OA
HETATM   13  C4  UNL     1      26.674  34.565  21.242  1.00  0.00     0.473 C
HETATM   14  O2  UNL     1      26.173  34.494  19.925  1.00  0.00    -0.289 OA
BRANCH  13  15
HETATM   15  N4  UNL     1      27.870  35.367  21.363  1.00  0.00    -0.029 N
ATOM     16  H43 UNL     1      27.782  36.028  22.134  1.00  0.00     0.280 HD
ATOM     17  H42 UNL     1      28.647  34.803  21.708  1.00  0.00     0.280 HD
ATOM     18  H41 UNL     1      28.131  35.850  20.504  1.00  0.00     0.280 HD
ENDBRANCH  13  15
ENDBRANCH   9  11
ENDBRANCH   4   9
BRANCH   1  19
HETATM   19  N1  UNL     1      22.423  29.915  17.117  1.00  0.00    -0.233 N
ATOM     20  H12 UNL     1      22.326  30.106  16.120  1.00  0.00     0.174 HD
ATOM     21  H11 UNL     1      21.554  29.470  17.414  1.00  0.00     0.174 HD
ENDBRANCH   1  19
TORSDOF 4
ENDMDL