MODEL 2
REMARK VINA RESULT: -5.499063039      1.249      5.293
REMARK  5 active torsions:
REMARK  status: ('A' for Active; 'I' for Inactive)
REMARK    1  A    between atoms: N2_3  and  N3_5
REMARK    2  A    between atoms: N3_5  and  C2_7
REMARK    3  A    between atoms: C3_12  and  C4_13
REMARK    4  A    between atoms: C4_13  and  N6_14
REMARK    5  A    between atoms: C4_13  and  N7_18
ROOT
HETATM    1  C2  UNL     1      26.045  32.225  18.363  1.00  0.00     0.713 A
HETATM    2  N4  UNL     1      26.861  32.814  17.492  1.00  0.00    -0.129 N
ATOM      3  H4  UNL     1      27.104  32.451  16.570  1.00  0.00     0.205 HD
HETATM    4  N5  UNL     1      27.312  33.958  18.020  1.00  0.00    -0.271 N
ATOM      5  H5  UNL     1      27.954  34.612  17.571  1.00  0.00     0.189 HD
HETATM    6  C3  UNL     1      26.774  34.099  19.245  1.00  0.00     0.170 A
HETATM    7  N8  UNL     1      25.990  33.020  19.451  1.00  0.00    -0.173 N
ATOM      8  H8  UNL     1      25.444  32.836  20.293  1.00  0.00     0.185 HD
ENDROOT
BRANCH   6   9
HETATM    9  C4  UNL     1      26.986  35.223  20.216  1.00  0.00     0.446 C
BRANCH   9  10
HETATM   10  N6  UNL     1      27.394  34.744  21.507  1.00  0.00    -0.043 N
ATOM     11  H63 UNL     1      26.874  33.908  21.775  1.00  0.00     0.277 HD
ATOM     12  H62 UNL     1      28.332  34.345  21.476  1.00  0.00     0.277 HD
ATOM     13  H61 UNL     1      27.323  35.469  22.221  1.00  0.00     0.277 HD
ENDBRANCH   9  10
BRANCH   9  14
HETATM   14  N7  UNL     1      27.929  36.159  19.658  1.00  0.00    -0.043 N
ATOM     15  H73 UNL     1      28.872  35.774  19.607  1.00  0.00     0.277 HD
ATOM     16  H72 UNL     1      27.781  36.308  18.660  1.00  0.00     0.277 HD
ATOM     17  H71 UNL     1      27.892  37.028  20.190  1.00  0.00     0.277 HD
ENDBRANCH   9  14
ENDBRANCH   6   9
BRANCH   1  18
HETATM   18  N3  UNL     1      25.383  31.115  18.292  1.00  0.00    -0.130 N
ATOM     19  H3  UNL     1      25.779  30.289  18.739  1.00  0.00     0.205 HD
BRANCH  18  20
HETATM   20  N2  UNL     1      24.168  30.989  17.643  1.00  0.00    -0.284 N
HETATM   21  C1  UNL     1      23.292  30.189  18.102  1.00  0.00     0.207 C
HETATM   22  N1  UNL     1      23.545  29.440  19.254  1.00  0.00    -0.095 NA
ATOM     23  H2  UNL     1      23.976  31.534  16.802  1.00  0.00     0.187 HD
ENDBRANCH  18  20
ENDBRANCH   1  18
TORSDOF 5
ENDMDL