MODEL 2
REMARK VINA RESULT: -4.832420681      1.877      2.787
REMARK  4 active torsions:
REMARK  status: ('A' for Active; 'I' for Inactive)
REMARK    1  A    between atoms: C2_2  and  N1_3
REMARK    2  A    between atoms: N1_3  and  N2_4
REMARK    3  A    between atoms: N1_3  and  C3_7
REMARK    4  A    between atoms: C4_10  and  N4_11
ROOT
HETATM    1  C3  UNL     1      26.238  33.581  19.882  1.00  0.00     0.727 A
HETATM    2  N3  UNL     1      25.653  33.874  21.079  1.00  0.00    -0.020 N
ATOM      3  H3  UNL     1      25.008  33.206  21.501  1.00  0.00     0.203 HD
HETATM    4  C4  UNL     1      25.916  35.029  21.708  1.00  0.00     0.705 A
HETATM    5  N5  UNL     1      26.759  35.948  21.201  1.00  0.00    -0.022 N
ATOM      6  H5  UNL     1      26.948  36.821  21.693  1.00  0.00     0.203 HD
HETATM    7  C5  UNL     1      27.340  35.670  20.024  1.00  0.00     0.705 A
HETATM    8  N6  UNL     1      28.155  36.526  19.503  1.00  0.00    -0.234 N
ATOM      9  H61 UNL     1      28.597  36.315  18.609  1.00  0.00     0.174 HD
ATOM     10  H62 UNL     1      28.355  37.404  19.982  1.00  0.00     0.174 HD
HETATM   11  N7  UNL     1      27.072  34.492  19.381  1.00  0.00    -0.020 N
ATOM     12  H7  UNL     1      27.527  34.305  18.488  1.00  0.00     0.203 HD
ENDROOT
BRANCH   1  13
HETATM   13  N1  UNL     1      25.949  32.359  19.230  1.00  0.00    -0.130 N
BRANCH  13  14
HETATM   14  C2  UNL     1      25.241  31.291  19.843  1.00  0.00     0.163 C
HETATM   15  C1  UNL     1      25.035  30.205  18.800  1.00  0.00     0.029 C
ENDBRANCH  13  14
BRANCH  13  16
HETATM   16  N2  UNL     1      26.379  32.160  17.899  1.00  0.00    -0.329 N
ATOM     17  H22 UNL     1      26.693  31.236  17.604  1.00  0.00     0.177 HD
ATOM     18  H21 UNL     1      26.350  32.970  17.279  1.00  0.00     0.177 HD
ENDBRANCH  13  16
ENDBRANCH   1  13
BRANCH   4  19
HETATM   19  N4  UNL     1      25.368  35.336  22.859  1.00  0.00    -0.234 N
ATOM     20  H42 UNL     1      25.083  34.546  23.437  1.00  0.00     0.174 HD
ATOM     21  H41 UNL     1      25.236  36.303  23.156  1.00  0.00     0.174 HD
ENDBRANCH   4  19
TORSDOF 4
ENDMDL