MODEL 2
REMARK VINA RESULT: -4.446108115      1.974      5.406
REMARK  6 active torsions:
REMARK  status: ('A' for Active; 'I' for Inactive)
REMARK    1  A    between atoms: N1_1  and  C1_4
REMARK    2  A    between atoms: C3_6  and  C4_7
REMARK    3  A    between atoms: C4_7  and  N2_8
REMARK    4  A    between atoms: C4_7  and  C5_12
REMARK    5  A    between atoms: C5_12  and  N3_13
REMARK    6  A    between atoms: C5_12  and  N4_17
ROOT
HETATM    1  C4  UNL     1      25.130  30.630  18.416  1.00  0.00     0.275 C
ENDROOT
BRANCH   1   2
HETATM    2  C3  UNL     1      25.507  31.892  19.080  1.00  0.00    -0.004 A
HETATM    3  C2  UNL     1      26.282  32.872  18.503  1.00  0.00     0.060 A
HETATM    4  C1  UNL     1      26.601  34.040  19.185  1.00  0.00     0.114 A
HETATM    5  N6  UNL     1      26.157  34.242  20.436  1.00  0.00    -0.286 N
HETATM    6  N5  UNL     1      25.414  33.300  20.988  1.00  0.00    -0.310 N
ATOM      7  H6  UNL     1      26.386  35.096  20.944  1.00  0.00     0.188 HD
HETATM    8  C6  UNL     1      25.076  32.144  20.363  1.00  0.00     0.116 A
ATOM      9  H5  UNL     1      25.074  33.450  21.938  1.00  0.00     0.186 HD
BRANCH   4  10
HETATM   10  N1  UNL     1      27.321  34.937  18.633  1.00  0.00    -0.384 N
ATOM     11  H12 UNL     1      27.592  34.820  17.657  1.00  0.00     0.157 HD
ATOM     12  H11 UNL     1      27.621  35.758  19.160  1.00  0.00     0.157 HD
ENDBRANCH   4  10
ENDBRANCH   1   2
BRANCH   1  13
HETATM   13  N2  UNL     1      25.616  29.468  19.178  1.00  0.00    -0.067 N
ATOM     14  H23 UNL     1      26.514  29.657  19.623  1.00  0.00     0.275 HD
ATOM     15  H22 UNL     1      25.058  29.308  20.016  1.00  0.00     0.275 HD
ATOM     16  H21 UNL     1      25.656  28.637  18.589  1.00  0.00     0.275 HD
ENDBRANCH   1  13
BRANCH   1  17
HETATM   17  C5  UNL     1      23.618  30.458  18.323  1.00  0.00     0.412 C
BRANCH  17  18
HETATM   18  N3  UNL     1      23.156  30.671  16.963  1.00  0.00    -0.048 N
ATOM     19  H33 UNL     1      23.335  31.624  16.649  1.00  0.00     0.276 HD
ATOM     20  H32 UNL     1      23.736  30.174  16.286  1.00  0.00     0.276 HD
ATOM     21  H31 UNL     1      22.172  30.422  16.870  1.00  0.00     0.276 HD
ENDBRANCH  17  18
BRANCH  17  22
HETATM   22  N4  UNL     1      23.343  29.095  18.762  1.00  0.00    -0.048 N
ATOM     23  H43 UNL     1      23.176  28.445  17.994  1.00  0.00     0.276 HD
ATOM     24  H42 UNL     1      24.158  28.619  19.149  1.00  0.00     0.276 HD
ATOM     25  H41 UNL     1      22.563  29.163  19.414  1.00  0.00     0.276 HD
ENDBRANCH  17  22
ENDBRANCH   1  17
TORSDOF 6
ENDMDL