MODEL 5
REMARK VINA RESULT: -3.896578988      0.772      1.220
REMARK  6 active torsions:
REMARK  status: ('A' for Active; 'I' for Inactive)
REMARK    1  A    between atoms: N1_1  and  N2_4
REMARK    2  A    between atoms: C3_10  and  C4_11
REMARK    3  A    between atoms: C4_11  and  S1_12
REMARK    4  A    between atoms: S1_12  and  C5_13
REMARK    5  A    between atoms: C5_13  and  N4_14
REMARK    6  A    between atoms: C5_13  and  N5_18
ROOT
HETATM    1  C4  UNL     1      26.138  32.403  20.382  1.00  0.00     0.091 C
ENDROOT
BRANCH   1   2
HETATM    2  C3  UNL     1      25.785  33.881  20.409  1.00  0.00     0.081 C
HETATM    3  C1  UNL     1      26.906  34.812  20.166  1.00  0.00     0.097 C
HETATM    4  N2  UNL     1      27.471  35.480  19.223  1.00  0.00    -0.295 N
HETATM    5  N3  UNL     1      27.252  34.747  21.566  1.00  0.00    -0.378 N
ATOM      6  H2  UNL     1      28.278  36.049  19.479  1.00  0.00     0.187 HD
HETATM    7  C2  UNL     1      25.862  34.421  21.830  1.00  0.00     0.134 C
ATOM      8  H3  UNL     1      28.098  34.874  22.121  1.00  0.00     0.160 HD
BRANCH   4   9
HETATM    9  N1  UNL     1      27.087  35.498  17.894  1.00  0.00    -0.344 N
ATOM     10  H12 UNL     1      26.511  34.714  17.586  1.00  0.00     0.176 HD
ATOM     11  H11 UNL     1      27.326  36.216  17.209  1.00  0.00     0.176 HD
ENDBRANCH   4   9
ENDBRANCH   1   2
BRANCH   1  12
HETATM   12  S1  UNL     1      24.712  31.437  19.899  1.00  0.00    -0.108 SA
BRANCH  12  13
HETATM   13  C5  UNL     1      24.879  30.661  18.298  1.00  0.00     0.440 C
BRANCH  13  14
HETATM   14  N4  UNL     1      25.042  29.231  18.489  1.00  0.00    -0.041 N
ATOM     15  H43 UNL     1      25.917  28.882  18.097  1.00  0.00     0.277 HD
ATOM     16  H42 UNL     1      25.216  28.985  19.464  1.00  0.00     0.277 HD
ATOM     17  H41 UNL     1      24.226  28.755  18.105  1.00  0.00     0.277 HD
ENDBRANCH  13  14
BRANCH  13  18
HETATM   18  N5  UNL     1      23.709  30.834  17.450  1.00  0.00    -0.041 N
ATOM     19  H53 UNL     1      22.857  30.864  18.010  1.00  0.00     0.277 HD
ATOM     20  H52 UNL     1      23.684  31.775  17.056  1.00  0.00     0.277 HD
ATOM     21  H51 UNL     1      23.637  30.131  16.715  1.00  0.00     0.277 HD
ENDBRANCH  13  18
ENDBRANCH  12  13
ENDBRANCH   1  12
TORSDOF 6
ENDMDL