MODEL 4
REMARK VINA RESULT: -7.423538528      0.993      1.409
REMARK  12 active torsions:
REMARK  status: ('A' for Active; 'I' for Inactive)
REMARK    1  A    between atoms: N2_3  and  C2_5
REMARK    2  A    between atoms: N6_12  and  C3_13
REMARK    3  A    between atoms: C3_13  and  C4_14
REMARK    4  A    between atoms: C4_14  and  O1_15
REMARK    5  A    between atoms: C4_14  and  N7_17
REMARK    6  A    between atoms: N7_17  and  C5_19
REMARK    7  A    between atoms: C7_21  and  C8_22
REMARK    8  A    between atoms: C8_22  and  O2_23
REMARK    9  A    between atoms: C8_22  and  O3_25
REMARK   10  A    between atoms: C9_28  and  C10_29
REMARK   11  A    between atoms: C11_32  and  N9_33
REMARK   12  A    between atoms: C12_41  and  N13_42
ROOT
HETATM    1  N1  UNL     1      16.497  18.872  39.908  1.00  0.00    -0.171 NA
HETATM    2  C1  UNL     1      16.295  19.932  40.309  1.00  0.00     0.196 C
HETATM    3  N2  UNL     1      16.086  21.171  40.747  1.00  0.00    -0.123 N
ATOM      4  H2  UNL     1      16.205  21.855  39.999  1.00  0.00     0.197 HD
ENDROOT
BRANCH   3   5
HETATM    5  C2  UNL     1      15.782  21.727  41.833  1.00  0.00     0.725 A
HETATM    6  N3  UNL     1      15.834  21.049  43.048  1.00  0.00    -0.114 N
HETATM    7  N4  UNL     1      15.428  21.876  43.957  1.00  0.00    -0.213 N
ATOM      8  H3  UNL     1      16.135  20.084  43.195  1.00  0.00     0.207 HD
HETATM    9  N5  UNL     1      15.127  23.015  43.409  1.00  0.00    -0.211 N
ATOM     10  H4  UNL     1      15.354  21.665  44.953  1.00  0.00     0.210 HD
HETATM   11  N6  UNL     1      15.343  22.950  42.069  1.00  0.00    -0.102 N
ATOM     12  H5  UNL     1      14.781  23.835  43.908  1.00  0.00     0.210 HD
BRANCH  11  13
HETATM   13  C3  UNL     1      15.156  24.136  41.216  1.00  0.00     0.223 C
BRANCH  13  14
HETATM   14  C4  UNL     1      13.927  23.952  40.389  1.00  0.00     0.238 C
BRANCH  14  15
HETATM   15  O1  UNL     1      12.832  23.687  41.180  1.00  0.00    -0.375 OA
ATOM     16  H1  UNL     1      12.219  23.114  40.736  1.00  0.00     0.212 HD
ENDBRANCH  14  15
BRANCH  14  17
HETATM   17  N7  UNL     1      13.639  24.960  39.425  1.00  0.00    -0.361 N
ATOM     18  H7  UNL     1      14.422  25.329  38.886  1.00  0.00     0.162 HD
BRANCH  17  19
HETATM   19  C5  UNL     1      12.320  25.505  39.146  1.00  0.00     0.051 A
HETATM   20  C6  UNL     1      11.625  25.107  38.060  1.00  0.00     0.050 A
HETATM   21  C7  UNL     1      10.405  25.669  37.829  1.00  0.00     0.040 A
HETATM   22  S1  UNL     1      10.237  26.749  39.131  1.00  0.00    -0.085 SA
HETATM   23  C9  UNL     1      11.742  26.448  39.938  1.00  0.00     0.063 A
BRANCH  21  24
HETATM   24  C8  UNL     1       9.455  25.381  36.687  1.00  0.00     0.295 C
BRANCH  24  25
HETATM   25  O2  UNL     1       9.074  24.051  36.695  1.00  0.00    -0.367 OA
ATOM     26  H2  UNL     1       8.150  23.968  36.492  1.00  0.00     0.213 HD
ENDBRANCH  24  25
BRANCH  24  27
HETATM   27  O3  UNL     1      10.215  25.587  35.526  1.00  0.00    -0.367 OA
ATOM     28  H3  UNL     1      10.188  24.755  35.066  1.00  0.00     0.213 HD
ENDBRANCH  24  27
ENDBRANCH  21  24
BRANCH  23  29
HETATM   29  C10 UNL     1      12.112  27.138  41.157  1.00  0.00     0.116 A
HETATM   30  N8  UNL     1      12.874  28.222  41.152  1.00  0.00    -0.185 N
HETATM   31  C11 UNL     1      13.215  28.847  42.275  1.00  0.00     0.692 A
ATOM     32  H8  UNL     1      13.209  28.588  40.261  1.00  0.00     0.184 HD
HETATM   33  N10 UNL     1      12.798  28.405  43.471  1.00  0.00    -0.109 N
HETATM   34  N11 UNL     1      12.039  27.331  43.532  1.00  0.00    -0.148 N
ATOM     35  H10 UNL     1      13.067  28.895  44.324  1.00  0.00     0.208 HD
HETATM   36  N12 UNL     1      11.520  26.723  44.578  1.00  0.00    -0.109 N
HETATM   37  C13 UNL     1      11.693  26.696  42.403  1.00  0.00     0.190 A
HETATM   38  C12 UNL     1      10.818  25.665  44.117  1.00  0.00     0.693 A
ATOM     39  H12 UNL     1      11.628  26.998  45.554  1.00  0.00     0.208 HD
HETATM   40  N14 UNL     1      10.936  25.667  42.788  1.00  0.00    -0.170 N
ATOM     41  H14 UNL     1      10.511  24.984  42.160  1.00  0.00     0.186 HD
BRANCH  31  42
HETATM   42  N9  UNL     1      13.958  29.895  42.190  1.00  0.00    -0.233 N
ATOM     43  H92 UNL     1      14.737  29.924  41.533  1.00  0.00     0.174 HD
ATOM     44  H91 UNL     1      13.746  30.689  42.795  1.00  0.00     0.174 HD
ENDBRANCH  31  42
BRANCH  38  45
HETATM   45  N13 UNL     1      10.172  24.843  44.878  1.00  0.00    -0.233 N
ATOM     46 2H13 UNL     1       9.185  24.587  44.860  1.00  0.00     0.174 HD
ATOM     47 1H13 UNL     1      10.602  24.317  45.639  1.00  0.00     0.174 HD
ENDBRANCH  38  45
ENDBRANCH  23  29
ENDBRANCH  17  19
ENDBRANCH  14  17
ENDBRANCH  13  14
ENDBRANCH  11  13
ENDBRANCH   3   5
TORSDOF 12
ENDMDL