MODEL 3
REMARK VINA RESULT: -5.943106212      2.179      5.204
REMARK  11 active torsions:
REMARK  status: ('A' for Active; 'I' for Inactive)
REMARK    1  A    between atoms: O1_2  and  C2_3
REMARK    2  A    between atoms: C2_3  and  C3_5
REMARK    3  A    between atoms: C3_5  and  C4_6
REMARK    4  A    between atoms: C3_5  and  N2_13
REMARK    5  A    between atoms: C4_6  and  N1_7
REMARK    6  A    between atoms: C4_6  and  O3_11
REMARK    7  A    between atoms: C6_15  and  C7_16
REMARK    8  A    between atoms: C10_29  and  C11_30
REMARK    9  A    between atoms: N9_32  and  O4_34
REMARK   10  A    between atoms: C12_38  and  N11_39
REMARK   11  A    between atoms: N12_42  and  C13_43
ROOT
HETATM    1  N2  UNL     1      14.622  23.615  42.709  1.00  0.00    -0.237 N
HETATM    2  C5  UNL     1      15.434  22.564  42.132  1.00  0.00     0.134 A
HETATM    3  C6  UNL     1      15.872  21.471  42.776  1.00  0.00     0.046 A
HETATM    4  C8  UNL     1      15.505  21.323  44.164  1.00  0.00     0.070 A
HETATM    5  C9  UNL     1      14.745  22.271  44.766  1.00  0.00     0.163 A
HETATM    6  N7  UNL     1      14.375  22.188  46.048  1.00  0.00    -0.323 N
ATOM      7  H7  UNL     1      13.802  22.930  46.452  1.00  0.00     0.169 HD
HETATM    8  C10 UNL     1      14.746  21.137  46.826  1.00  0.00     0.152 A
HETATM    9  N10 UNL     1      15.486  20.210  46.244  1.00  0.00    -0.325 N
ATOM     10  H10 UNL     1      15.779  19.409  46.804  1.00  0.00     0.169 HD
HETATM   11  C12 UNL     1      15.880  20.261  44.947  1.00  0.00     0.115 A
HETATM   12  N12 UNL     1      14.288  23.441  44.037  1.00  0.00    -0.059 N
ENDROOT
BRANCH   1  13
HETATM   13  C3  UNL     1      14.253  24.649  41.804  1.00  0.00     0.165 C
BRANCH  13  14
HETATM   14  C2  UNL     1      13.445  24.401  40.643  1.00  0.00     0.312 C
HETATM   15  O2  UNL     1      12.404  23.655  40.762  1.00  0.00    -0.258 OA
BRANCH  14  16
HETATM   16  O1  UNL     1      13.631  24.859  39.347  1.00  0.00    -0.322 OA
HETATM   17  C1  UNL     1      12.673  25.655  38.656  1.00  0.00     0.213 C
ENDBRANCH  14  16
ENDBRANCH  13  14
BRANCH  13  18
HETATM   18  C4  UNL     1      15.415  25.629  41.560  1.00  0.00     0.375 C
BRANCH  18  19
HETATM   19  N1  UNL     1      16.247  25.269  40.463  1.00  0.00    -0.047 N
ATOM     20  H13 UNL     1      17.178  25.671  40.570  1.00  0.00     0.277 HD
ATOM     21  H12 UNL     1      16.482  24.278  40.500  1.00  0.00     0.277 HD
ATOM     22  H11 UNL     1      15.854  25.511  39.553  1.00  0.00     0.277 HD
ENDBRANCH  18  19
BRANCH  18  23
HETATM   23  O3  UNL     1      14.855  26.880  41.326  1.00  0.00    -0.365 OA
ATOM     24  H3  UNL     1      14.559  27.215  42.165  1.00  0.00     0.212 HD
ENDBRANCH  18  23
ENDBRANCH  13  18
ENDBRANCH   1  13
BRANCH  12  25
HETATM   25  C13 UNL     1      13.461  24.356  44.727  1.00  0.00     0.749 A
HETATM   26  N13 UNL     1      13.572  25.468  45.410  1.00  0.00    -0.068 N
HETATM   27  O5  UNL     1      12.302  25.561  45.554  1.00  0.00    -0.127 OA
ATOM     28  H13 UNL     1      14.362  26.040  45.710  1.00  0.00     0.216 HD
HETATM   29  N14 UNL     1      12.139  24.469  44.889  1.00  0.00    -0.068 N
ATOM     30  H14 UNL     1      11.331  23.917  44.603  1.00  0.00     0.216 HD
ENDBRANCH  12  25
BRANCH   3  31
HETATM   31  C7  UNL     1      16.685  20.501  42.051  1.00  0.00     0.149 A
HETATM   32  N3  UNL     1      17.842  19.899  42.124  1.00  0.00    -0.268 N
HETATM   33  N4  UNL     1      18.031  19.082  41.116  1.00  0.00    -0.227 N
ATOM     34  H3  UNL     1      18.516  20.047  42.874  1.00  0.00     0.190 HD
HETATM   35  N5  UNL     1      16.975  19.121  40.326  1.00  0.00    -0.227 N
ATOM     36  H4  UNL     1      18.861  18.507  40.967  1.00  0.00     0.210 HD
HETATM   37  N6  UNL     1      16.163  19.968  40.876  1.00  0.00    -0.268 N
ATOM     38  H5  UNL     1      16.829  18.596  39.464  1.00  0.00     0.210 HD
ATOM     39  H6  UNL     1      15.249  20.214  40.493  1.00  0.00     0.190 HD
ENDBRANCH   3  31
BRANCH  11  40
HETATM   40  N11 UNL     1      16.579  19.315  44.532  1.00  0.00    -0.385 N
ATOM     41 2H11 UNL     1      16.182  18.740  43.789  1.00  0.00     0.157 HD
ATOM     42 1H11 UNL     1      17.507  19.101  44.897  1.00  0.00     0.157 HD
ENDBRANCH  11  40
BRANCH   8  43
HETATM   43  C11 UNL     1      14.323  21.097  48.189  1.00  0.00     0.180 C
HETATM   44  N8  UNL     1      13.096  21.770  48.595  1.00  0.00    -0.077 NA
HETATM   45  N9  UNL     1      14.922  20.518  49.120  1.00  0.00    -0.252 N
ATOM     46  H9  UNL     1      14.435  20.623  50.010  1.00  0.00     0.195 HD
BRANCH  45  47
HETATM   47  O4  UNL     1      16.019  19.809  49.243  1.00  0.00    -0.288 OA
ATOM     48  H4  UNL     1      16.276  19.018  49.702  1.00  0.00     0.244 HD
ENDBRANCH  45  47
ENDBRANCH   8  43
TORSDOF 11
ENDMDL