MODEL 2
REMARK VINA RESULT: -8.723703800      0.407      1.131
REMARK  11 active torsions:
REMARK  status: ('A' for Active; 'I' for Inactive)
REMARK    1  A    between atoms: N1_1  and  C1_4
REMARK    2  A    between atoms: C2_9  and  C3_10
REMARK    3  A    between atoms: C4_15  and  C5_16
REMARK    4  A    between atoms: C5_16  and  O1_17
REMARK    5  A    between atoms: C7_20  and  C8_21
REMARK    6  A    between atoms: C9_26  and  C10_27
REMARK    7  A    between atoms: C10_27  and  S1_28
REMARK    8  A    between atoms: S1_28  and  C11_31
REMARK    9  A    between atoms: C11_31  and  N8_32
REMARK   10  A    between atoms: C11_31  and  N9_36
REMARK   11  A    between atoms: C12_47  and  N14_48
ROOT
HETATM    1  C5  UNL     1      10.479  25.889  38.343  1.00  0.00     0.206 C
HETATM    2  C6  UNL     1      10.710  26.984  37.271  1.00  0.00     0.097 C
HETATM    3  C7  UNL     1       9.218  27.177  36.950  1.00  0.00     0.176 C
HETATM    4  N10 UNL     1       8.700  27.345  38.267  1.00  0.00    -0.132 NA
HETATM    5  N11 UNL     1       9.504  26.572  39.139  1.00  0.00    -0.101 NA
ENDROOT
BRANCH   1   6
HETATM    6  C4  UNL     1      11.732  25.534  38.993  1.00  0.00     0.151 A
HETATM    7  N5  UNL     1      12.758  26.428  39.175  1.00  0.00    -0.283 N
HETATM    8  N4  UNL     1      13.745  25.770  39.767  1.00  0.00    -0.281 N
ATOM      9  H5  UNL     1      12.760  27.412  38.906  1.00  0.00     0.188 HD
HETATM   10  C3  UNL     1      13.402  24.472  39.980  1.00  0.00     0.168 A
ATOM     11  H4  UNL     1      14.641  26.182  40.028  1.00  0.00     0.188 HD
HETATM   12  N12 UNL     1      12.160  24.391  39.487  1.00  0.00    -0.323 N
ATOM     13  H12 UNL     1      11.605  23.536  39.494  1.00  0.00     0.169 HD
BRANCH  10  14
HETATM   14  C2  UNL     1      14.258  23.460  40.618  1.00  0.00     0.168 A
HETATM   15  N3  UNL     1      14.739  22.463  39.887  1.00  0.00    -0.281 N
HETATM   16  N2  UNL     1      15.517  21.498  40.388  1.00  0.00    -0.281 N
ATOM     17  H3  UNL     1      14.504  22.431  38.895  1.00  0.00     0.188 HD
HETATM   18  C1  UNL     1      15.835  21.529  41.695  1.00  0.00     0.158 A
ATOM     19  H2  UNL     1      15.864  20.750  39.789  1.00  0.00     0.188 HD
HETATM   20  C12 UNL     1      15.358  22.543  42.469  1.00  0.00     0.146 A
HETATM   21  N13 UNL     1      14.555  23.525  41.926  1.00  0.00    -0.322 N
ATOM     22  H13 UNL     1      14.194  24.283  42.505  1.00  0.00     0.169 HD
BRANCH  18  23
HETATM   23  N1  UNL     1      16.581  20.572  42.198  1.00  0.00    -0.381 N
ATOM     24  H12 UNL     1      17.210  20.021  41.614  1.00  0.00     0.157 HD
ATOM     25  H11 UNL     1      16.544  20.384  43.200  1.00  0.00     0.157 HD
ENDBRANCH  18  23
BRANCH  20  26
HETATM   26  N14 UNL     1      15.643  22.621  43.727  1.00  0.00    -0.382 N
ATOM     27 2H14 UNL     1      16.384  22.019  44.087  1.00  0.00     0.157 HD
ATOM     28 1H14 UNL     1      15.145  23.260  44.346  1.00  0.00     0.157 HD
ENDBRANCH  20  26
ENDBRANCH  10  14
ENDBRANCH   1   6
BRANCH   1  29
HETATM   29  O1  UNL     1       9.903  24.819  37.648  1.00  0.00    -0.366 OA
ATOM     30  H1  UNL     1       8.985  24.694  37.855  1.00  0.00     0.212 HD
ENDBRANCH   1  29
BRANCH   3  31
HETATM   31  C8  UNL     1       8.996  28.249  35.996  1.00  0.00     0.161 A
HETATM   32  N6  UNL     1       9.789  29.196  35.574  1.00  0.00    -0.280 N
HETATM   33  N7  UNL     1       9.147  29.958  34.679  1.00  0.00    -0.281 N
ATOM     34  H6  UNL     1      10.752  29.334  35.879  1.00  0.00     0.189 HD
HETATM   35  C9  UNL     1       7.922  29.471  34.544  1.00  0.00     0.154 A
ATOM     36  H7  UNL     1       9.531  30.766  34.191  1.00  0.00     0.189 HD
HETATM   37  O4  UNL     1       7.846  28.422  35.361  1.00  0.00    -0.279 OA
BRANCH  35  38
HETATM   38  C10 UNL     1       6.786  29.909  33.700  1.00  0.00     0.230 C
BRANCH  38  39
HETATM   39  S1  UNL     1       7.134  30.091  32.011  1.00  0.00     0.206 S
HETATM   40  O2  UNL     1       8.583  29.786  31.687  1.00  0.00    -0.224 OA
HETATM   41  O3  UNL     1       6.959  31.561  31.639  1.00  0.00    -0.224 OA
BRANCH  39  42
HETATM   42  C11 UNL     1       6.040  29.132  31.025  1.00  0.00     0.497 C
BRANCH  42  43
HETATM   43  N8  UNL     1       5.915  27.794  31.512  1.00  0.00    -0.037 N
ATOM     44  H83 UNL     1       5.596  27.161  30.778  1.00  0.00     0.278 HD
ATOM     45  H82 UNL     1       6.828  27.379  31.697  1.00  0.00     0.278 HD
ATOM     46  H81 UNL     1       5.312  27.741  32.333  1.00  0.00     0.278 HD
ENDBRANCH  42  43
BRANCH  42  47
HETATM   47  N9  UNL     1       6.526  29.125  29.622  1.00  0.00    -0.037 N
ATOM     48  H93 UNL     1       6.056  29.823  29.046  1.00  0.00     0.278 HD
ATOM     49  H92 UNL     1       7.476  29.487  29.540  1.00  0.00     0.278 HD
ATOM     50  H91 UNL     1       6.436  28.183  29.241  1.00  0.00     0.278 HD
ENDBRANCH  42  47
ENDBRANCH  39  42
ENDBRANCH  38  39
ENDBRANCH  35  38
ENDBRANCH   3  31
TORSDOF 11
ENDMDL