MODEL 3
REMARK VINA RESULT: -7.594825501      1.918      3.953
REMARK  13 active torsions:
REMARK  status: ('A' for Active; 'I' for Inactive)
REMARK    1  A    between atoms: N2_6  and  O1_8
REMARK    2  A    between atoms: C5_17  and  C6_18
REMARK    3  A    between atoms: C7_21  and  C8_22
REMARK    4  A    between atoms: C8_22  and  O5_24
REMARK    5  A    between atoms: O5_24  and  C9_25
REMARK    6  A    between atoms: C9_25  and  C10_26
REMARK    7  A    between atoms: C9_25  and  C17_39
REMARK    8  A    between atoms: C10_26  and  C11_27
REMARK    9  A    between atoms: C13_29  and  O6_30
REMARK   10  A    between atoms: C14_32  and  O7_33
REMARK   11  A    between atoms: C15_35  and  O8_36
REMARK   12  A    between atoms: C17_39  and  O9_40
REMARK   13  A    between atoms: C17_39  and  O10_42
ROOT
HETATM    1  C8  UNL     1       7.147  28.318  35.445  1.00  0.00     0.297 C
HETATM    2  O4  UNL     1       6.734  28.774  36.520  1.00  0.00    -0.259 OA
ENDROOT
BRANCH   1   3
HETATM    3  C7  UNL     1       7.385  29.058  34.243  1.00  0.00     0.084 C
HETATM    4  C1  UNL     1       8.480  30.077  34.339  1.00  0.00     0.071 C
HETATM    5  N1  UNL     1       9.504  29.810  34.984  1.00  0.00    -0.397 N
HETATM    6  C2  UNL     1       8.485  31.421  33.723  1.00  0.00     0.106 C
ATOM      7  H12 UNL     1      10.249  30.504  35.049  1.00  0.00     0.156 HD
ATOM      8  H11 UNL     1       9.501  28.884  35.409  1.00  0.00     0.156 HD
HETATM    9  N2  UNL     1       9.158  32.359  34.339  1.00  0.00    -0.268 N
HETATM   10  C3  UNL     1       7.805  31.811  32.473  1.00  0.00     0.349 C
ATOM     11  H2  UNL     1       9.188  33.302  33.949  1.00  0.00     0.194 HD
HETATM   12  N3  UNL     1       8.437  31.102  31.358  1.00  0.00    -0.106 NA
HETATM   13  N5  UNL     1       6.466  31.252  32.492  1.00  0.00    -0.027 N
HETATM   14  N4  UNL     1       7.831  29.845  31.336  1.00  0.00    -0.107 NA
HETATM   15  C4  UNL     1       6.588  29.883  32.006  1.00  0.00     0.337 C
HETATM   16  C5  UNL     1       6.563  28.953  33.235  1.00  0.00     0.084 C
ATOM     17  H52 UNL     1       6.012  31.319  33.403  1.00  0.00     0.282 HD
ATOM     18  H51 UNL     1       5.788  31.808  31.972  1.00  0.00     0.282 HD
BRANCH   9  19
HETATM   19  O1  UNL     1       9.816  32.085  35.493  1.00  0.00    -0.290 OA
ATOM     20  H1  UNL     1      10.158  32.790  36.030  1.00  0.00     0.244 HD
ENDBRANCH   9  19
BRANCH  16  21
HETATM   21  C6  UNL     1       5.687  27.865  33.047  1.00  0.00     0.209 C
HETATM   22  O2  UNL     1       5.880  27.114  31.990  1.00  0.00    -0.644 OA
HETATM   23  O3  UNL     1       4.641  27.440  33.814  1.00  0.00    -0.644 OA
ENDBRANCH  16  21
ENDBRANCH   1   3
BRANCH   1  24
HETATM   24  O5  UNL     1       7.376  26.936  35.507  1.00  0.00    -0.307 OA
BRANCH  24  25
HETATM   25  C9  UNL     1       8.156  26.344  36.562  1.00  0.00     0.191 C
BRANCH  25  26
HETATM   26  C10 UNL     1       9.091  27.383  37.075  1.00  0.00     0.076 C
BRANCH  26  27
HETATM   27  C11 UNL     1       9.955  27.005  38.187  1.00  0.00    -0.050 A
HETATM   28  C12 UNL     1      11.235  26.496  38.039  1.00  0.00     0.046 A
HETATM   29  C13 UNL     1      12.028  26.128  39.121  1.00  0.00     0.102 A
HETATM   30  C14 UNL     1      11.555  26.260  40.410  1.00  0.00     0.132 A
HETATM   31  C15 UNL     1      10.277  26.766  40.571  1.00  0.00     0.102 A
HETATM   32  C16 UNL     1       9.508  27.125  39.485  1.00  0.00     0.046 A
BRANCH  29  33
HETATM   33  O6  UNL     1      13.316  25.622  38.880  1.00  0.00    -0.358 OA
ATOM     34  H6  UNL     1      14.008  26.223  38.631  1.00  0.00     0.217 HD
ENDBRANCH  29  33
BRANCH  30  35
HETATM   35  O7  UNL     1      12.289  25.915  41.514  1.00  0.00    -0.356 OA
ATOM     36  H7  UNL     1      12.732  26.552  42.062  1.00  0.00     0.218 HD
ENDBRANCH  30  35
BRANCH  31  37
HETATM   37  O8  UNL     1       9.792  26.901  41.882  1.00  0.00    -0.358 OA
ATOM     38  H8  UNL     1       9.799  27.770  42.266  1.00  0.00     0.217 HD
ENDBRANCH  31  37
ENDBRANCH  26  27
ENDBRANCH  25  26
BRANCH  25  39
HETATM   39  C17 UNL     1       8.843  25.154  35.913  1.00  0.00     0.283 C
BRANCH  39  40
HETATM   40  O9  UNL     1       9.999  25.499  35.245  1.00  0.00    -0.369 OA
ATOM     41  H9  UNL     1      10.774  25.087  35.607  1.00  0.00     0.212 HD
ENDBRANCH  39  40
BRANCH  39  42
HETATM   42  O10 UNL     1       8.979  24.103  36.808  1.00  0.00    -0.369 OA
ATOM     43  H10 UNL     1       8.927  23.265  36.365  1.00  0.00     0.212 HD
ENDBRANCH  39  42
ENDBRANCH  25  39
ENDBRANCH  24  25
ENDBRANCH   1  24
TORSDOF 13
ENDMDL