MODEL 2
REMARK VINA RESULT: -7.547252188      1.167      1.226
REMARK  11 active torsions:
REMARK  status: ('A' for Active; 'I' for Inactive)
REMARK    1  A    between atoms: C3_4  and  S1_5
REMARK    2  A    between atoms: S1_5  and  C4_6
REMARK    3  A    between atoms: C4_6  and  C5_7
REMARK    4  A    between atoms: C5_7  and  N2_8
REMARK    5  A    between atoms: C5_7  and  O1_12
REMARK    6  A    between atoms: C6_15  and  N3_16
REMARK    7  A    between atoms: N3_16  and  C7_18
REMARK    8  A    between atoms: C11_26  and  C12_27
REMARK    9  A    between atoms: C12_27  and  O4_28
REMARK   10  A    between atoms: C12_27  and  O5_30
REMARK   11  A    between atoms: C13_32  and  O6_33
ROOT
HETATM    1  N1  UNL     1      13.516  23.496  45.993  1.00  0.00    -0.191 NA
HETATM    2  C1  UNL     1      13.872  23.685  44.884  1.00  0.00     0.104 C
HETATM    3  C2  UNL     1      14.273  23.896  43.561  1.00  0.00     0.100 C
HETATM    4  C3  UNL     1      13.725  25.003  42.926  1.00  0.00     0.136 C
HETATM    5  O2  UNL     1      13.736  25.257  41.613  1.00  0.00    -0.281 OA
HETATM    6  C6  UNL     1      13.961  24.448  40.607  1.00  0.00     0.198 C
HETATM    7  C8  UNL     1      14.477  23.153  40.643  1.00  0.00     0.234 C
HETATM    8  O3  UNL     1      14.296  22.450  39.629  1.00  0.00    -0.283 OA
HETATM    9  C9  UNL     1      15.165  22.546  41.654  1.00  0.00     0.035 C
HETATM   10  C10 UNL     1      15.836  21.481  41.136  1.00  0.00     0.031 C
HETATM   11  C11 UNL     1      16.428  20.479  41.910  1.00  0.00     0.032 C
HETATM   12  C13 UNL     1      16.566  20.367  43.272  1.00  0.00     0.105 C
HETATM   13  C14 UNL     1      16.462  21.385  44.203  1.00  0.00     0.131 C
HETATM   14  N7  UNL     1      16.909  21.149  45.518  1.00  0.00    -0.095 NA
HETATM   15  C15 UNL     1      15.956  22.683  44.029  1.00  0.00     0.211 C
HETATM   16  O7  UNL     1      16.291  23.529  44.867  1.00  0.00    -0.285 OA
HETATM   17  C16 UNL     1      15.136  23.005  42.989  1.00  0.00     0.054 C
ENDROOT
BRANCH   4  18
HETATM   18  S1  UNL     1      12.959  26.130  44.037  1.00  0.00    -0.099 SA
BRANCH  18  19
HETATM   19  C4  UNL     1      13.331  27.849  43.735  1.00  0.00     0.142 C
BRANCH  19  20
HETATM   20  C5  UNL     1      12.536  28.282  42.501  1.00  0.00     0.325 C
BRANCH  20  21
HETATM   21  N2  UNL     1      13.462  28.349  41.385  1.00  0.00    -0.052 N
ATOM     22  H23 UNL     1      13.900  29.264  41.286  1.00  0.00     0.277 HD
ATOM     23  H22 UNL     1      14.314  27.810  41.543  1.00  0.00     0.277 HD
ATOM     24  H21 UNL     1      12.957  28.058  40.548  1.00  0.00     0.277 HD
ENDBRANCH  20  21
BRANCH  20  25
HETATM   25  O1  UNL     1      11.568  27.328  42.198  1.00  0.00    -0.369 OA
ATOM     26  H1  UNL     1      11.938  26.657  41.636  1.00  0.00     0.212 HD
ENDBRANCH  20  25
ENDBRANCH  19  20
ENDBRANCH  18  19
ENDBRANCH   4  18
BRANCH   6  27
HETATM   27  N3  UNL     1      13.665  24.907  39.413  1.00  0.00    -0.334 N
ATOM     28  H3  UNL     1      14.422  25.092  38.755  1.00  0.00     0.164 HD
BRANCH  27  29
HETATM   29  C7  UNL     1      12.317  25.154  39.004  1.00  0.00     0.308 C
HETATM   30  N4  UNL     1      12.110  25.450  37.607  1.00  0.00    -0.086 NA
HETATM   31  N5  UNL     1      11.419  26.628  37.931  1.00  0.00    -0.033 NA
HETATM   32  N6  UNL     1      11.984  26.557  39.205  1.00  0.00    -0.086 NA
ENDBRANCH  27  29
ENDBRANCH   6  27
BRANCH  11  33
HETATM   33  C12 UNL     1      17.001  19.345  41.098  1.00  0.00     0.291 C
BRANCH  33  34
HETATM   34  O4  UNL     1      18.398  19.479  41.010  1.00  0.00    -0.367 OA
ATOM     35  H4  UNL     1      18.722  18.993  40.260  1.00  0.00     0.213 HD
ENDBRANCH  33  34
BRANCH  33  36
HETATM   36  O5  UNL     1      16.462  19.367  39.838  1.00  0.00    -0.367 OA
ATOM     37  H5  UNL     1      16.002  18.551  39.677  1.00  0.00     0.213 HD
ENDBRANCH  33  36
ENDBRANCH  11  33
BRANCH  12  38
HETATM   38  O6  UNL     1      16.837  19.120  43.777  1.00  0.00    -0.358 OA
ATOM     39  H6  UNL     1      16.444  18.892  44.611  1.00  0.00     0.217 HD
ENDBRANCH  12  38
TORSDOF 11
ENDMDL