MODEL 4
REMARK VINA RESULT: -7.618790667      0.697      1.885
REMARK  13 active torsions:
REMARK  status: ('A' for Active; 'I' for Inactive)
REMARK    1  A    between atoms: N1_1  and  C1_4
REMARK    2  A    between atoms: C2_7  and  N3_8
REMARK    3  A    between atoms: C3_9  and  C4_10
REMARK    4  A    between atoms: C8_19  and  N7_20
REMARK    5  A    between atoms: C9_25  and  N9_26
REMARK    6  A    between atoms: N9_26  and  O1_28
REMARK    7  A    between atoms: O1_28  and  C10_29
REMARK    8  A    between atoms: C10_29  and  C11_30
REMARK    9  A    between atoms: C10_29  and  C12_33
REMARK   10  A    between atoms: C11_30  and  O2_31
REMARK   11  A    between atoms: C12_33  and  O3_34
REMARK   12  A    between atoms: C12_33  and  O4_36
REMARK   13  A    between atoms: C14_43  and  N12_44
ROOT
HETATM    1  N3  UNL     1      14.338  23.746  41.798  1.00  0.00     0.045 N
HETATM    2  C3  UNL     1      14.007  23.845  43.054  1.00  0.00     0.180 A
HETATM    3  N5  UNL     1      12.898  24.651  43.174  1.00  0.00    -0.247 N
ATOM      4  H5  UNL     1      12.423  24.899  44.042  1.00  0.00     0.190 HD
HETATM    5  N6  UNL     1      12.560  25.043  41.966  1.00  0.00     0.093 N
HETATM    6  C8  UNL     1      11.542  25.843  41.556  1.00  0.00     0.727 A
HETATM    7  N8  UNL     1      11.456  26.061  40.234  1.00  0.00    -0.018 N
ATOM      8  H8  UNL     1      10.706  26.658  39.884  1.00  0.00     0.203 HD
HETATM    9  C9  UNL     1      12.318  25.525  39.353  1.00  0.00     0.731 A
HETATM   10  N10 UNL     1      13.320  24.734  39.774  1.00  0.00    -0.017 N
ATOM     11  H10 UNL     1      13.978  24.321  39.113  1.00  0.00     0.203 HD
HETATM   12  C13 UNL     1      13.426  24.503  41.093  1.00  0.00     0.756 A
ENDROOT
BRANCH   1  13
HETATM   13  C2  UNL     1      15.393  23.036  41.178  1.00  0.00     0.734 A
HETATM   14  N2  UNL     1      16.511  23.635  40.674  1.00  0.00    -0.020 N
HETATM   15  C1  UNL     1      17.511  22.976  40.111  1.00  0.00     0.705 A
ATOM     16  H2  UNL     1      16.579  24.651  40.734  1.00  0.00     0.203 HD
HETATM   17  N13 UNL     1      17.467  21.655  40.008  1.00  0.00    -0.022 N
HETATM   18  C14 UNL     1      16.388  20.998  40.487  1.00  0.00     0.705 A
ATOM     19  H13 UNL     1      18.235  21.143  39.574  1.00  0.00     0.203 HD
HETATM   20  N11 UNL     1      15.378  21.676  41.058  1.00  0.00    -0.020 N
ATOM     21  H11 UNL     1      14.574  21.158  41.413  1.00  0.00     0.203 HD
BRANCH  15  22
HETATM   22  N1  UNL     1      18.516  23.671  39.672  1.00  0.00    -0.234 N
ATOM     23  H12 UNL     1      18.715  23.770  38.676  1.00  0.00     0.174 HD
ATOM     24  H11 UNL     1      19.113  24.126  40.363  1.00  0.00     0.174 HD
ENDBRANCH  15  22
BRANCH  18  25
HETATM   25  N12 UNL     1      16.388  19.715  40.367  1.00  0.00    -0.234 N
ATOM     26 2H12 UNL     1      16.494  19.341  39.424  1.00  0.00     0.174 HD
ATOM     27 1H12 UNL     1      16.288  19.085  41.162  1.00  0.00     0.174 HD
ENDBRANCH  18  25
ENDBRANCH   1  13
BRANCH   2  28
HETATM   28  C4  UNL     1      14.648  23.233  44.228  1.00  0.00     0.053 A
HETATM   29  C5  UNL     1      14.480  22.055  44.873  1.00  0.00     0.050 A
HETATM   30  C6  UNL     1      15.251  21.794  45.945  1.00  0.00     0.054 A
HETATM   31  N4  UNL     1      15.138  20.550  46.700  1.00  0.00    -0.102 NA
HETATM   32  C7  UNL     1      16.159  22.744  46.313  1.00  0.00     0.077 A
HETATM   33  S1  UNL     1      15.915  23.970  45.160  1.00  0.00    -0.096 SA
ENDBRANCH   2  28
BRANCH   6  34
HETATM   34  N7  UNL     1      10.718  26.355  42.402  1.00  0.00    -0.232 N
ATOM     35  H72 UNL     1      10.869  26.319  43.411  1.00  0.00     0.174 HD
ATOM     36  H71 UNL     1       9.867  26.822  42.091  1.00  0.00     0.174 HD
ENDBRANCH   6  34
BRANCH   9  37
HETATM   37  N9  UNL     1      12.199  25.760  38.096  1.00  0.00    -0.095 N
ATOM     38  H9  UNL     1      12.738  25.213  37.424  1.00  0.00     0.213 HD
BRANCH  37  39
HETATM   39  O1  UNL     1      11.348  26.743  37.650  1.00  0.00    -0.254 OA
BRANCH  39  40
HETATM   40  C10 UNL     1       9.952  26.502  37.571  1.00  0.00     0.231 C
BRANCH  40  41
HETATM   41  C11 UNL     1       9.647  25.276  36.726  1.00  0.00     0.203 C
BRANCH  41  42
HETATM   42  O2  UNL     1      10.142  25.507  35.454  1.00  0.00    -0.398 OA
ATOM     43  H2  UNL     1       9.598  26.170  35.047  1.00  0.00     0.209 HD
ENDBRANCH  41  42
ENDBRANCH  40  41
BRANCH  40  44
HETATM   44  C12 UNL     1       9.228  27.666  36.949  1.00  0.00     0.287 C
BRANCH  44  45
HETATM   45  O3  UNL     1       8.154  27.187  36.191  1.00  0.00    -0.369 OA
ATOM     46  H3  UNL     1       8.287  27.418  35.279  1.00  0.00     0.212 HD
ENDBRANCH  44  45
BRANCH  44  47
HETATM   47  O4  UNL     1      10.066  28.491  36.232  1.00  0.00    -0.369 OA
ATOM     48  H4  UNL     1       9.757  29.389  36.200  1.00  0.00     0.212 HD
ENDBRANCH  44  47
ENDBRANCH  40  44
ENDBRANCH  39  40
ENDBRANCH  37  39
ENDBRANCH   9  37
TORSDOF 13
ENDMDL