MODEL 3
REMARK VINA RESULT: -5.249254169      2.618      4.987
REMARK  13 active torsions:
REMARK  status: ('A' for Active; 'I' for Inactive)
REMARK    1  A    between atoms: N1_1  and  C1_4
REMARK    2  A    between atoms: C2_7  and  N3_8
REMARK    3  A    between atoms: C4_12  and  C5_13
REMARK    4  A    between atoms: C5_13  and  O1_14
REMARK    5  A    between atoms: C5_13  and  O2_16
REMARK    6  A    between atoms: C8_20  and  C9_21
REMARK    7  A    between atoms: C9_21  and  O3_22
REMARK    8  A    between atoms: C9_21  and  O4_24
REMARK       I    between atoms: N4_30  and  C12_31
REMARK    9  A    between atoms: C12_31  and  C13_33
REMARK   10  A    between atoms: C13_33  and  O7_34
REMARK   11  A    between atoms: N5_36  and  C14_37
REMARK   12  A    between atoms: C14_37  and  O8_38
REMARK   13  A    between atoms: C14_37  and  C15_40
ROOT
HETATM    1  C1  UNL     1      11.215  24.218  47.432  1.00  0.00     0.144 A
HETATM    2  N2  UNL     1      11.342  25.106  46.461  1.00  0.00    -0.323 N
ATOM      3  H2  UNL     1      10.733  25.922  46.520  1.00  0.00     0.169 HD
HETATM    4  C2  UNL     1      12.187  25.064  45.393  1.00  0.00     0.113 A
HETATM    5  C3  UNL     1      13.085  24.079  45.120  1.00  0.00     0.039 A
HETATM    6  C4  UNL     1      13.881  24.096  43.958  1.00  0.00     0.041 A
HETATM    7  C6  UNL     1      14.738  23.093  43.564  1.00  0.00     0.084 A
HETATM    8  C7  UNL     1      14.847  21.975  44.417  1.00  0.00     0.075 A
HETATM    9  C8  UNL     1      14.111  21.915  45.579  1.00  0.00     0.032 A
HETATM   10  C10 UNL     1      13.246  22.955  45.916  1.00  0.00     0.035 A
HETATM   11  S1  UNL     1      12.240  22.866  47.308  1.00  0.00    -0.053 SA
HETATM   12  C11 UNL     1      15.692  21.138  43.770  1.00  0.00     0.282 A
HETATM   13  O5  UNL     1      16.008  20.030  44.311  1.00  0.00    -0.265 OA
HETATM   14  N4  UNL     1      16.069  21.672  42.598  1.00  0.00    -0.179 N
HETATM   15  C12 UNL     1      16.935  20.955  41.749  1.00  0.00     0.269 C
HETATM   16  O6  UNL     1      17.487  21.601  40.778  1.00  0.00    -0.269 OA
HETATM   17  N5  UNL     1      15.480  22.876  42.444  1.00  0.00    -0.239 N
ENDROOT
BRANCH  17  18
HETATM   18  C14 UNL     1      15.430  23.584  41.220  1.00  0.00     0.344 C
BRANCH  18  19
HETATM   19  O8  UNL     1      16.583  23.689  40.530  1.00  0.00    -0.366 OA
ATOM     20  H8  UNL     1      16.989  24.547  40.502  1.00  0.00     0.212 HD
ENDBRANCH  18  19
BRANCH  18  21
HETATM   21  C15 UNL     1      14.440  22.912  40.235  1.00  0.00     0.226 C
HETATM   22  O9  UNL     1      13.259  23.217  40.318  1.00  0.00    -0.645 OA
HETATM   23  O10 UNL     1      14.915  22.008  39.319  1.00  0.00    -0.645 OA
ENDBRANCH  18  21
ENDBRANCH  17  18
BRANCH   6  24
HETATM   24  C5  UNL     1      14.089  25.458  43.427  1.00  0.00     0.291 C
BRANCH  24  25
HETATM   25  O1  UNL     1      13.462  25.447  42.110  1.00  0.00    -0.367 OA
ATOM     26  H1  UNL     1      13.280  26.360  41.919  1.00  0.00     0.213 HD
ENDBRANCH  24  25
BRANCH  24  27
HETATM   27  O2  UNL     1      15.365  25.525  42.694  1.00  0.00    -0.367 OA
ATOM     28  H2  UNL     1      15.506  26.405  42.364  1.00  0.00     0.213 HD
ENDBRANCH  24  27
ENDBRANCH   6  24
BRANCH  15  29
HETATM   29  C13 UNL     1      17.341  19.555  41.756  1.00  0.00     0.269 C
BRANCH  29  30
HETATM   30  O7  UNL     1      18.328  19.099  40.965  1.00  0.00    -0.392 OA
ATOM     31  H7  UNL     1      18.610  18.192  40.989  1.00  0.00     0.210 HD
ENDBRANCH  29  30
ENDBRANCH  15  29
BRANCH   9  32
HETATM   32  C9  UNL     1      14.171  20.798  46.510  1.00  0.00     0.290 C
BRANCH  32  33
HETATM   33  O3  UNL     1      15.518  20.561  46.885  1.00  0.00    -0.367 OA
ATOM     34  H3  UNL     1      16.001  21.379  46.872  1.00  0.00     0.213 HD
ENDBRANCH  32  33
BRANCH  32  35
HETATM   35  O4  UNL     1      13.795  19.635  45.795  1.00  0.00    -0.367 OA
ATOM     36  H4  UNL     1      13.490  19.917  44.941  1.00  0.00     0.213 HD
ENDBRANCH  32  35
ENDBRANCH   9  32
BRANCH   4  37
HETATM   37  N3  UNL     1      11.949  26.003  44.477  1.00  0.00    -0.385 N
ATOM     38  H32 UNL     1      11.125  26.597  44.572  1.00  0.00     0.157 HD
ATOM     39  H31 UNL     1      12.710  26.135  43.811  1.00  0.00     0.157 HD
ENDBRANCH   4  37
BRANCH   1  40
HETATM   40  N1  UNL     1      10.381  24.347  48.412  1.00  0.00    -0.380 N
ATOM     41  H12 UNL     1      10.391  25.167  49.017  1.00  0.00     0.158 HD
ATOM     42  H11 UNL     1       9.671  23.651  48.641  1.00  0.00     0.158 HD
ENDBRANCH   1  40
TORSDOF 13
ENDMDL