MODEL 3
REMARK VINA RESULT: -7.832557880      1.778      5.880
REMARK  10 active torsions:
REMARK  status: ('A' for Active; 'I' for Inactive)
REMARK    1  A    between atoms: N2_3  and  C2_5
REMARK    2  A    between atoms: C3_8  and  N4_9
REMARK    3  A    between atoms: N4_9  and  C4_11
REMARK    4  A    between atoms: C4_11  and  C5_12
REMARK    5  A    between atoms: C4_11  and  N9_25
REMARK    6  A    between atoms: C7_17  and  N7_18
REMARK    7  A    between atoms: C9_30  and  C10_31
REMARK    8  A    between atoms: C11_41  and  C12_42
REMARK    9  A    between atoms: C12_42  and  O2_43
REMARK   10  A    between atoms: C12_42  and  O3_45
ROOT
HETATM    1  N1  UNL     1       8.961  24.324  36.517  1.00  0.00    -0.172 NA
HETATM    2  C1  UNL     1       9.754  25.070  36.864  1.00  0.00     0.185 C
HETATM    3  N2  UNL     1      10.716  25.951  37.293  1.00  0.00    -0.258 N
ATOM      4  H2  UNL     1      11.136  26.568  36.598  1.00  0.00     0.181 HD
ENDROOT
BRANCH   3   5
HETATM    5  C2  UNL     1      11.129  26.054  38.512  1.00  0.00     0.239 A
HETATM    6  N3  UNL     1      11.997  25.207  39.144  1.00  0.00    -0.305 N
HETATM    7  C3  UNL     1      12.196  25.620  40.393  1.00  0.00     0.141 A
ATOM      8  H3  UNL     1      12.427  24.385  38.722  1.00  0.00     0.171 HD
HETATM    9  C11 UNL     1      11.421  26.763  40.534  1.00  0.00     0.154 A
HETATM   10  O4  UNL     1      10.818  26.957  39.377  1.00  0.00    -0.274 OA
BRANCH   7  11
HETATM   11  N4  UNL     1      13.005  25.066  41.400  1.00  0.00    -0.346 N
ATOM     12  H4  UNL     1      12.516  24.658  42.197  1.00  0.00     0.163 HD
BRANCH  11  13
HETATM   13  C4  UNL     1      14.443  25.005  41.440  1.00  0.00     0.270 C
BRANCH  13  14
HETATM   14  C5  UNL     1      14.980  26.260  41.998  1.00  0.00     0.097 A
HETATM   15  C6  UNL     1      15.996  26.860  41.243  1.00  0.00     0.147 A
HETATM   16  N5  UNL     1      16.453  26.290  40.019  1.00  0.00    -0.081 NA
HETATM   17  N6  UNL     1      16.582  27.996  41.638  1.00  0.00    -0.178 N
HETATM   18  C7  UNL     1      16.204  28.583  42.772  1.00  0.00     0.680 A
ATOM     19  H6  UNL     1      17.320  28.412  41.071  1.00  0.00     0.185 HD
HETATM   20  N8  UNL     1      15.234  28.028  43.513  1.00  0.00    -0.156 N
HETATM   21  C8  UNL     1      14.616  26.876  43.144  1.00  0.00     0.273 A
ATOM     22  H8  UNL     1      14.952  28.485  44.381  1.00  0.00     0.187 HD
HETATM   23  O1  UNL     1      13.716  26.376  43.843  1.00  0.00    -0.267 OA
BRANCH  18  24
HETATM   24  N7  UNL     1      16.786  29.690  43.145  1.00  0.00    -0.234 N
ATOM     25  H72 UNL     1      16.239  30.528  43.348  1.00  0.00     0.174 HD
ATOM     26  H71 UNL     1      17.801  29.716  43.237  1.00  0.00     0.174 HD
ENDBRANCH  18  24
ENDBRANCH  13  14
BRANCH  13  27
HETATM   27  N9  UNL     1      14.983  23.796  41.963  1.00  0.00    -0.189 N
HETATM   28  N10 UNL     1      15.123  23.334  43.194  1.00  0.00    -0.222 N
HETATM   29  N11 UNL     1      15.672  22.137  43.220  1.00  0.00    -0.265 N
ATOM     30  H10 UNL     1      14.839  23.846  44.029  1.00  0.00     0.210 HD
HETATM   31  C9  UNL     1      15.907  21.785  41.964  1.00  0.00     0.184 A
ATOM     32  H11 UNL     1      15.877  21.584  44.052  1.00  0.00     0.190 HD
HETATM   33  N16 UNL     1      15.482  22.809  41.206  1.00  0.00    -0.261 N
ATOM     34  H16 UNL     1      15.532  22.833  40.187  1.00  0.00     0.190 HD
BRANCH  31  35
HETATM   35  C10 UNL     1      16.504  20.552  41.448  1.00  0.00     0.181 A
HETATM   36  N12 UNL     1      16.172  19.891  40.329  1.00  0.00    -0.264 N
HETATM   37  N13 UNL     1      16.966  18.831  40.248  1.00  0.00    -0.005 NA
ATOM     38  H12 UNL     1      15.443  20.154  39.664  1.00  0.00     0.186 HD
HETATM   39  N14 UNL     1      17.794  18.795  41.278  1.00  0.00    -0.225 N
HETATM   40  N15 UNL     1      17.499  19.852  42.000  1.00  0.00    -0.268 N
ATOM     41  H14 UNL     1      18.510  18.095  41.471  1.00  0.00     0.205 HD
ATOM     42  H15 UNL     1      17.969  20.104  42.870  1.00  0.00     0.190 HD
ENDBRANCH  31  35
ENDBRANCH  13  27
ENDBRANCH  11  13
ENDBRANCH   7  11
BRANCH   9  43
HETATM   43  C12 UNL     1      11.251  27.639  41.699  1.00  0.00     0.316 C
BRANCH  43  44
HETATM   44  O2  UNL     1      12.304  28.518  41.897  1.00  0.00    -0.365 OA
ATOM     45  H2  UNL     1      12.101  29.419  41.670  1.00  0.00     0.213 HD
ENDBRANCH  43  44
BRANCH  43  46
HETATM   46  O3  UNL     1      11.082  26.902  42.872  1.00  0.00    -0.365 OA
ATOM     47  H3  UNL     1      10.452  27.313  43.454  1.00  0.00     0.213 HD
ENDBRANCH  43  46
ENDBRANCH   9  43
ENDBRANCH   3   5
TORSDOF 10
ENDMDL