MODEL 1
REMARK VINA RESULT: -7.233717052      0.000      0.000
REMARK  10 active torsions:
REMARK  status: ('A' for Active; 'I' for Inactive)
REMARK    1  A    between atoms: N1_1  and  C1_4
REMARK    2  A    between atoms: C2_7  and  N3_8
REMARK    3  A    between atoms: N3_8  and  C3_10
REMARK    4  A    between atoms: C3_10  and  N4_11
REMARK    5  A    between atoms: C3_10  and  O1_15
REMARK    6  A    between atoms: C5_18  and  N5_19
REMARK    7  A    between atoms: C6_24  and  C7_25
REMARK    8  A    between atoms: C9_30  and  N10_31
REMARK    9  A    between atoms: N10_31  and  N11_33
REMARK   10  A    between atoms: C11_39  and  C12_40
ROOT
HETATM    1  C1  UNL     1      11.474  26.129  39.896  1.00  0.00     0.679 A
HETATM    2  N2  UNL     1      12.327  26.932  40.537  1.00  0.00    -0.176 N
ATOM      3  H2  UNL     1      12.099  27.916  40.677  1.00  0.00     0.186 HD
HETATM    4  C2  UNL     1      13.509  26.427  41.004  1.00  0.00     0.136 A
HETATM    5  C4  UNL     1      13.832  25.099  40.825  1.00  0.00     0.084 A
HETATM    6  C5  UNL     1      14.992  24.557  41.283  1.00  0.00     0.106 A
HETATM    7  C9  UNL     1      15.207  23.187  41.050  1.00  0.00     0.095 A
HETATM    8  C13 UNL     1      14.226  22.461  40.368  1.00  0.00     0.123 A
HETATM    9  N15 UNL     1      13.109  23.034  39.940  1.00  0.00    -0.349 N
ATOM     10  H15 UNL     1      12.418  22.470  39.446  1.00  0.00     0.167 HD
HETATM   11  C14 UNL     1      12.866  24.346  40.143  1.00  0.00     0.137 A
HETATM   12  N16 UNL     1      11.708  24.845  39.683  1.00  0.00    -0.176 N
ATOM     13  H16 UNL     1      11.035  24.257  39.190  1.00  0.00     0.186 HD
ENDROOT
BRANCH   7  14
HETATM   14  N10 UNL     1      16.339  22.538  41.555  1.00  0.00    -0.274 N
ATOM     15  H10 UNL     1      17.240  22.860  41.201  1.00  0.00     0.189 HD
BRANCH  14  16
HETATM   16  N11 UNL     1      16.377  21.500  42.489  1.00  0.00    -0.173 N
HETATM   17  N12 UNL     1      16.000  21.599  43.752  1.00  0.00    -0.273 N
HETATM   18  C10 UNL     1      16.146  20.457  44.390  1.00  0.00     0.201 A
ATOM     19  H12 UNL     1      15.641  22.453  44.179  1.00  0.00     0.190 HD
HETATM   20  N13 UNL     1      16.636  19.601  43.493  1.00  0.00    -0.331 N
HETATM   21  C11 UNL     1      16.783  20.236  42.310  1.00  0.00     0.211 A
ATOM     22  H13 UNL     1      16.863  18.622  43.672  1.00  0.00     0.168 HD
BRANCH  21  23
HETATM   23  C12 UNL     1      17.299  19.598  41.078  1.00  0.00     0.302 C
HETATM   24  N14 UNL     1      16.365  19.404  40.001  1.00  0.00    -0.054 NA
HETATM   25  O3  UNL     1      18.454  19.220  40.898  1.00  0.00    -0.268 OA
ENDBRANCH  21  23
ENDBRANCH  14  16
ENDBRANCH   7  14
BRANCH   6  26
HETATM   26  N5  UNL     1      15.957  25.287  42.020  1.00  0.00    -0.222 N
HETATM   27  N6  UNL     1      16.198  25.514  43.281  1.00  0.00    -0.234 N
HETATM   28  N7  UNL     1      17.206  26.345  43.462  1.00  0.00    -0.278 N
ATOM     29  H6  UNL     1      15.665  25.095  44.044  1.00  0.00     0.209 HD
HETATM   30  C6  UNL     1      17.659  26.685  42.254  1.00  0.00     0.157 A
ATOM     31  H7  UNL     1      17.572  26.668  44.358  1.00  0.00     0.189 HD
HETATM   32  C8  UNL     1      16.883  26.026  41.338  1.00  0.00     0.173 A
HETATM   33  N9  UNL     1      17.038  26.116  39.902  1.00  0.00    -0.078 NA
BRANCH  30  34
HETATM   34  C7  UNL     1      18.769  27.585  41.922  1.00  0.00     0.286 C
HETATM   35  N8  UNL     1      19.981  27.011  41.433  1.00  0.00    -0.056 NA
HETATM   36  O2  UNL     1      18.662  28.814  42.063  1.00  0.00    -0.269 OA
ENDBRANCH  30  34
ENDBRANCH   6  26
BRANCH   4  37
HETATM   37  N3  UNL     1      14.306  27.198  41.634  1.00  0.00    -0.327 N
ATOM     38  H3  UNL     1      15.310  27.124  41.462  1.00  0.00     0.165 HD
BRANCH  37  39
HETATM   39  C3  UNL     1      13.828  28.167  42.576  1.00  0.00     0.425 C
BRANCH  39  40
HETATM   40  N4  UNL     1      14.123  29.495  42.034  1.00  0.00    -0.035 N
ATOM     41  H43 UNL     1      14.270  30.196  42.761  1.00  0.00     0.279 HD
ATOM     42  H42 UNL     1      15.045  29.553  41.604  1.00  0.00     0.279 HD
ATOM     43  H41 UNL     1      13.369  29.741  41.392  1.00  0.00     0.279 HD
ENDBRANCH  39  40
BRANCH  39  44
HETATM   44  O1  UNL     1      14.431  28.082  43.833  1.00  0.00    -0.355 OA
ATOM     45  H1  UNL     1      13.910  28.449  44.537  1.00  0.00     0.213 HD
ENDBRANCH  39  44
ENDBRANCH  37  39
ENDBRANCH   4  37
BRANCH   1  46
HETATM   46  N1  UNL     1      10.370  26.663  39.475  1.00  0.00    -0.234 N
ATOM     47  H12 UNL     1      10.012  27.508  39.920  1.00  0.00     0.174 HD
ATOM     48  H11 UNL     1       9.901  26.199  38.698  1.00  0.00     0.174 HD
ENDBRANCH   1  46
TORSDOF 10
ENDMDL