MODEL 3
REMARK VINA RESULT: -5.698928842      1.781      2.233
REMARK  12 active torsions:
REMARK  status: ('A' for Active; 'I' for Inactive)
REMARK    1  A    between atoms: O1_2  and  C2_3
REMARK    2  A    between atoms: C5_12  and  O4_13
REMARK    3  A    between atoms: C9_18  and  O5_19
REMARK    4  A    between atoms: O5_19  and  C10_20
REMARK    5  A    between atoms: C12_23  and  O7_24
REMARK    6  A    between atoms: C13_26  and  O8_27
REMARK    7  A    between atoms: C13_26  and  C14_29
REMARK    8  A    between atoms: C14_29  and  O9_30
REMARK    9  A    between atoms: C14_29  and  C15_32
REMARK   10  A    between atoms: C15_32  and  O10_33
REMARK   11  A    between atoms: C15_32  and  C16_35
REMARK   12  A    between atoms: C16_35  and  O11_37
ROOT
HETATM    1  C2  UNL     1      11.483  26.373  42.085  1.00  0.00     0.254 C
HETATM    2  N1  UNL     1      12.478  27.290  42.408  1.00  0.00    -0.284 N
ATOM      3  H1  UNL     1      12.247  27.991  43.113  1.00  0.00     0.185 HD
HETATM    4  N2  UNL     1      13.687  27.342  41.893  1.00  0.00    -0.296 N
ATOM      5  H2  UNL     1      14.131  28.190  41.543  1.00  0.00     0.183 HD
HETATM    6  C3  UNL     1      14.297  26.042  41.890  1.00  0.00     0.228 C
HETATM    7  O2  UNL     1      15.735  26.083  42.067  1.00  0.00    -0.279 OA
HETATM    8  C4  UNL     1      15.565  24.846  42.726  1.00  0.00     0.301 C
HETATM    9  O3  UNL     1      16.257  23.817  42.847  1.00  0.00    -0.261 OA
HETATM   10  C5  UNL     1      14.256  25.370  43.154  1.00  0.00     0.203 C
HETATM   11  C6  UNL     1      13.182  24.428  43.519  1.00  0.00     0.034 C
HETATM   12  C7  UNL     1      13.812  23.546  44.636  1.00  0.00     0.014 C
HETATM   13  C8  UNL     1      12.104  25.188  44.218  1.00  0.00     0.047 C
HETATM   14  C9  UNL     1      10.990  25.734  43.369  1.00  0.00     0.211 C
HETATM   15  C12 UNL     1      14.047  25.442  40.554  1.00  0.00     0.237 C
HETATM   16  C13 UNL     1      12.639  25.135  40.218  1.00  0.00     0.191 C
HETATM   17  N3  UNL     1      11.700  25.317  41.225  1.00  0.00    -0.336 N
ATOM     18  H3  UNL     1      11.060  24.533  41.351  1.00  0.00     0.161 HD
ENDROOT
BRANCH  16  19
HETATM   19  O8  UNL     1      12.624  23.736  39.942  1.00  0.00    -0.366 OA
ATOM     20  H8  UNL     1      11.704  23.507  39.890  1.00  0.00     0.212 HD
ENDBRANCH  16  19
BRANCH  16  21
HETATM   21  C14 UNL     1      12.108  25.730  38.925  1.00  0.00     0.207 C
BRANCH  21  22
HETATM   22  O9  UNL     1      11.867  27.147  39.260  1.00  0.00    -0.388 OA
ATOM     23  H9  UNL     1      12.735  27.490  39.438  1.00  0.00     0.210 HD
ENDBRANCH  21  22
BRANCH  21  24
HETATM   24  C15 UNL     1      10.719  25.337  38.520  1.00  0.00     0.180 C
BRANCH  24  25
HETATM   25  O10 UNL     1       9.905  26.465  38.968  1.00  0.00    -0.390 OA
ATOM     26  H10 UNL     1       9.977  27.086  38.253  1.00  0.00     0.210 HD
ENDBRANCH  24  25
BRANCH  24  27
HETATM   27  C16 UNL     1      10.388  25.278  37.074  1.00  0.00     0.145 C
HETATM   28  C17 UNL     1       9.574  26.492  36.680  1.00  0.00     0.042 C
BRANCH  27  29
HETATM   29  O11 UNL     1       9.437  24.197  36.972  1.00  0.00    -0.393 OA
ATOM     30  H11 UNL     1       9.575  23.846  36.100  1.00  0.00     0.210 HD
ENDBRANCH  27  29
ENDBRANCH  24  27
ENDBRANCH  21  24
ENDBRANCH  16  21
BRANCH  15  31
HETATM   31  O7  UNL     1      14.943  24.409  40.309  1.00  0.00    -0.385 OA
ATOM     32  H7  UNL     1      15.547  24.649  39.616  1.00  0.00     0.210 HD
ENDBRANCH  15  31
BRANCH   1  33
HETATM   33  O1  UNL     1      10.434  27.106  41.549  1.00  0.00    -0.346 OA
HETATM   34  C1  UNL     1       9.794  27.997  42.339  1.00  0.00     0.207 C
ENDBRANCH   1  33
BRANCH  10  35
HETATM   35  O4  UNL     1      14.490  26.252  44.232  1.00  0.00    -0.375 OA
ATOM     36  H4  UNL     1      13.838  26.941  44.280  1.00  0.00     0.211 HD
ENDBRANCH  10  35
BRANCH  14  37
HETATM   37  O5  UNL     1      10.102  24.708  43.033  1.00  0.00    -0.309 OA
BRANCH  37  38
HETATM   38  C10 UNL     1       9.056  24.254  43.790  1.00  0.00     0.255 C
HETATM   39  C11 UNL     1       7.886  25.172  44.045  1.00  0.00     0.126 C
HETATM   40  O6  UNL     1       9.085  23.100  44.254  1.00  0.00    -0.266 OA
ENDBRANCH  37  38
ENDBRANCH  14  37
TORSDOF 12
ENDMDL