MODEL 5
REMARK VINA RESULT: -5.241719534      1.640      1.887
REMARK  3 active torsions:
REMARK  status: ('A' for Active; 'I' for Inactive)
REMARK    1  A    between atoms: C1_1  and  C4_9
REMARK    2  A    between atoms: N1_2  and  O1_4
REMARK    3  A    between atoms: O1_4  and  C2_5
ROOT
HETATM    1  C1  UNL     1       8.327 -24.451 -17.661  1.00  0.00     0.165 C
HETATM    2  N1  UNL     1       9.333 -23.717 -17.904  1.00  0.00    -0.272 N
ATOM      3  H1  UNL     1       9.165 -22.712 -17.916  1.00  0.00     0.193 HD
ENDROOT
BRANCH   1   4
HETATM    4  C4  UNL     1       7.031 -23.843 -17.420  1.00  0.00     0.154 A
HETATM    5  N4  UNL     1       5.962 -23.477 -18.179  1.00  0.00    -0.269 N
HETATM    6  N5  UNL     1       5.292 -23.035 -17.136  1.00  0.00    -0.239 N
ATOM      7  H4  UNL     1       5.757 -23.527 -19.177  1.00  0.00     0.190 HD
HETATM    8  N6  UNL     1       6.315 -23.380 -16.376  1.00  0.00    -0.269 N
ATOM      9  H5  UNL     1       4.378 -22.609 -16.982  1.00  0.00     0.208 HD
ATOM     10  H6  UNL     1       6.496 -23.319 -15.374  1.00  0.00     0.190 HD
ENDBRANCH   1   4
BRANCH   2  11
HETATM   11  O1  UNL     1      10.599 -24.116 -18.148  1.00  0.00    -0.256 OA
BRANCH  11  12
HETATM   12  C2  UNL     1      11.743 -23.308 -17.986  1.00  0.00     0.276 C
HETATM   13  C3  UNL     1      11.715 -22.116 -18.921  1.00  0.00     0.183 C
HETATM   14  N2  UNL     1      13.091 -22.412 -19.339  1.00  0.00    -0.142 NA
HETATM   15  N3  UNL     1      12.888 -23.704 -18.807  1.00  0.00    -0.112 NA
ENDBRANCH  11  12
ENDBRANCH   2  11
TORSDOF 3
ENDMDL