MODEL 4
REMARK VINA RESULT: -4.734443362      2.124      5.068
REMARK  6 active torsions:
REMARK  status: ('A' for Active; 'I' for Inactive)
REMARK    1  A    between atoms: N1_1  and  C1_4
REMARK    2  A    between atoms: C2_7  and  C3_8
REMARK    3  A    between atoms: C3_8  and  N3_9
REMARK    4  A    between atoms: C3_8  and  C4_13
REMARK    5  A    between atoms: C4_13  and  N4_14
REMARK    6  A    between atoms: C4_13  and  O1_18
ROOT
HETATM    1  C1  UNL     1       5.322 -23.039 -16.669  1.00  0.00     0.690 A
HETATM    2  N2  UNL     1       6.326 -22.717 -17.505  1.00  0.00    -0.191 N
ATOM      3  H2  UNL     1       6.519 -21.743 -17.738  1.00  0.00     0.184 HD
HETATM    4  C2  UNL     1       7.080 -23.722 -18.033  1.00  0.00     0.078 A
HETATM    5  C5  UNL     1       6.848 -25.047 -17.737  1.00  0.00     0.135 A
HETATM    6  N5  UNL     1       5.834 -25.321 -16.897  1.00  0.00    -0.296 N
ATOM      7  H5  UNL     1       5.628 -26.290 -16.652  1.00  0.00     0.186 HD
HETATM    8  N6  UNL     1       5.092 -24.334 -16.377  1.00  0.00    -0.133 N
ATOM      9  H6  UNL     1       4.330 -24.569 -15.741  1.00  0.00     0.205 HD
ENDROOT
BRANCH   4  10
HETATM   10  C3  UNL     1       8.182 -23.372 -18.951  1.00  0.00     0.290 C
BRANCH  10  11
HETATM   11  N3  UNL     1       7.836 -22.273 -19.822  1.00  0.00    -0.065 N
ATOM     12  H33 UNL     1       7.951 -22.528 -20.803  1.00  0.00     0.275 HD
ATOM     13  H32 UNL     1       6.830 -22.101 -19.818  1.00  0.00     0.275 HD
ATOM     14  H31 UNL     1       8.356 -21.425 -19.597  1.00  0.00     0.275 HD
ENDBRANCH  10  11
BRANCH  10  15
HETATM   15  C4  UNL     1       9.449 -23.036 -18.199  1.00  0.00     0.353 C
BRANCH  15  16
HETATM   16  N4  UNL     1      10.125 -21.994 -18.974  1.00  0.00    -0.051 N
ATOM     17  H43 UNL     1       9.791 -21.922 -19.934  1.00  0.00     0.277 HD
ATOM     18  H42 UNL     1       9.876 -21.048 -18.683  1.00  0.00     0.277 HD
ATOM     19  H41 UNL     1      11.125 -22.187 -18.906  1.00  0.00     0.277 HD
ENDBRANCH  15  16
BRANCH  15  20
HETATM   20  O1  UNL     1      10.274 -24.156 -18.113  1.00  0.00    -0.368 OA
ATOM     21  H1  UNL     1      10.177 -24.700 -18.886  1.00  0.00     0.212 HD
ENDBRANCH  15  20
ENDBRANCH  10  15
ENDBRANCH   4  10
BRANCH   1  22
HETATM   22  N1  UNL     1       4.565 -22.125 -16.132  1.00  0.00    -0.233 N
ATOM     23  H12 UNL     1       4.591 -21.177 -16.508  1.00  0.00     0.174 HD
ATOM     24  H11 UNL     1       3.949 -22.337 -15.347  1.00  0.00     0.174 HD
ENDBRANCH   1  22
TORSDOF 6
ENDMDL