MODEL 4
REMARK VINA RESULT: -4.950948231      1.326      5.174
REMARK  6 active torsions:
REMARK  status: ('A' for Active; 'I' for Inactive)
REMARK    1  A    between atoms: N1_1  and  C1_4
REMARK    2  A    between atoms: C2_9  and  C3_10
REMARK    3  A    between atoms: C3_10  and  C4_11
REMARK    4  A    between atoms: C4_11  and  C5_12
REMARK    5  A    between atoms: C5_12  and  N4_13
REMARK    6  A    between atoms: C5_12  and  N5_17
ROOT
HETATM    1  C3  UNL     1       9.819 -23.194 -17.922  1.00  0.00     0.090 C
ENDROOT
BRANCH   1   2
HETATM    2  C2  UNL     1       8.384 -23.596 -17.855  1.00  0.00     0.142 A
HETATM    3  N3  UNL     1       7.414 -23.149 -18.676  1.00  0.00    -0.280 N
HETATM    4  N2  UNL     1       6.259 -23.704 -18.345  1.00  0.00    -0.263 N
ATOM      5  H3  UNL     1       7.549 -22.483 -19.437  1.00  0.00     0.189 HD
HETATM    6  C1  UNL     1       6.517 -24.514 -17.294  1.00  0.00     0.238 A
ATOM      7  H2  UNL     1       5.356 -23.551 -18.793  1.00  0.00     0.190 HD
HETATM    8  O1  UNL     1       7.799 -24.428 -17.024  1.00  0.00    -0.264 OA
BRANCH   6   9
HETATM    9  N1  UNL     1       5.597 -25.214 -16.719  1.00  0.00    -0.364 N
ATOM     10  H12 UNL     1       5.571 -25.614 -15.781  1.00  0.00     0.159 HD
ATOM     11  H11 UNL     1       4.724 -25.459 -17.187  1.00  0.00     0.159 HD
ENDBRANCH   6   9
ENDBRANCH   1   2
BRANCH   1  12
HETATM   12  C4  UNL     1      10.030 -22.101 -18.954  1.00  0.00     0.070 C
BRANCH  12  13
HETATM   13  C5  UNL     1      11.508 -21.785 -18.975  1.00  0.00     0.378 C
BRANCH  13  14
HETATM   14  N4  UNL     1      12.321 -22.942 -18.729  1.00  0.00    -0.051 N
ATOM     15  H43 UNL     1      12.974 -23.103 -19.497  1.00  0.00     0.276 HD
ATOM     16  H42 UNL     1      12.989 -22.769 -17.978  1.00  0.00     0.276 HD
ATOM     17  H41 UNL     1      11.765 -23.776 -18.540  1.00  0.00     0.276 HD
ENDBRANCH  13  14
BRANCH  13  18
HETATM   18  N5  UNL     1      11.923 -21.195 -20.220  1.00  0.00    -0.051 N
ATOM     19  H53 UNL     1      11.528 -21.698 -21.015  1.00  0.00     0.276 HD
ATOM     20  H52 UNL     1      11.479 -20.289 -20.363  1.00  0.00     0.276 HD
ATOM     21  H51 UNL     1      12.937 -21.124 -20.296  1.00  0.00     0.276 HD
ENDBRANCH  13  18
ENDBRANCH  12  13
ENDBRANCH   1  12
TORSDOF 6
ENDMDL