MODEL 4
REMARK VINA RESULT: -5.899348682      1.052      1.246
REMARK  2 active torsions:
REMARK  status: ('A' for Active; 'I' for Inactive)
REMARK    1  A    between atoms: N3_4  and  N4_6
REMARK    2  A    between atoms: C2_8  and  C3_10
ROOT
HETATM    1  N4  UNL     1       8.620 -23.672 -17.175  1.00  0.00    -0.283 N
ATOM      2  H4  UNL     1       8.659 -23.743 -16.159  1.00  0.00     0.188 HD
HETATM    3  C2  UNL     1       7.483 -23.491 -17.711  1.00  0.00     0.177 C
HETATM    4  N5  UNL     1       7.326 -23.377 -19.125  1.00  0.00    -0.077 NA
ENDROOT
BRANCH   3   5
HETATM    5  C3  UNL     1       6.285 -23.394 -16.876  1.00  0.00     0.174 C
HETATM    6  N6  UNL     1       5.196 -22.722 -17.127  1.00  0.00    -0.268 N
HETATM    7  N7  UNL     1       4.302 -22.900 -16.067  1.00  0.00    -0.007 NA
ATOM      8  H6  UNL     1       5.025 -22.158 -17.960  1.00  0.00     0.185 HD
HETATM    9  N8  UNL     1       5.097 -23.280 -14.979  1.00  0.00    -0.007 NA
HETATM   10  N9  UNL     1       6.094 -24.030 -15.613  1.00  0.00    -0.268 N
ATOM     11  H9  UNL     1       6.578 -24.852 -15.252  1.00  0.00     0.185 HD
ENDBRANCH   3   5
BRANCH   1  12
HETATM   12  N3  UNL     1       9.817 -23.779 -17.877  1.00  0.00    -0.275 N
HETATM   13  C1  UNL     1      10.944 -23.431 -17.389  1.00  0.00     0.215 C
HETATM   14  N1  UNL     1      11.030 -22.904 -16.065  1.00  0.00    -0.065 NA
HETATM   15  N2  UNL     1      12.125 -23.564 -18.150  1.00  0.00    -0.065 NA
ATOM     16  H3  UNL     1       9.792 -24.152 -18.826  1.00  0.00     0.189 HD
ENDBRANCH   1  12
TORSDOF 2
ENDMDL