MODEL 4
REMARK VINA RESULT: -5.242109341      1.934      5.791
REMARK  4 active torsions:
REMARK  status: ('A' for Active; 'I' for Inactive)
REMARK    1  A    between atoms: N1_1  and  C1_4
REMARK    2  A    between atoms: C4_13  and  N5_14
REMARK    3  A    between atoms: N5_14  and  N6_16
REMARK    4  A    between atoms: N6_16  and  N7_17
ROOT
HETATM    1  C1  UNL     1       8.377 -22.642 -19.131  1.00  0.00     0.131 A
HETATM    2  N2  UNL     1       7.915 -23.494 -18.194  1.00  0.00    -0.337 N
ATOM      3  H2  UNL     1       6.931 -23.762 -18.204  1.00  0.00     0.168 HD
HETATM    4  C2  UNL     1       8.727 -23.999 -17.241  1.00  0.00     0.183 A
HETATM    5  N3  UNL     1      10.016 -23.618 -17.264  1.00  0.00    -0.336 N
ATOM      6  H3  UNL     1      10.642 -23.990 -16.550  1.00  0.00     0.168 HD
HETATM    7  C3  UNL     1      10.523 -22.775 -18.173  1.00  0.00     0.153 A
HETATM    8  N4  UNL     1      11.746 -22.258 -18.398  1.00  0.00    -0.173 N
ATOM      9  H4  UNL     1      12.571 -22.460 -17.834  1.00  0.00     0.186 HD
HETATM   10  C4  UNL     1      11.732 -21.441 -19.464  1.00  0.00     0.697 A
HETATM   11  N8  UNL     1      10.464 -21.457 -19.906  1.00  0.00    -0.183 N
ATOM     12  H8  UNL     1      10.126 -20.930 -20.712  1.00  0.00     0.184 HD
HETATM   13  C5  UNL     1       9.698 -22.258 -19.146  1.00  0.00     0.137 A
ENDROOT
BRANCH  10  14
HETATM   14  N5  UNL     1      12.841 -20.725 -19.988  1.00  0.00    -0.116 N
ATOM     15  H5  UNL     1      12.890 -19.717 -19.842  1.00  0.00     0.203 HD
BRANCH  14  16
HETATM   16  N6  UNL     1      13.857 -21.347 -20.690  1.00  0.00    -0.015 NA
BRANCH  16  17
HETATM   17  N7  UNL     1      13.426 -21.738 -21.963  1.00  0.00    -0.328 N
ATOM     18  H72 UNL     1      13.288 -22.710 -22.238  1.00  0.00     0.174 HD
ATOM     19  H71 UNL     1      13.275 -20.929 -22.566  1.00  0.00     0.174 HD
ENDBRANCH  16  17
ENDBRANCH  14  16
ENDBRANCH  10  14
BRANCH   1  20
HETATM   20  N1  UNL     1       7.576 -22.192 -20.006  1.00  0.00    -0.383 N
ATOM     21  H12 UNL     1       6.570 -22.306 -19.883  1.00  0.00     0.157 HD
ATOM     22  H11 UNL     1       7.953 -21.719 -20.828  1.00  0.00     0.157 HD
ENDBRANCH   1  20
TORSDOF 4
ENDMDL