MODEL 4
REMARK VINA RESULT: -4.062829395      4.541      6.359
REMARK  6 active torsions:
REMARK  status: ('A' for Active; 'I' for Inactive)
REMARK    1  A    between atoms: N1_1  and  C1_4
REMARK    2  A    between atoms: C2_7  and  N3_8
REMARK    3  A    between atoms: N3_8  and  N4_9
REMARK    4  A    between atoms: N3_8  and  N5_12
REMARK    5  A    between atoms: C4_16  and  C5_17
REMARK    6  A    between atoms: C5_17  and  N6_18
ROOT
HETATM    1  C1  UNL     1      12.049 -21.549 -19.653  1.00  0.00     0.677 A
HETATM    2  N2  UNL     1      12.767 -21.570 -20.791  1.00  0.00    -0.173 N
ATOM      3  H2  UNL     1      12.409 -21.055 -21.595  1.00  0.00     0.186 HD
HETATM    4  C2  UNL     1      13.927 -22.229 -20.928  1.00  0.00     0.161 A
HETATM    5  C3  UNL     1      14.390 -22.917 -19.827  1.00  0.00     0.080 A
HETATM    6  C4  UNL     1      13.683 -22.922 -18.639  1.00  0.00     0.055 A
HETATM    7  N7  UNL     1      12.529 -22.233 -18.593  1.00  0.00    -0.194 N
ATOM      8  H7  UNL     1      11.996 -22.227 -17.723  1.00  0.00     0.184 HD
ENDROOT
BRANCH   4   9
HETATM    9  N3  UNL     1      14.640 -22.209 -22.166  1.00  0.00    -0.192 N
BRANCH   9  10
HETATM   10  N4  UNL     1      14.341 -23.150 -23.134  1.00  0.00    -0.323 N
ATOM     11  H42 UNL     1      15.039 -23.380 -23.841  1.00  0.00     0.179 HD
ATOM     12  H41 UNL     1      13.426 -23.601 -23.126  1.00  0.00     0.179 HD
ENDBRANCH   9  10
BRANCH   9  13
HETATM   13  N5  UNL     1      15.620 -21.272 -22.415  1.00  0.00    -0.323 N
ATOM     14  H52 UNL     1      15.778 -20.523 -21.741  1.00  0.00     0.179 HD
ATOM     15  H51 UNL     1      16.190 -21.312 -23.260  1.00  0.00     0.179 HD
ENDBRANCH   9  13
ENDBRANCH   4   9
BRANCH   1  16
HETATM   16  N1  UNL     1      10.920 -20.889 -19.570  1.00  0.00    -0.234 N
ATOM     17  H12 UNL     1      10.225 -20.947 -20.314  1.00  0.00     0.174 HD
ATOM     18  H11 UNL     1      10.704 -20.303 -18.764  1.00  0.00     0.174 HD
ENDBRANCH   1  16
BRANCH   6  19
HETATM   19  C5  UNL     1      14.121 -23.631 -17.436  1.00  0.00     0.287 C
BRANCH  19  20
HETATM   20  N6  UNL     1      15.174 -24.560 -17.626  1.00  0.00    -0.074 N
ATOM     21  H63 UNL     1      14.831 -25.511 -17.490  1.00  0.00     0.274 HD
ATOM     22  H62 UNL     1      15.431 -24.600 -18.612  1.00  0.00     0.274 HD
ATOM     23  H61 UNL     1      16.004 -24.403 -17.054  1.00  0.00     0.274 HD
ENDBRANCH  19  20
ENDBRANCH   6  19
TORSDOF 6
ENDMDL