MODEL 4
REMARK VINA RESULT: -4.495333074      1.861      2.512
REMARK  6 active torsions:
REMARK  status: ('A' for Active; 'I' for Inactive)
REMARK    1  A    between atoms: N1_1  and  C1_4
REMARK    2  A    between atoms: C2_10  and  C3_11
REMARK    3  A    between atoms: C3_11  and  N4_12
REMARK    4  A    between atoms: C3_11  and  C4_16
REMARK    5  A    between atoms: C4_16  and  N5_17
REMARK    6  A    between atoms: C4_16  and  O2_21
ROOT
HETATM    1  C3  UNL     1       7.792 -23.793 -18.591  1.00  0.00     0.294 C
ENDROOT
BRANCH   1   2
HETATM    2  C2  UNL     1       8.991 -23.666 -17.739  1.00  0.00     0.114 A
HETATM    3  C1  UNL     1      10.122 -22.913 -17.989  1.00  0.00     0.148 A
HETATM    4  N2  UNL     1      10.972 -23.105 -16.950  1.00  0.00    -0.224 N
HETATM    5  O1  UNL     1      10.396 -23.930 -16.106  1.00  0.00    -0.155 OA
ATOM      6  H2  UNL     1      11.895 -22.684 -16.843  1.00  0.00     0.198 HD
HETATM    7  N3  UNL     1       9.220 -24.273 -16.558  1.00  0.00    -0.240 N
ATOM      8  H3  UNL     1       8.572 -24.906 -16.088  1.00  0.00     0.196 HD
BRANCH   3   9
HETATM    9  N1  UNL     1      10.339 -22.176 -18.998  1.00  0.00    -0.382 N
ATOM     10  H12 UNL     1      11.028 -22.332 -19.733  1.00  0.00     0.157 HD
ATOM     11  H11 UNL     1       9.848 -21.310 -19.221  1.00  0.00     0.157 HD
ENDBRANCH   3   9
ENDBRANCH   1   2
BRANCH   1  12
HETATM   12  N4  UNL     1       7.390 -22.571 -19.214  1.00  0.00    -0.065 N
ATOM     13  H43 UNL     1       7.239 -22.711 -20.213  1.00  0.00     0.275 HD
ATOM     14  H42 UNL     1       6.443 -22.318 -18.930  1.00  0.00     0.275 HD
ATOM     15  H41 UNL     1       8.032 -21.794 -19.055  1.00  0.00     0.275 HD
ENDBRANCH   1  12
BRANCH   1  16
HETATM   16  C4  UNL     1       6.640 -24.209 -17.663  1.00  0.00     0.353 C
BRANCH  16  17
HETATM   17  N5  UNL     1       5.702 -23.128 -17.543  1.00  0.00    -0.051 N
ATOM     18  H53 UNL     1       6.166 -22.222 -17.480  1.00  0.00     0.277 HD
ATOM     19  H52 UNL     1       5.186 -22.968 -18.409  1.00  0.00     0.277 HD
ATOM     20  H51 UNL     1       5.082 -23.299 -16.751  1.00  0.00     0.277 HD
ENDBRANCH  16  17
BRANCH  16  21
HETATM   21  O2  UNL     1       6.052 -25.338 -18.181  1.00  0.00    -0.368 OA
ATOM     22  H2  UNL     1       5.707 -25.128 -19.041  1.00  0.00     0.212 HD
ENDBRANCH  16  21
ENDBRANCH   1  16
TORSDOF 6
ENDMDL