MODEL 4
REMARK VINA RESULT: -5.173641733      1.474      4.660
REMARK  4 active torsions:
REMARK  status: ('A' for Active; 'I' for Inactive)
REMARK    1  A    between atoms: C2_3  and  N2_4
REMARK    2  A    between atoms: C2_3  and  C3_8
REMARK    3  A    between atoms: C3_8  and  N3_9
REMARK    4  A    between atoms: C3_8  and  C4_13
ROOT
HETATM    1  N1  UNL     1      11.235 -21.443 -19.575  1.00  0.00    -0.195 NA
HETATM    2  C1  UNL     1      10.142 -21.753 -19.287  1.00  0.00     0.095 C
HETATM    3  C2  UNL     1       8.785 -22.141 -18.902  1.00  0.00     0.327 C
ENDROOT
BRANCH   3   4
HETATM    4  N2  UNL     1       7.983 -22.185 -20.098  1.00  0.00    -0.060 N
ATOM      5  H23 UNL     1       7.206 -21.526 -20.077  1.00  0.00     0.276 HD
ATOM      6  H22 UNL     1       8.464 -21.802 -20.911  1.00  0.00     0.276 HD
ATOM      7  H21 UNL     1       7.681 -23.149 -20.234  1.00  0.00     0.276 HD
ENDBRANCH   3   4
BRANCH   3   8
HETATM    8  C3  UNL     1       8.819 -23.509 -18.282  1.00  0.00     0.303 C
BRANCH   8   9
HETATM    9  N3  UNL     1       9.921 -23.570 -17.371  1.00  0.00    -0.065 N
ATOM     10  H33 UNL     1      10.636 -24.236 -17.666  1.00  0.00     0.275 HD
ATOM     11  H32 UNL     1      10.495 -22.728 -17.394  1.00  0.00     0.275 HD
ATOM     12  H31 UNL     1       9.561 -23.771 -16.438  1.00  0.00     0.275 HD
ENDBRANCH   8   9
BRANCH   8  13
HETATM   13  C4  UNL     1       7.517 -23.846 -17.677  1.00  0.00     0.176 A
HETATM   14  N4  UNL     1       6.934 -25.022 -17.449  1.00  0.00    -0.278 N
HETATM   15  N5  UNL     1       5.748 -24.846 -16.877  1.00  0.00    -0.263 N
ATOM     16  H4  UNL     1       7.340 -25.929 -17.680  1.00  0.00     0.189 HD
HETATM   17  C5  UNL     1       5.595 -23.520 -16.746  1.00  0.00     0.238 A
ATOM     18  H5  UNL     1       5.088 -25.571 -16.595  1.00  0.00     0.190 HD
HETATM   19  N6  UNL     1       4.588 -22.878 -16.240  1.00  0.00    -0.364 N
HETATM   20  O1  UNL     1       6.649 -22.944 -17.224  1.00  0.00    -0.262 OA
ATOM     21  H62 UNL     1       3.756 -23.333 -15.863  1.00  0.00     0.159 HD
ATOM     22  H61 UNL     1       4.471 -21.870 -16.141  1.00  0.00     0.159 HD
ENDBRANCH   8  13
ENDBRANCH   3   8
TORSDOF 4
ENDMDL