MODEL 4
REMARK VINA RESULT: -4.396199029      0.418      1.033
REMARK  5 active torsions:
REMARK  status: ('A' for Active; 'I' for Inactive)
REMARK    1  A    between atoms: C3_9  and  N4_10
REMARK    2  A    between atoms: N4_10  and  O1_12
REMARK    3  A    between atoms: C4_14  and  C5_15
REMARK    4  A    between atoms: C5_15  and  N5_16
REMARK    5  A    between atoms: C5_15  and  N6_20
ROOT
HETATM    1  C1  UNL     1      14.963 -23.705 -19.752  1.00  0.00     0.178 C
HETATM    2  N1  UNL     1      13.664 -23.178 -19.421  1.00  0.00    -0.293 N
HETATM    3  N2  UNL     1      12.867 -23.696 -18.499  1.00  0.00    -0.282 N
ATOM      4  H2  UNL     1      13.088 -24.515 -17.933  1.00  0.00     0.189 HD
HETATM    5  C2  UNL     1      11.733 -22.998 -18.414  1.00  0.00     0.145 A
HETATM    6  N3  UNL     1      10.725 -23.199 -17.634  1.00  0.00    -0.382 N
ATOM      7  H31 UNL     1       9.858 -22.666 -17.569  1.00  0.00     0.157 HD
ATOM      8  H32 UNL     1      10.637 -23.945 -16.944  1.00  0.00     0.157 HD
HETATM    9  C3  UNL     1      11.853 -21.988 -19.349  1.00  0.00     0.127 A
HETATM   10  C4  UNL     1      13.075 -22.113 -19.978  1.00  0.00     0.117 A
ENDROOT
BRANCH  10  11
HETATM   11  C5  UNL     1      13.639 -21.265 -21.041  1.00  0.00     0.431 C
BRANCH  11  12
HETATM   12  N5  UNL     1      13.648 -21.906 -22.335  1.00  0.00    -0.045 N
ATOM     13  H53 UNL     1      13.130 -22.784 -22.308  1.00  0.00     0.277 HD
ATOM     14  H52 UNL     1      13.072 -21.390 -23.000  1.00  0.00     0.277 HD
ATOM     15  H51 UNL     1      14.588 -22.051 -22.704  1.00  0.00     0.277 HD
ENDBRANCH  11  12
BRANCH  11  16
HETATM   16  N6  UNL     1      14.938 -20.729 -20.695  1.00  0.00    -0.045 N
ATOM     17  H63 UNL     1      15.244 -20.038 -21.380  1.00  0.00     0.277 HD
ATOM     18  H62 UNL     1      14.880 -20.129 -19.872  1.00  0.00     0.277 HD
ATOM     19  H61 UNL     1      15.641 -21.456 -20.568  1.00  0.00     0.277 HD
ENDBRANCH  11  16
ENDBRANCH  10  11
BRANCH   9  20
HETATM   20  N4  UNL     1      10.868 -20.980 -19.617  1.00  0.00    -0.263 N
ATOM     21  H4  UNL     1      11.040 -19.991 -19.436  1.00  0.00     0.194 HD
BRANCH  20  22
HETATM   22  O1  UNL     1       9.787 -21.392 -20.087  1.00  0.00    -0.289 OA
ATOM     23  H1  UNL     1       9.194 -20.721 -20.403  1.00  0.00     0.244 HD
ENDBRANCH  20  22
ENDBRANCH   9  20
TORSDOF 5
ENDMDL