MODEL 2
REMARK VINA RESULT: -5.263628606      1.401      6.014
REMARK  6 active torsions:
REMARK  status: ('A' for Active; 'I' for Inactive)
REMARK    1  A    between atoms: N1_1  and  C1_5
REMARK    2  A    between atoms: C1_5  and  N2_6
REMARK    3  A    between atoms: C1_5  and  C2_10
REMARK    4  A    between atoms: C2_10  and  C3_11
REMARK    5  A    between atoms: N3_12  and  N4_14
REMARK    6  A    between atoms: N4_14  and  C4_16
ROOT
HETATM    1  C3  UNL     1       9.618 -22.513 -18.584  1.00  0.00     0.084 C
HETATM    2  N3  UNL     1       8.768 -23.456 -18.380  1.00  0.00    -0.301 N
ATOM      3  H3  UNL     1       9.069 -24.365 -18.026  1.00  0.00     0.186 HD
ENDROOT
BRANCH   2   4
HETATM    4  N4  UNL     1       7.424 -23.205 -18.654  1.00  0.00    -0.130 N
ATOM      5  H4  UNL     1       7.149 -22.676 -19.482  1.00  0.00     0.205 HD
BRANCH   4   6
HETATM    6  C4  UNL     1       6.527 -23.665 -17.826  1.00  0.00     0.728 A
HETATM    7  N5  UNL     1       6.394 -24.943 -17.476  1.00  0.00    -0.114 N
HETATM    8  N6  UNL     1       5.400 -25.039 -16.636  1.00  0.00    -0.213 N
ATOM      9  H5  UNL     1       6.970 -25.715 -17.808  1.00  0.00     0.207 HD
HETATM   10  N7  UNL     1       4.900 -23.839 -16.445  1.00  0.00    -0.213 N
ATOM     11  H6  UNL     1       5.069 -25.899 -16.201  1.00  0.00     0.210 HD
HETATM   12  N8  UNL     1       5.583 -22.972 -17.173  1.00  0.00    -0.114 N
ATOM     13  H7  UNL     1       4.114 -23.613 -15.836  1.00  0.00     0.210 HD
ATOM     14  H8  UNL     1       5.422 -21.966 -17.229  1.00  0.00     0.207 HD
ENDBRANCH   4   6
ENDBRANCH   2   4
BRANCH   1  15
HETATM   15  C2  UNL     1      11.041 -22.827 -18.276  1.00  0.00     0.108 C
BRANCH  15  16
HETATM   16  C1  UNL     1      11.898 -22.047 -19.277  1.00  0.00     0.382 C
BRANCH  16  17
HETATM   17  N1  UNL     1      11.149 -20.956 -19.819  1.00  0.00    -0.050 N
ATOM     18  H13 UNL     1      10.153 -21.161 -19.894  1.00  0.00     0.276 HD
ATOM     19  H12 UNL     1      11.079 -20.168 -19.175  1.00  0.00     0.276 HD
ATOM     20  H11 UNL     1      11.567 -20.698 -20.714  1.00  0.00     0.276 HD
ENDBRANCH  16  17
BRANCH  16  21
HETATM   21  N2  UNL     1      13.077 -21.509 -18.634  1.00  0.00    -0.050 N
ATOM     22  H23 UNL     1      13.941 -21.927 -18.983  1.00  0.00     0.276 HD
ATOM     23  H22 UNL     1      13.271 -20.546 -18.908  1.00  0.00     0.276 HD
ATOM     24  H21 UNL     1      12.968 -21.616 -17.625  1.00  0.00     0.276 HD
ENDBRANCH  16  21
ENDBRANCH  15  16
ENDBRANCH   1  15
TORSDOF 6
ENDMDL