MODEL 2
REMARK VINA RESULT: -8.439030161      2.707      8.881
REMARK  11 active torsions:
REMARK  status: ('A' for Active; 'I' for Inactive)
REMARK    1  A    between atoms: C2_2  and  C3_3
REMARK       I    between atoms: C3_3  and  N1_5
REMARK    2  A    between atoms: N1_5  and  C4_7
REMARK    3  A    between atoms: C4_7  and  C5_8
REMARK    4  A    between atoms: C5_8  and  C6_9
REMARK    5  A    between atoms: C6_9  and  C7_10
REMARK    6  A    between atoms: C7_10  and  N2_11
REMARK    7  A    between atoms: C9_16  and  C10_17
REMARK       I    between atoms: N4_20  and  C13_21
REMARK    8  A    between atoms: C13_21  and  O3_23
REMARK    9  A    between atoms: O3_23  and  C14_24
REMARK   10  A    between atoms: C21_31  and  N5_32
REMARK   11  A    between atoms: N5_32  and  C22_34
ROOT
HETATM    1  N2  UNL     1      18.611  12.465  33.544  1.00  0.00    -0.226 N
ATOM      2  H2  UNL     1      19.183  12.423  32.702  1.00  0.00     0.177 HD
HETATM    3  C8  UNL     1      17.700  13.348  33.615  1.00  0.00     0.679 A
HETATM    4  N3  UNL     1      17.508  14.211  32.571  1.00  0.00    -0.195 N
ATOM      5  H3  UNL     1      18.098  14.140  31.743  1.00  0.00     0.184 HD
HETATM    6  C9  UNL     1      16.553  15.148  32.625  1.00  0.00     0.034 A
HETATM    7  C20 UNL     1      15.742  15.264  33.735  1.00  0.00     0.074 A
HETATM    8  C21 UNL     1      15.922  14.404  34.792  1.00  0.00     0.120 A
HETATM    9  N7  UNL     1      16.912  13.475  34.670  1.00  0.00    -0.177 N
ATOM     10  H7  UNL     1      17.056  12.831  35.448  1.00  0.00     0.185 HD
ENDROOT
BRANCH   6  11
HETATM   11  C10 UNL     1      16.391  16.067  31.453  1.00  0.00     0.039 C
HETATM   12  C11 UNL     1      14.897  16.295  31.301  1.00  0.00     0.030 C
HETATM   13  C12 UNL     1      14.736  17.264  30.138  1.00  0.00     0.129 C
HETATM   14  N4  UNL     1      15.410  18.489  30.538  1.00  0.00    -0.328 N
HETATM   15  C13 UNL     1      15.256  19.642  29.693  1.00  0.00     0.363 C
HETATM   16  C18 UNL     1      16.188  18.504  31.737  1.00  0.00     0.129 C
HETATM   17  O2  UNL     1      14.563  19.593  28.646  1.00  0.00    -0.238 OA
HETATM   18  C19 UNL     1      17.148  17.333  31.692  1.00  0.00     0.030 C
BRANCH  15  19
HETATM   19  O3  UNL     1      15.867  20.823  30.019  1.00  0.00    -0.294 OA
BRANCH  19  20
HETATM   20  C14 UNL     1      15.226  21.978  30.480  1.00  0.00     0.061 C
HETATM   21  C15 UNL     1      16.248  22.750  31.312  1.00  0.00     0.046 C
HETATM   22  C16 UNL     1      14.074  21.582  31.348  1.00  0.00     0.046 C
HETATM   23  C17 UNL     1      14.798  22.894  29.355  1.00  0.00     0.046 C
ENDBRANCH  19  20
ENDBRANCH  15  19
ENDBRANCH   6  11
BRANCH   8  24
HETATM   24  N5  UNL     1      15.201  14.465  35.846  1.00  0.00    -0.348 N
ATOM     25  H5  UNL     1      15.524  15.019  36.639  1.00  0.00     0.163 HD
BRANCH  24  26
HETATM   26  C22 UNL     1      13.957  13.777  35.938  1.00  0.00     0.285 C
HETATM   27  C23 UNL     1      13.351  14.088  37.311  1.00  0.00     0.054 C
HETATM   28  C24 UNL     1      11.900  13.665  37.338  1.00  0.00     0.005 C
HETATM   29  C25 UNL     1      11.789  12.454  36.418  1.00  0.00     0.028 C
HETATM   30  C26 UNL     1      13.061  11.654  36.516  1.00  0.00     0.235 C
HETATM   31  N6  UNL     1      14.124  12.330  35.803  1.00  0.00    -0.054 N
ATOM     32  H62 UNL     1      14.181  12.038  34.827  1.00  0.00     0.279 HD
ATOM     33  H61 UNL     1      15.048  12.018  36.101  1.00  0.00     0.279 HD
ENDBRANCH  24  26
ENDBRANCH   8  24
BRANCH   1  34
HETATM   34  C7  UNL     1      18.868  11.539  34.583  1.00  0.00     0.138 C
BRANCH  34  35
HETATM   35  C6  UNL     1      18.781  10.093  34.131  1.00  0.00     0.022 C
BRANCH  35  36
HETATM   36  C5  UNL     1      18.025   9.281  35.182  1.00  0.00     0.021 C
BRANCH  36  37
HETATM   37  C4  UNL     1      16.668   9.886  35.404  1.00  0.00     0.122 C
BRANCH  37  38
HETATM   38  N1  UNL     1      15.894   9.048  36.279  1.00  0.00    -0.361 N
HETATM   39  C3  UNL     1      14.800   8.241  35.885  1.00  0.00     0.217 C
HETATM   40  O1  UNL     1      14.438   8.216  34.691  1.00  0.00    -0.274 OA
ATOM     41  H1  UNL     1      16.155   9.033  37.265  1.00  0.00     0.162 HD
BRANCH  39  42
HETATM   42  C2  UNL     1      14.074   7.420  36.876  1.00  0.00     0.098 C
HETATM   43  C1  UNL     1      14.313   7.978  38.261  1.00  0.00     0.014 C
ENDBRANCH  39  42
ENDBRANCH  37  38
ENDBRANCH  36  37
ENDBRANCH  35  36
ENDBRANCH  34  35
ENDBRANCH   1  34
TORSDOF 11
ENDMDL