MODEL 1
REMARK VINA RESULT: -9.327508340      0.000      0.000
REMARK  11 active torsions:
REMARK  status: ('A' for Active; 'I' for Inactive)
REMARK    1  A    between atoms: C2_2  and  N1_3
REMARK    2  A    between atoms: C2_2  and  C12_17
REMARK    3  A    between atoms: N1_3  and  C3_5
REMARK    4  A    between atoms: C3_5  and  O1_6
REMARK    5  A    between atoms: C4_8  and  C6_11
REMARK    6  A    between atoms: C12_17  and  N3_18
REMARK    7  A    between atoms: C12_17  and  N4_22
REMARK    8  A    between atoms: C16_26  and  C17_27
REMARK       I    between atoms: C17_27  and  N5_29
REMARK    9  A    between atoms: N5_29  and  C18_31
REMARK   10  A    between atoms: C21_34  and  O3_35
REMARK   11  A    between atoms: O3_35  and  C22_36
ROOT
HETATM    1  C3  UNL     1      16.658  21.087  31.747  1.00  0.00     0.158 C
HETATM    2  C4  UNL     1      15.747  21.214  30.872  1.00  0.00     0.105 C
HETATM    3  C5  UNL     1      15.828  22.336  29.944  1.00  0.00     0.104 C
HETATM    4  N2  UNL     1      15.914  23.232  29.210  1.00  0.00    -0.191 NA
ENDROOT
BRANCH   2   5
HETATM    5  C6  UNL     1      14.647  20.314  30.652  1.00  0.00    -0.011 A
HETATM    6  C7  UNL     1      14.671  19.295  29.730  1.00  0.00     0.013 A
HETATM    7  C8  UNL     1      13.607  18.442  29.633  1.00  0.00     0.001 A
HETATM    8  C9  UNL     1      12.500  18.572  30.438  1.00  0.00     0.000 A
HETATM    9  C10 UNL     1      12.467  19.581  31.355  1.00  0.00     0.001 A
HETATM   10  C11 UNL     1      13.535  20.445  31.458  1.00  0.00     0.013 A
ENDBRANCH   2   5
BRANCH   1  11
HETATM   11  N1  UNL     1      16.829  20.110  32.769  1.00  0.00    -0.362 N
ATOM     12  H1  UNL     1      16.927  20.439  33.730  1.00  0.00     0.162 HD
BRANCH  11  13
HETATM   13  C2  UNL     1      16.874  18.681  32.539  1.00  0.00     0.129 C
HETATM   14  C1  UNL     1      15.678  18.080  33.206  1.00  0.00     0.036 C
BRANCH  13  15
HETATM   15  C12 UNL     1      18.197  18.141  32.940  1.00  0.00     0.306 C
BRANCH  15  16
HETATM   16  N3  UNL     1      19.167  19.218  32.573  1.00  0.00    -0.056 N
ATOM     17  H33 UNL     1      19.563  19.121  31.638  1.00  0.00     0.276 HD
ATOM     18  H32 UNL     1      18.737  20.130  32.420  1.00  0.00     0.276 HD
ATOM     19  H31 UNL     1      19.859  19.204  33.322  1.00  0.00     0.276 HD
ENDBRANCH  15  16
BRANCH  15  20
HETATM   20  N4  UNL     1      18.666  16.998  32.263  1.00  0.00    -0.351 N
HETATM   21  C13 UNL     1      18.667  16.902  30.883  1.00  0.00     0.061 C
HETATM   22  C14 UNL     1      19.062  15.470  30.578  1.00  0.00     0.047 C
HETATM   23  C15 UNL     1      19.371  14.841  31.919  1.00  0.00     0.040 C
HETATM   24  C16 UNL     1      18.651  15.763  32.921  1.00  0.00     0.178 C
BRANCH  24  25
HETATM   25  C17 UNL     1      17.346  15.181  33.253  1.00  0.00     0.240 C
HETATM   26  O2  UNL     1      16.574  14.881  32.288  1.00  0.00    -0.271 OA
HETATM   27  N5  UNL     1      16.852  14.918  34.541  1.00  0.00    -0.355 N
ATOM     28  H5  UNL     1      17.443  15.155  35.338  1.00  0.00     0.162 HD
BRANCH  27  29
HETATM   29  C18 UNL     1      15.549  14.328  34.810  1.00  0.00     0.084 C
HETATM   30  C19 UNL     1      14.733  15.246  35.713  1.00  0.00     0.028 C
HETATM   31  C20 UNL     1      13.348  14.642  35.841  1.00  0.00     0.034 C
HETATM   32  C21 UNL     1      13.404  13.311  36.551  1.00  0.00     0.122 C
HETATM   33  C28 UNL     1      14.328  12.434  35.766  1.00  0.00     0.034 C
HETATM   34  C29 UNL     1      15.693  13.013  35.538  1.00  0.00     0.028 C
BRANCH  32  35
HETATM   35  O3  UNL     1      13.804  13.552  37.855  1.00  0.00    -0.381 OA
BRANCH  35  36
HETATM   36  C22 UNL     1      12.728  13.790  38.705  1.00  0.00     0.122 C
HETATM   37  C23 UNL     1      13.084  13.699  40.156  1.00  0.00     0.032 C
HETATM   38  C24 UNL     1      13.669  12.380  40.568  1.00  0.00     0.002 C
HETATM   39  C25 UNL     1      13.158  11.247  39.735  1.00  0.00     0.000 C
HETATM   40  C26 UNL     1      11.733  11.559  39.322  1.00  0.00     0.002 C
HETATM   41  C27 UNL     1      11.673  12.754  38.398  1.00  0.00     0.032 C
ENDBRANCH  35  36
ENDBRANCH  32  35
ENDBRANCH  27  29
ENDBRANCH  24  25
ENDBRANCH  15  20
ENDBRANCH  13  15
ENDBRANCH  11  13
ENDBRANCH   1  11
BRANCH   1  42
HETATM   42  O1  UNL     1      17.695  22.071  31.728  1.00  0.00    -0.345 OA
ATOM     43  H1  UNL     1      18.505  21.754  31.346  1.00  0.00     0.219 HD
ENDBRANCH   1  42
TORSDOF 11
ENDMDL