MODEL 5
REMARK VINA RESULT: -7.973183473      1.217      1.718
REMARK  12 active torsions:
REMARK  status: ('A' for Active; 'I' for Inactive)
REMARK    1  A    between atoms: C2_2  and  C4_4
REMARK    2  A    between atoms: C5_7  and  N2_8
REMARK    3  A    between atoms: N2_8  and  C6_10
REMARK    4  A    between atoms: C10_15  and  C11_16
REMARK    5  A    between atoms: C11_16  and  O1_17
REMARK    6  A    between atoms: C11_16  and  N3_19
REMARK    7  A    between atoms: N3_19  and  C12_21
REMARK    8  A    between atoms: N4_27  and  C18_28
REMARK    9  A    between atoms: C18_28  and  C19_29
REMARK   10  A    between atoms: C19_29  and  C20_30
REMARK   11  A    between atoms: C19_29  and  N5_33
REMARK   12  A    between atoms: C20_30  and  O2_31
ROOT
HETATM    1  N3  UNL     1      14.982  15.909  33.948  1.00  0.00    -0.380 N
ATOM      2  H3  UNL     1      13.975  16.059  34.018  1.00  0.00     0.157 HD
ENDROOT
BRANCH   1   3
HETATM    3  C11 UNL     1      15.708  15.398  35.049  1.00  0.00     0.257 C
BRANCH   3   4
HETATM    4  C10 UNL     1      15.402  13.986  35.432  1.00  0.00     0.057 A
HETATM    5  C4  UNL     1      14.397  13.397  36.135  1.00  0.00     0.032 A
HETATM    6  N1  UNL     1      14.428  12.091  36.281  1.00  0.00    -0.339 N
HETATM    7  C5  UNL     1      15.430  11.398  35.743  1.00  0.00     0.145 A
ATOM      8  H1  UNL     1      13.692  11.614  36.801  1.00  0.00     0.168 HD
HETATM    9  S1  UNL     1      16.367  12.621  35.003  1.00  0.00    -0.052 SA
BRANCH   5  10
HETATM   10  C2  UNL     1      13.277  14.223  36.756  1.00  0.00     0.029 C
HETATM   11  C1  UNL     1      11.985  14.049  35.946  1.00  0.00     0.016 C
HETATM   12  C3  UNL     1      12.933  13.698  38.137  1.00  0.00     0.016 C
ENDBRANCH   5  10
BRANCH   7  13
HETATM   13  N2  UNL     1      15.651  10.106  35.767  1.00  0.00    -0.362 N
ATOM     14  H2  UNL     1      16.557   9.782  35.429  1.00  0.00     0.162 HD
BRANCH  13  15
HETATM   15  C6  UNL     1      14.734   9.118  36.224  1.00  0.00     0.021 C
HETATM   16  C7  UNL     1      13.389   9.349  35.591  1.00  0.00     0.037 C
HETATM   17  C8  UNL     1      14.620   9.020  37.728  1.00  0.00     0.037 C
HETATM   18  C9  UNL     1      15.166   7.713  35.763  1.00  0.00     0.037 C
ENDBRANCH  13  15
ENDBRANCH   7  13
ENDBRANCH   3   4
BRANCH   3  19
HETATM   19  O1  UNL     1      17.061  15.306  34.575  1.00  0.00    -0.372 OA
ATOM     20  H1  UNL     1      17.553  15.726  35.271  1.00  0.00     0.212 HD
ENDBRANCH   3  19
ENDBRANCH   1   3
BRANCH   1  21
HETATM   21  C12 UNL     1      15.671  16.210  32.750  1.00  0.00     0.171 C
HETATM   22  C13 UNL     1      15.025  15.920  31.448  1.00  0.00     0.034 C
HETATM   23  C14 UNL     1      15.956  15.280  30.426  1.00  0.00     0.002 C
HETATM   24  C15 UNL     1      17.244  15.993  30.235  1.00  0.00     0.002 C
HETATM   25  C16 UNL     1      17.153  17.419  29.807  1.00  0.00     0.020 C
HETATM   26  C17 UNL     1      17.767  18.279  30.892  1.00  0.00     0.126 C
HETATM   27  N4  UNL     1      16.884  18.523  31.976  1.00  0.00    -0.348 N
HETATM   28  C25 UNL     1      16.111  17.650  32.829  1.00  0.00     0.242 C
HETATM   29  O3  UNL     1      15.738  18.245  33.844  1.00  0.00    -0.271 OA
BRANCH  27  30
HETATM   30  C18 UNL     1      16.743  19.908  32.320  1.00  0.00     0.152 C
BRANCH  30  31
HETATM   31  C19 UNL     1      15.583  20.621  31.668  1.00  0.00     0.120 C
BRANCH  31  32
HETATM   32  C20 UNL     1      16.247  21.784  30.901  1.00  0.00     0.190 C
BRANCH  32  33
HETATM   33  O2  UNL     1      17.232  22.386  31.681  1.00  0.00    -0.399 OA
ATOM     34  H2  UNL     1      17.343  23.296  31.435  1.00  0.00     0.209 HD
ENDBRANCH  32  33
ENDBRANCH  31  32
BRANCH  31  35
HETATM   35  N5  UNL     1      14.777  19.854  30.827  1.00  0.00    -0.405 N
HETATM   36  C21 UNL     1      14.736  20.087  29.439  1.00  0.00     0.117 C
HETATM   37  C22 UNL     1      13.976  18.838  28.960  1.00  0.00     0.021 C
HETATM   38  C23 UNL     1      12.983  18.621  30.106  1.00  0.00     0.021 C
HETATM   39  C24 UNL     1      13.436  19.589  31.209  1.00  0.00     0.117 C
ENDBRANCH  31  35
ENDBRANCH  30  31
ENDBRANCH  27  30
ENDBRANCH   1  21
TORSDOF 12
ENDMDL