MODEL 1
REMARK VINA RESULT: -9.187643807      0.000      0.000
REMARK  10 active torsions:
REMARK  status: ('A' for Active; 'I' for Inactive)
REMARK    1  A    between atoms: C2_2  and  N1_5
REMARK       I    between atoms: N1_5  and  C5_7
REMARK       I    between atoms: C5_7  and  N2_9
REMARK    2  A    between atoms: N2_9  and  C6_11
REMARK    3  A    between atoms: C6_11  and  C7_12
REMARK    4  A    between atoms: C6_11  and  C14_19
REMARK    5  A    between atoms: C7_12  and  C8_13
REMARK    6  A    between atoms: C14_19  and  O2_20
REMARK    7  A    between atoms: C14_19  and  C15_22
REMARK    8  A    between atoms: C15_22  and  N3_23
REMARK    9  A    between atoms: C22_30  and  C23_31
REMARK       I    between atoms: C23_31  and  N4_33
REMARK   10  A    between atoms: N4_33  and  C24_35
ROOT
HETATM    1  C14 UNL     1      14.998  16.327  34.423  1.00  0.00     0.169 C
ENDROOT
BRANCH   1   2
HETATM    2  C6  UNL     1      16.085  15.355  34.108  1.00  0.00     0.117 C
BRANCH   2   3
HETATM    3  N2  UNL     1      17.174  16.195  33.549  1.00  0.00    -0.336 N
HETATM    4  C5  UNL     1      17.679  16.026  32.259  1.00  0.00     0.317 C
HETATM    5  N1  UNL     1      18.711  16.845  31.778  1.00  0.00    -0.335 N
HETATM    6  O1  UNL     1      17.158  15.100  31.552  1.00  0.00    -0.247 OA
ATOM      7  H1  UNL     1      19.099  17.580  32.371  1.00  0.00     0.165 HD
ATOM      8  H2  UNL     1      17.571  16.929  34.136  1.00  0.00     0.164 HD
BRANCH   5   9
HETATM    9  C2  UNL     1      19.223  16.645  30.438  1.00  0.00     0.023 C
HETATM   10  C1  UNL     1      19.921  15.299  30.400  1.00  0.00     0.037 C
HETATM   11  C3  UNL     1      20.256  17.700  30.156  1.00  0.00     0.037 C
HETATM   12  C4  UNL     1      18.123  16.731  29.428  1.00  0.00     0.037 C
ENDBRANCH   5   9
ENDBRANCH   2   3
BRANCH   2  13
HETATM   13  C7  UNL     1      16.689  14.609  35.225  1.00  0.00     0.032 C
BRANCH  13  14
HETATM   14  C8  UNL     1      16.876  13.161  35.167  1.00  0.00    -0.013 C
HETATM   15  C9  UNL     1      15.748  12.226  35.227  1.00  0.00     0.005 C
HETATM   16  C10 UNL     1      16.295  10.873  35.702  1.00  0.00     0.000 C
HETATM   17  C11 UNL     1      17.407  10.386  34.821  1.00  0.00     0.000 C
HETATM   18  C12 UNL     1      18.391  11.419  34.403  1.00  0.00     0.000 C
HETATM   19  C13 UNL     1      17.742  12.714  33.972  1.00  0.00     0.005 C
ENDBRANCH  13  14
ENDBRANCH   2  13
ENDBRANCH   1   2
BRANCH   1  20
HETATM   20  O2  UNL     1      14.310  15.853  35.574  1.00  0.00    -0.392 OA
ATOM     21  H2  UNL     1      13.930  15.010  35.358  1.00  0.00     0.210 HD
ENDBRANCH   1  20
BRANCH   1  22
HETATM   22  C15 UNL     1      13.974  16.530  33.355  1.00  0.00     0.306 C
BRANCH  22  23
HETATM   23  N3  UNL     1      14.168  17.834  32.750  1.00  0.00     0.096 N
HETATM   24  C16 UNL     1      13.031  18.690  32.770  1.00  0.00     0.278 C
HETATM   25  C17 UNL     1      13.028  19.557  31.495  1.00  0.00     0.027 C
HETATM   26  C18 UNL     1      12.810  18.592  30.366  1.00  0.00     0.009 C
HETATM   27  C22 UNL     1      14.392  20.195  31.353  1.00  0.00     0.086 C
HETATM   28  C19 UNL     1      13.834  17.479  30.368  1.00  0.00     0.036 C
HETATM   29  C20 UNL     1      14.834  17.787  31.481  1.00  0.00     0.224 C
HETATM   30  C21 UNL     1      15.439  19.143  31.166  1.00  0.00     0.050 C
BRANCH  27  31
HETATM   31  C23 UNL     1      14.426  21.150  30.243  1.00  0.00     0.227 C
HETATM   32  O3  UNL     1      13.630  22.122  30.209  1.00  0.00    -0.273 OA
HETATM   33  N4  UNL     1      15.351  21.024  29.169  1.00  0.00    -0.313 N
ATOM     34  H4  UNL     1      16.005  20.241  29.162  1.00  0.00     0.170 HD
BRANCH  33  35
HETATM   35  C24 UNL     1      15.383  21.966  28.110  1.00  0.00     0.107 A
HETATM   36  C25 UNL     1      15.321  21.556  26.774  1.00  0.00     0.048 A
HETATM   37  C26 UNL     1      15.362  22.447  25.727  1.00  0.00     0.005 A
HETATM   38  C27 UNL     1      15.471  23.801  25.987  1.00  0.00     0.017 A
HETATM   39  C28 UNL     1      15.531  24.171  27.321  1.00  0.00     0.089 A
HETATM   40  N5  UNL     1      15.487  23.284  28.314  1.00  0.00    -0.352 N
ATOM     41  H5  UNL     1      15.536  23.625  29.274  1.00  0.00     0.166 HD
ENDBRANCH  33  35
ENDBRANCH  27  31
ENDBRANCH  22  23
ENDBRANCH   1  22
TORSDOF 10
ENDMDL