MODEL 5
REMARK VINA RESULT: -9.119117380      1.393      1.811
REMARK  11 active torsions:
REMARK  status: ('A' for Active; 'I' for Inactive)
REMARK    1  A    between atoms: C2_2  and  C4_4
REMARK    2  A    between atoms: C6_6  and  O1_7
REMARK    3  A    between atoms: C14_17  and  C15_18
REMARK    4  A    between atoms: C15_18  and  N1_20
REMARK    5  A    between atoms: N1_20  and  C17_22
REMARK    6  A    between atoms: C17_22  and  C18_23
REMARK    7  A    between atoms: C18_23  and  C19_24
REMARK    8  A    between atoms: C19_24  and  C20_25
REMARK    9  A    between atoms: C20_25  and  N2_26
REMARK   10  A    between atoms: C23_29  and  O3_30
REMARK   11  A    between atoms: C27_35  and  O4_36
ROOT
HETATM    1  C4  UNL     1      13.426  17.929  31.941  1.00  0.00     0.025 C
HETATM    2  C5  UNL     1      12.248  18.883  31.937  1.00  0.00     0.041 C
HETATM    3  C6  UNL     1      12.536  20.311  32.080  1.00  0.00     0.119 C
HETATM    4  C7  UNL     1      13.872  20.807  31.669  1.00  0.00     0.044 C
HETATM    5  C8  UNL     1      14.940  19.776  31.626  1.00  0.00     0.067 C
HETATM    6  C9  UNL     1      16.125  20.221  30.831  1.00  0.00     0.132 C
HETATM    7  O2  UNL     1      16.151  21.098  30.026  1.00  0.00    -0.298 OA
HETATM    8  C10 UNL     1      17.367  19.442  31.129  1.00  0.00     0.084 C
HETATM    9  C11 UNL     1      16.958  18.059  31.685  1.00  0.00     0.005 C
HETATM   10  C12 UNL     1      18.144  17.166  31.512  1.00  0.00     0.002 C
HETATM   11  C13 UNL     1      18.435  16.334  32.739  1.00  0.00     0.018 C
HETATM   12  C14 UNL     1      19.349  15.251  32.189  1.00  0.00     0.060 C
HETATM   13  C23 UNL     1      19.131  15.169  30.730  1.00  0.00     0.136 C
HETATM   14  C24 UNL     1      18.117  16.267  30.345  1.00  0.00    -0.011 C
HETATM   15  C25 UNL     1      18.693  16.919  29.077  1.00  0.00     0.018 C
HETATM   16  C26 UNL     1      16.847  15.639  29.983  1.00  0.00     0.044 C
HETATM   17  C27 UNL     1      15.649  16.153  30.812  1.00  0.00     0.124 C
HETATM   18  C28 UNL     1      15.743  17.623  30.879  1.00  0.00     0.029 C
HETATM   19  C29 UNL     1      14.525  18.423  31.124  1.00  0.00    -0.020 C
HETATM   20  C30 UNL     1      13.894  18.662  29.716  1.00  0.00     0.017 C
ENDROOT
BRANCH  12  21
HETATM   21  C15 UNL     1      19.171  14.019  33.003  1.00  0.00    -0.015 C
HETATM   22  C16 UNL     1      19.965  14.025  34.307  1.00  0.00     0.063 C
BRANCH  21  23
HETATM   23  N1  UNL     1      17.870  13.516  33.159  1.00  0.00    -0.396 N
ATOM     24  H1  UNL     1      17.294  13.371  32.330  1.00  0.00     0.159 HD
BRANCH  23  25
HETATM   25  C17 UNL     1      17.337  13.207  34.417  1.00  0.00     0.119 C
BRANCH  25  26
HETATM   26  C18 UNL     1      16.250  14.282  34.691  1.00  0.00     0.021 C
BRANCH  26  27
HETATM   27  C19 UNL     1      15.152  13.669  35.536  1.00  0.00     0.032 C
BRANCH  27  28
HETATM   28  C20 UNL     1      15.371  12.190  35.548  1.00  0.00     0.271 C
BRANCH  28  29
HETATM   29  N2  UNL     1      14.390  11.483  36.348  1.00  0.00     0.080 N
HETATM   30  C21 UNL     1      13.040  11.636  35.901  1.00  0.00     0.309 C
HETATM   31  C22 UNL     1      14.693  10.053  36.372  1.00  0.00     0.309 C
ENDBRANCH  28  29
ENDBRANCH  27  28
ENDBRANCH  26  27
ENDBRANCH  25  26
ENDBRANCH  23  25
ENDBRANCH  21  23
ENDBRANCH  12  21
BRANCH  13  32
HETATM   32  O3  UNL     1      20.357  15.461  30.101  1.00  0.00    -0.394 OA
ATOM     33  H3  UNL     1      20.348  15.039  29.249  1.00  0.00     0.210 HD
ENDBRANCH  13  32
BRANCH  17  34
HETATM   34  O4  UNL     1      14.545  15.649  30.136  1.00  0.00    -0.395 OA
ATOM     35  H4  UNL     1      13.865  16.289  30.311  1.00  0.00     0.210 HD
ENDBRANCH  17  34
BRANCH   1  36
HETATM   36  C2  UNL     1      13.636  17.484  33.324  1.00  0.00    -0.088 C
HETATM   37  C1  UNL     1      12.803  16.582  33.850  1.00  0.00     0.014 C
HETATM   38  C3  UNL     1      14.659  17.918  34.287  1.00  0.00     0.043 C
ENDBRANCH   1  36
BRANCH   3  39
HETATM   39  O1  UNL     1      11.582  21.087  31.365  1.00  0.00    -0.396 OA
ATOM     40  H1  UNL     1      11.142  21.694  31.949  1.00  0.00     0.210 HD
ENDBRANCH   3  39
TORSDOF 11
ENDMDL