MODEL 1
REMARK VINA RESULT: -7.226207486      0.000      0.000
REMARK  10 active torsions:
REMARK  status: ('A' for Active; 'I' for Inactive)
REMARK       I    between atoms: C2_2  and  N1_4
REMARK    1  A    between atoms: N1_4  and  C3_6
REMARK    2  A    between atoms: C3_6  and  C4_7
REMARK    3  A    between atoms: C4_7  and  C5_8
REMARK    4  A    between atoms: C5_8  and  C7_10
REMARK    5  A    between atoms: C5_8  and  C8_13
REMARK    6  A    between atoms: C7_10  and  O2_11
REMARK    7  A    between atoms: C8_13  and  C9_14
REMARK    8  A    between atoms: C17_22  and  O3_23
REMARK    9  A    between atoms: C26_33  and  O4_34
REMARK   10  A    between atoms: C28_38  and  C29_39
ROOT
HETATM    1  C9  UNL     1      12.415   9.542  39.150  1.00  0.00    -0.052 C
HETATM    2  C10 UNL     1      12.729   8.537  40.177  1.00  0.00     0.034 C
HETATM    3  C11 UNL     1      14.063   8.651  40.883  1.00  0.00     0.019 C
HETATM    4  C12 UNL     1      11.711   8.275  41.198  1.00  0.00    -0.017 C
HETATM    5  C13 UNL     1      10.882   9.180  41.501  1.00  0.00     0.005 C
HETATM    6  C14 UNL     1      10.860  10.526  40.889  1.00  0.00    -0.039 C
HETATM    7  C15 UNL     1      11.152  11.555  41.877  1.00  0.00    -0.013 C
HETATM    8  C16 UNL     1      12.323  12.434  41.984  1.00  0.00     0.096 C
HETATM    9  C17 UNL     1      13.206  12.608  40.831  1.00  0.00     0.166 C
HETATM   10  C18 UNL     1      13.458  13.884  40.128  1.00  0.00     0.069 C
HETATM   11  C19 UNL     1      12.989  13.930  38.710  1.00  0.00     0.014 C
HETATM   12  C20 UNL     1      12.377  12.642  38.088  1.00  0.00     0.033 C
HETATM   13  C21 UNL     1      11.770  13.199  36.835  1.00  0.00    -0.041 C
HETATM   14  C22 UNL     1      12.671  14.312  36.249  1.00  0.00     0.015 C
HETATM   15  C23 UNL     1      11.659  12.311  35.654  1.00  0.00     0.015 C
HETATM   16  C24 UNL     1      10.481  13.923  37.134  1.00  0.00     0.012 C
HETATM   17  C25 UNL     1       9.632  13.205  38.108  1.00  0.00     0.035 C
HETATM   18  C26 UNL     1      10.395  12.749  39.369  1.00  0.00     0.155 C
HETATM   19  C27 UNL     1      11.630  12.014  39.127  1.00  0.00     0.117 C
HETATM   20  O5  UNL     1      12.676  11.864  39.947  1.00  0.00    -0.339 OA
HETATM   21  C28 UNL     1      11.306  10.558  39.433  1.00  0.00     0.098 C
ENDROOT
BRANCH   1  22
HETATM   22  C8  UNL     1      12.351   9.062  37.747  1.00  0.00    -0.010 C
BRANCH  22  23
HETATM   23  C5  UNL     1      13.463   8.785  36.861  1.00  0.00    -0.003 C
HETATM   24  C6  UNL     1      14.401   7.677  37.294  1.00  0.00     0.021 C
BRANCH  23  25
HETATM   25  C4  UNL     1      14.363  10.051  37.071  1.00  0.00     0.035 C
BRANCH  25  26
HETATM   26  C3  UNL     1      15.295  10.334  35.994  1.00  0.00     0.123 C
BRANCH  26  27
HETATM   27  N1  UNL     1      15.259  11.782  35.722  1.00  0.00    -0.361 N
HETATM   28  C2  UNL     1      16.337  12.505  35.176  1.00  0.00     0.213 C
HETATM   29  C1  UNL     1      16.186  13.965  34.951  1.00  0.00     0.117 C
HETATM   30  O1  UNL     1      17.438  12.006  34.855  1.00  0.00    -0.274 OA
ATOM     31  H1  UNL     1      14.403  12.291  35.943  1.00  0.00     0.162 HD
ENDBRANCH  26  27
ENDBRANCH  25  26
ENDBRANCH  23  25
BRANCH  23  32
HETATM   32  C7  UNL     1      13.264   8.809  35.372  1.00  0.00     0.177 C
BRANCH  32  33
HETATM   33  O2  UNL     1      12.966   7.566  34.819  1.00  0.00    -0.400 OA
ATOM     34  H2  UNL     1      12.647   7.607  33.925  1.00  0.00     0.209 HD
ENDBRANCH  32  33
ENDBRANCH  23  32
ENDBRANCH  22  23
ENDBRANCH   1  22
BRANCH  21  35
HETATM   35  C29 UNL     1      10.133  10.178  38.595  1.00  0.00     0.253 C
HETATM   36  O6  UNL     1       9.115   9.659  39.097  1.00  0.00    -0.305 OA
ENDBRANCH  21  35
BRANCH  18  37
HETATM   37  O4  UNL     1      10.425  13.972  40.049  1.00  0.00    -0.392 OA
ATOM     38  H4  UNL     1       9.671  13.839  40.611  1.00  0.00     0.210 HD
ENDBRANCH  18  37
BRANCH   9  39
HETATM   39  O3  UNL     1      14.509  12.155  41.190  1.00  0.00    -0.365 OA
ATOM     40  H3  UNL     1      14.592  11.245  40.930  1.00  0.00     0.213 HD
ENDBRANCH   9  39
TORSDOF 10
ENDMDL