MODEL 3
REMARK VINA RESULT: -9.448287411      0.930      1.245
REMARK  11 active torsions:
REMARK  status: ('A' for Active; 'I' for Inactive)
REMARK    1  A    between atoms: C2_2  and  C4_4
REMARK    2  A    between atoms: C4_4  and  C5_5
REMARK    3  A    between atoms: C5_5  and  C6_6
REMARK    4  A    between atoms: C5_5  and  C26_30
REMARK    5  A    between atoms: C6_6  and  C7_7
REMARK    6  A    between atoms: C7_7  and  C8_8
REMARK    7  A    between atoms: C8_8  and  C10_10
REMARK    8  A    between atoms: C15_15  and  O1_16
REMARK    9  A    between atoms: C18_20  and  O2_21
REMARK   10  A    between atoms: C26_30  and  O4_32
REMARK   11  A    between atoms: O4_32  and  S1_33
ROOT
HETATM    1  C10 UNL     1      16.001  17.702  32.756  1.00  0.00    -0.002 C
HETATM    2  C11 UNL     1      14.689  18.121  33.439  1.00  0.00     0.006 C
HETATM    3  C12 UNL     1      14.260  16.880  34.265  1.00  0.00     0.006 C
HETATM    4  C13 UNL     1      15.606  16.443  34.641  1.00  0.00     0.001 C
HETATM    5  C14 UNL     1      15.932  15.241  35.365  1.00  0.00     0.024 C
HETATM    6  C15 UNL     1      14.850  14.259  35.614  1.00  0.00     0.123 C
HETATM    7  C16 UNL     1      15.138  12.826  35.385  1.00  0.00     0.039 C
HETATM    8  C17 UNL     1      16.592  12.515  35.351  1.00  0.00     0.021 C
HETATM    9  C18 UNL     1      16.920  11.136  34.887  1.00  0.00     0.122 C
HETATM   10  C19 UNL     1      18.367  11.282  34.422  1.00  0.00     0.032 C
HETATM   11  C20 UNL     1      18.555  12.761  34.111  1.00  0.00     0.008 C
HETATM   12  C21 UNL     1      17.145  13.358  34.192  1.00  0.00    -0.003 C
HETATM   13  C22 UNL     1      17.175  14.758  34.674  1.00  0.00    -0.002 C
HETATM   14  C23 UNL     1      17.495  15.770  33.556  1.00  0.00     0.015 C
HETATM   15  C24 UNL     1      16.220  16.358  33.228  1.00  0.00    -0.036 C
HETATM   16  C25 UNL     1      15.452  15.388  32.358  1.00  0.00     0.016 C
ENDROOT
BRANCH   1  17
HETATM   17  C8  UNL     1      17.031  18.747  32.759  1.00  0.00    -0.014 C
HETATM   18  C9  UNL     1      16.970  19.876  33.693  1.00  0.00     0.010 C
BRANCH  17  19
HETATM   19  C7  UNL     1      17.028  19.341  31.342  1.00  0.00     0.005 C
BRANCH  19  20
HETATM   20  C6  UNL     1      15.991  20.393  31.140  1.00  0.00     0.015 C
BRANCH  20  21
HETATM   21  C5  UNL     1      14.985  19.782  30.150  1.00  0.00     0.087 C
BRANCH  21  22
HETATM   22  C4  UNL     1      15.603  18.631  29.398  1.00  0.00     0.018 C
BRANCH  22  23
HETATM   23  C2  UNL     1      14.518  17.584  29.241  1.00  0.00    -0.022 C
HETATM   24  C1  UNL     1      15.124  16.197  29.325  1.00  0.00     0.009 C
HETATM   25  C3  UNL     1      13.476  17.739  30.338  1.00  0.00     0.009 C
ENDBRANCH  22  23
ENDBRANCH  21  22
BRANCH  21  26
HETATM   26  C26 UNL     1      14.478  20.823  29.238  1.00  0.00     0.280 C
HETATM   27  O3  UNL     1      13.281  21.184  29.350  1.00  0.00    -0.264 OA
BRANCH  26  28
HETATM   28  O4  UNL     1      15.248  21.429  28.261  1.00  0.00    -0.177 OA
BRANCH  28  29
HETATM   29  S1  UNL     1      15.341  23.114  28.077  1.00  0.00     0.259 S
HETATM   30  O5  UNL     1      16.606  23.543  27.390  1.00  0.00    -0.572 OA
HETATM   31  O6  UNL     1      14.183  23.554  27.228  1.00  0.00    -0.572 OA
HETATM   32  O7  UNL     1      15.253  23.915  29.544  1.00  0.00    -0.572 OA
ENDBRANCH  28  29
ENDBRANCH  26  28
ENDBRANCH  21  26
ENDBRANCH  20  21
ENDBRANCH  19  20
ENDBRANCH  17  19
ENDBRANCH   1  17
BRANCH   6  33
HETATM   33  O1  UNL     1      14.367  14.330  36.955  1.00  0.00    -0.395 OA
ATOM     34  H1  UNL     1      15.060  14.179  37.588  1.00  0.00     0.210 HD
ENDBRANCH   6  33
BRANCH   9  35
HETATM   35  O2  UNL     1      16.771  10.156  35.843  1.00  0.00    -0.395 OA
ATOM     36  H2  UNL     1      15.871   9.946  36.058  1.00  0.00     0.210 HD
ENDBRANCH   9  35
TORSDOF 11
ENDMDL