MODEL 5
REMARK VINA RESULT: -8.658267069      2.549      9.386
REMARK  10 active torsions:
REMARK  status: ('A' for Active; 'I' for Inactive)
REMARK    1  A    between atoms: O1_2  and  C2_3
REMARK    2  A    between atoms: C8_9  and  O2_10
REMARK    3  A    between atoms: C8_9  and  N1_12
REMARK    4  A    between atoms: N1_12  and  C9_14
REMARK    5  A    between atoms: C9_14  and  C10_15
REMARK    6  A    between atoms: C10_15  and  N2_17
REMARK       I    between atoms: N2_17  and  C12_19
REMARK    7  A    between atoms: C12_19  and  C13_21
REMARK    8  A    between atoms: C13_21  and  N3_22
REMARK    9  A    between atoms: C13_21  and  C14_26
REMARK   10  A    between atoms: C14_26  and  C15_27
ROOT
HETATM    1  C13 UNL     1      19.096  14.725  32.736  1.00  0.00     0.297 C
ENDROOT
BRANCH   1   2
HETATM    2  C12 UNL     1      18.677  13.821  33.772  1.00  0.00     0.252 C
HETATM    3  N2  UNL     1      18.901  12.468  33.766  1.00  0.00    -0.350 N
ATOM      4  H2  UNL     1      19.478  12.107  33.007  1.00  0.00     0.163 HD
HETATM    5  O3  UNL     1      18.013  14.303  34.773  1.00  0.00    -0.271 OA
BRANCH   3   6
HETATM    6  C10 UNL     1      18.385  11.448  34.766  1.00  0.00     0.119 C
HETATM    7  C11 UNL     1      18.852  10.112  34.347  1.00  0.00     0.038 C
BRANCH   6   8
HETATM    8  C9  UNL     1      16.945  11.672  34.689  1.00  0.00     0.088 C
BRANCH   8   9
HETATM    9  N1  UNL     1      15.927  12.099  35.503  1.00  0.00    -0.348 N
ATOM     10  H1  UNL     1      15.948  13.094  35.732  1.00  0.00     0.167 HD
BRANCH   9  11
HETATM   11  C8  UNL     1      14.882  11.399  36.062  1.00  0.00     0.152 C
HETATM   12  C7  UNL     1      13.798  11.687  36.844  1.00  0.00     0.048 A
HETATM   13  C2  UNL     1      12.780  11.959  37.579  1.00  0.00     0.082 A
HETATM   14  C6  UNL     1      13.522  13.131  35.941  1.00  0.00     0.018 A
HETATM   15  C3  UNL     1      11.768  12.720  37.919  1.00  0.00     0.038 A
HETATM   16  C4  UNL     1      11.585  13.863  37.176  1.00  0.00     0.003 A
HETATM   17  C5  UNL     1      12.567  13.947  36.185  1.00  0.00     0.001 A
BRANCH  13  18
HETATM   18  O1  UNL     1      12.887  10.725  38.491  1.00  0.00    -0.355 OA
HETATM   19  C1  UNL     1      13.244  10.891  39.777  1.00  0.00     0.210 C
ENDBRANCH  13  18
BRANCH  11  20
HETATM   20  O2  UNL     1      14.929  10.098  35.721  1.00  0.00    -0.345 OA
ATOM     21  H2  UNL     1      15.193   9.974  34.816  1.00  0.00     0.219 HD
ENDBRANCH  11  20
ENDBRANCH   9  11
ENDBRANCH   8   9
ENDBRANCH   6   8
ENDBRANCH   3   6
ENDBRANCH   1   2
BRANCH   1  22
HETATM   22  N3  UNL     1      18.809  14.020  31.434  1.00  0.00    -0.063 N
ATOM     23  H33 UNL     1      19.642  13.849  30.870  1.00  0.00     0.275 HD
ATOM     24  H32 UNL     1      18.538  13.043  31.550  1.00  0.00     0.275 HD
ATOM     25  H31 UNL     1      18.105  14.586  30.961  1.00  0.00     0.275 HD
ENDBRANCH   1  22
BRANCH   1  26
HETATM   26  C14 UNL     1      18.674  16.111  32.574  1.00  0.00     0.019 C
BRANCH  26  27
HETATM   27  C15 UNL     1      17.432  16.490  31.861  1.00  0.00    -0.056 C
HETATM   28  C16 UNL     1      16.273  15.613  31.913  1.00  0.00     0.035 C
HETATM   29  C17 UNL     1      14.920  16.274  32.001  1.00  0.00     0.004 C
HETATM   30  C18 UNL     1      14.476  16.990  30.752  1.00  0.00     0.000 C
HETATM   31  C19 UNL     1      13.765  18.298  31.022  1.00  0.00     0.000 C
HETATM   32  C20 UNL     1      12.849  18.775  29.956  1.00  0.00     0.000 C
HETATM   33  C21 UNL     1      12.691  20.283  30.157  1.00  0.00     0.000 C
HETATM   34  C22 UNL     1      13.965  21.044  29.964  1.00  0.00     0.000 C
HETATM   35  C23 UNL     1      14.311  21.836  31.188  1.00  0.00     0.002 C
HETATM   36  C24 UNL     1      15.236  23.003  30.932  1.00  0.00     0.026 C
HETATM   37  C25 UNL     1      16.685  22.653  30.860  1.00  0.00     0.167 C
HETATM   38  O4  UNL     1      17.181  22.159  32.068  1.00  0.00    -0.389 OA
HETATM   39  C26 UNL     1      17.619  20.857  31.804  1.00  0.00     0.195 C
HETATM   40  C27 UNL     1      17.786  20.011  33.026  1.00  0.00     0.258 C
HETATM   41  N4  UNL     1      18.279  18.701  32.570  1.00  0.00    -0.070 N
HETATM   42  C28 UNL     1      17.136  17.974  32.068  1.00  0.00     0.266 C
ATOM     43  H42 UNL     1      19.039  18.771  31.893  1.00  0.00     0.277 HD
ATOM     44  H41 UNL     1      18.794  18.193  33.289  1.00  0.00     0.277 HD
ENDBRANCH  26  27
ENDBRANCH   1  26
TORSDOF 10
ENDMDL