MODEL 4
REMARK VINA RESULT: -8.813702568      2.739      8.668
REMARK  10 active torsions:
REMARK  status: ('A' for Active; 'I' for Inactive)
REMARK    1  A    between atoms: C2_2  and  C3_3
REMARK    2  A    between atoms: C3_3  and  N1_4
REMARK    3  A    between atoms: N1_4  and  C4_6
REMARK    4  A    between atoms: C7_9  and  O1_10
REMARK    5  A    between atoms: C10_14  and  O2_15
REMARK    6  A    between atoms: C21_27  and  C22_28
REMARK    7  A    between atoms: C22_28  and  O3_29
REMARK    8  A    between atoms: C22_28  and  C23_31
REMARK    9  A    between atoms: C23_31  and  C24_32
REMARK   10  A    between atoms: C24_32  and  C25_33
ROOT
HETATM    1  C4  UNL     1      15.763  14.877  33.855  1.00  0.00     0.095 C
HETATM    2  C5  UNL     1      16.851  13.802  33.711  1.00  0.00     0.043 C
HETATM    3  C6  UNL     1      17.352  13.246  35.018  1.00  0.00     0.015 C
HETATM    4  C7  UNL     1      17.936  13.978  32.698  1.00  0.00     0.086 C
HETATM    5  C8  UNL     1      17.632  13.434  31.329  1.00  0.00     0.045 C
HETATM    6  C9  UNL     1      16.813  14.499  30.646  1.00  0.00     0.036 C
HETATM    7  C10 UNL     1      15.851  15.047  31.605  1.00  0.00     0.129 C
HETATM    8  C11 UNL     1      16.171  15.853  32.780  1.00  0.00     0.010 C
HETATM    9  C12 UNL     1      15.600  17.199  32.623  1.00  0.00     0.015 C
HETATM   10  C13 UNL     1      16.444  18.356  32.314  1.00  0.00     0.011 C
HETATM   11  C14 UNL     1      17.588  18.351  31.379  1.00  0.00    -0.033 A
HETATM   12  C15 UNL     1      17.234  18.261  29.910  1.00  0.00     0.016 C
HETATM   13  C16 UNL     1      18.951  18.316  31.898  1.00  0.00     0.005 A
HETATM   14  C17 UNL     1      19.712  17.211  31.338  1.00  0.00     0.033 C
HETATM   15  C18 UNL     1      19.250  15.832  31.631  1.00  0.00    -0.020 C
HETATM   16  C19 UNL     1      18.357  15.426  32.458  1.00  0.00    -0.048 C
HETATM   17  C20 UNL     1      17.512  16.170  33.346  1.00  0.00     0.051 C
HETATM   18  C21 UNL     1      18.486  19.590  31.412  1.00  0.00     0.028 A
ENDROOT
BRANCH  18  19
HETATM   19  C22 UNL     1      18.098  20.741  32.285  1.00  0.00     0.123 C
BRANCH  19  20
HETATM   20  O3  UNL     1      18.136  20.453  33.641  1.00  0.00    -0.395 OA
ATOM     21  H3  UNL     1      17.879  21.181  34.195  1.00  0.00     0.210 HD
ENDBRANCH  19  20
BRANCH  19  22
HETATM   22  C23 UNL     1      16.661  21.148  32.007  1.00  0.00     0.033 C
BRANCH  22  23
HETATM   23  C24 UNL     1      16.465  21.604  30.599  1.00  0.00     0.014 C
BRANCH  23  24
HETATM   24  C25 UNL     1      15.048  21.989  30.336  1.00  0.00    -0.010 C
HETATM   25  C26 UNL     1      14.085  21.410  31.346  1.00  0.00     0.018 C
HETATM   26  C27 UNL     1      14.805  23.479  30.272  1.00  0.00     0.188 C
HETATM   27  O4  UNL     1      15.313  23.782  28.972  1.00  0.00    -0.320 OA
HETATM   28  C28 UNL     1      14.926  22.736  28.124  1.00  0.00     0.263 C
HETATM   29  O5  UNL     1      14.864  22.715  26.866  1.00  0.00    -0.265 OA
HETATM   30  C29 UNL     1      14.573  21.565  28.959  1.00  0.00     0.091 C
HETATM   31  C30 UNL     1      15.152  20.275  28.495  1.00  0.00     0.021 C
ENDBRANCH  23  24
ENDBRANCH  22  23
ENDBRANCH  19  22
ENDBRANCH  18  19
BRANCH   1  32
HETATM   32  N1  UNL     1      15.428  15.338  35.115  1.00  0.00    -0.413 N
ATOM     33  H1  UNL     1      16.145  15.722  35.730  1.00  0.00     0.153 HD
BRANCH  32  34
HETATM   34  C3  UNL     1      14.063  15.268  35.546  1.00  0.00     0.141 C
BRANCH  34  35
HETATM   35  C2  UNL     1      13.834  14.151  36.511  1.00  0.00    -0.018 C
HETATM   36  C1  UNL     1      13.737  12.883  36.161  1.00  0.00     0.008 C
ENDBRANCH  34  35
ENDBRANCH  32  34
ENDBRANCH   1  32
BRANCH   7  37
HETATM   37  O2  UNL     1      14.822  15.655  30.826  1.00  0.00    -0.395 OA
ATOM     38  H2  UNL     1      14.033  15.609  31.353  1.00  0.00     0.210 HD
ENDBRANCH   7  37
BRANCH   4  39
HETATM   39  O1  UNL     1      19.074  13.331  33.136  1.00  0.00    -0.385 OA
ATOM     40  H1  UNL     1      19.453  13.820  33.858  1.00  0.00     0.211 HD
ENDBRANCH   4  39
TORSDOF 10
ENDMDL