MODEL 5
REMARK VINA RESULT: -8.448118129      2.491      7.683
REMARK  12 active torsions:
REMARK  status: ('A' for Active; 'I' for Inactive)
REMARK    1  A    between atoms: C2_2  and  O1_5
REMARK    2  A    between atoms: O1_5  and  C5_6
REMARK       I    between atoms: C5_6  and  N1_8
REMARK    3  A    between atoms: N1_8  and  C6_10
REMARK    4  A    between atoms: C6_10  and  C7_11
REMARK    5  A    between atoms: C6_10  and  C23_36
REMARK       I    between atoms: C7_11  and  N2_13
REMARK    6  A    between atoms: N2_13  and  C8_15
REMARK    7  A    between atoms: C8_15  and  C9_16
REMARK    8  A    between atoms: C8_15  and  C16_23
REMARK    9  A    between atoms: C9_16  and  C10_17
REMARK   10  A    between atoms: C16_23  and  C17_25
REMARK       I    between atoms: C17_25  and  N3_27
REMARK   11  A    between atoms: N3_27  and  C18_29
REMARK   12  A    between atoms: C21_32  and  O6_33
ROOT
HETATM    1  C8  UNL     1      15.875  14.682  34.799  1.00  0.00     0.165 C
ENDROOT
BRANCH   1   2
HETATM    2  N2  UNL     1      15.925  15.172  33.432  1.00  0.00    -0.347 N
HETATM    3  C7  UNL     1      16.958  16.004  32.995  1.00  0.00     0.241 C
HETATM    4  O3  UNL     1      17.855  16.264  33.895  1.00  0.00    -0.271 OA
ATOM      5  H2  UNL     1      15.190  14.903  32.778  1.00  0.00     0.163 HD
BRANCH   3   6
HETATM    6  C6  UNL     1      17.137  16.603  31.684  1.00  0.00     0.186 C
BRANCH   6   7
HETATM    7  N1  UNL     1      16.846  18.046  31.773  1.00  0.00    -0.323 N
HETATM    8  C5  UNL     1      15.552  18.560  31.942  1.00  0.00     0.362 C
HETATM    9  O2  UNL     1      14.586  17.727  32.021  1.00  0.00    -0.238 OA
ATOM     10  H1  UNL     1      17.623  18.703  31.709  1.00  0.00     0.165 HD
BRANCH   8  11
HETATM   11  O1  UNL     1      15.229  19.883  32.030  1.00  0.00    -0.294 OA
BRANCH  11  12
HETATM   12  C2  UNL     1      14.573  20.647  31.063  1.00  0.00     0.061 C
HETATM   13  C1  UNL     1      15.187  22.051  31.124  1.00  0.00     0.046 C
HETATM   14  C3  UNL     1      13.095  20.809  31.335  1.00  0.00     0.046 C
HETATM   15  C4  UNL     1      14.787  20.135  29.661  1.00  0.00     0.046 C
ENDBRANCH  11  12
ENDBRANCH   8  11
ENDBRANCH   6   7
BRANCH   6  16
HETATM   16  C23 UNL     1      18.453  16.399  30.985  1.00  0.00    -0.022 C
HETATM   17  C24 UNL     1      19.485  17.444  31.304  1.00  0.00     0.017 C
HETATM   18  C25 UNL     1      19.040  15.037  31.100  1.00  0.00     0.017 C
HETATM   19  C26 UNL     1      18.133  16.540  29.446  1.00  0.00     0.017 C
ENDBRANCH   6  16
ENDBRANCH   3   6
ENDBRANCH   1   2
BRANCH   1  20
HETATM   20  C9  UNL     1      15.707  13.249  35.011  1.00  0.00     0.038 C
BRANCH  20  21
HETATM   21  C10 UNL     1      16.847  12.329  35.103  1.00  0.00    -0.012 C
HETATM   22  C11 UNL     1      16.630  10.897  35.367  1.00  0.00     0.005 C
HETATM   23  C12 UNL     1      17.764  10.015  34.875  1.00  0.00     0.000 C
HETATM   24  C13 UNL     1      19.107  10.676  35.024  1.00  0.00     0.000 C
HETATM   25  C14 UNL     1      19.162  12.046  34.438  1.00  0.00     0.000 C
HETATM   26  C15 UNL     1      17.799  12.432  33.909  1.00  0.00     0.005 C
ENDBRANCH  20  21
ENDBRANCH   1  20
BRANCH   1  27
HETATM   27  C16 UNL     1      14.706  15.417  35.406  1.00  0.00     0.238 C
HETATM   28  O4  UNL     1      14.737  16.696  35.500  1.00  0.00    -0.285 OA
BRANCH  27  29
HETATM   29  C17 UNL     1      13.516  14.777  35.910  1.00  0.00     0.289 C
HETATM   30  O5  UNL     1      12.444  14.872  35.237  1.00  0.00    -0.264 OA
HETATM   31  N3  UNL     1      13.521  14.044  37.143  1.00  0.00    -0.350 N
ATOM     32  H3  UNL     1      14.382  13.966  37.686  1.00  0.00     0.163 HD
BRANCH  31  33
HETATM   33  C18 UNL     1      12.326  13.423  37.611  1.00  0.00     0.087 C
HETATM   34  C19 UNL     1      12.163  13.594  39.126  1.00  0.00     0.028 C
HETATM   35  C20 UNL     1      13.265  12.662  39.624  1.00  0.00     0.034 C
HETATM   36  C21 UNL     1      13.245  11.482  38.663  1.00  0.00     0.120 C
HETATM   37  C22 UNL     1      12.376  11.910  37.507  1.00  0.00     0.057 C
BRANCH  36  38
HETATM   38  O6  UNL     1      12.724  10.365  39.314  1.00  0.00    -0.396 OA
ATOM     39  H6  UNL     1      13.189   9.587  39.027  1.00  0.00     0.210 HD
ENDBRANCH  36  38
ENDBRANCH  31  33
ENDBRANCH  27  29
ENDBRANCH   1  27
TORSDOF 12
ENDMDL