MODEL 3
REMARK VINA RESULT: -7.524465000      2.285      4.112
REMARK  7 active torsions:
REMARK  status: ('A' for Active; 'I' for Inactive)
REMARK    1  A    between atoms: O1_2  and  C2_3
REMARK    2  A    between atoms: C2_3  and  C3_5
REMARK    3  A    between atoms: C3_5  and  N1_6
REMARK       I    between atoms: N1_6  and  C4_8
REMARK    4  A    between atoms: C4_8  and  C5_10
REMARK    5  A    between atoms: C5_10  and  O5_12
REMARK    6  A    between atoms: O5_12  and  C6_13
REMARK    7  A    between atoms: C11_23  and  N6_24
ROOT
HETATM    1  C6  UNL     1      15.529  48.143 -54.341  1.00  0.00     0.148 A
HETATM    2  C7  UNL     1      14.459  48.252 -55.203  1.00  0.00     0.154 A
HETATM    3  N2  UNL     1      14.689  48.123 -56.586  1.00  0.00    -0.080 NA
HETATM    4  N3  UNL     1      13.210  48.483 -54.708  1.00  0.00    -0.330 N
ATOM      5  H3  UNL     1      12.422  48.564 -55.350  1.00  0.00     0.168 HD
HETATM    6  C8  UNL     1      13.000  48.606 -53.386  1.00  0.00     0.141 A
HETATM    7  N4  UNL     1      11.696  48.847 -52.871  1.00  0.00    -0.081 NA
HETATM    8  C9  UNL     1      14.042  48.503 -52.490  1.00  0.00     0.114 A
HETATM    9  C10 UNL     1      13.814  48.634 -51.083  1.00  0.00     0.105 C
HETATM   10  N5  UNL     1      13.630  48.730 -49.941  1.00  0.00    -0.191 NA
HETATM   11  C11 UNL     1      15.329  48.267 -52.984  1.00  0.00     0.088 A
ENDROOT
BRANCH  11  12
HETATM   12  N6  UNL     1      16.304  48.169 -52.161  1.00  0.00    -0.395 N
ATOM     13  H62 UNL     1      17.256  48.314 -52.498  1.00  0.00     0.156 HD
ATOM     14  H61 UNL     1      16.143  47.949 -51.177  1.00  0.00     0.156 HD
ENDBRANCH  11  12
BRANCH   1  15
HETATM   15  O5  UNL     1      16.824  47.905 -54.842  1.00  0.00    -0.265 OA
BRANCH  15  16
HETATM   16  C5  UNL     1      17.754  48.931 -54.927  1.00  0.00     0.356 C
HETATM   17  O4  UNL     1      18.550  49.057 -53.940  1.00  0.00    -0.253 OA
BRANCH  16  18
HETATM   18  C4  UNL     1      17.820  49.816 -56.077  1.00  0.00     0.317 C
HETATM   19  N1  UNL     1      16.701  50.613 -56.423  1.00  0.00    -0.343 N
ATOM     20  H1  UNL     1      15.847  50.569 -55.868  1.00  0.00     0.163 HD
HETATM   21  O3  UNL     1      18.883  49.846 -56.740  1.00  0.00    -0.262 OA
BRANCH  19  22
HETATM   22  C3  UNL     1      16.784  51.502 -57.587  1.00  0.00     0.234 C
BRANCH  22  23
HETATM   23  C2  UNL     1      15.934  50.944 -58.672  1.00  0.00     0.276 C
HETATM   24  O2  UNL     1      15.896  49.691 -58.900  1.00  0.00    -0.263 OA
BRANCH  23  25
HETATM   25  O1  UNL     1      15.172  51.814 -59.441  1.00  0.00    -0.325 OA
HETATM   26  C1  UNL     1      15.794  52.448 -60.545  1.00  0.00     0.213 C
ENDBRANCH  23  25
ENDBRANCH  22  23
ENDBRANCH  19  22
ENDBRANCH  16  18
ENDBRANCH  15  16
ENDBRANCH   1  15
TORSDOF 7
ENDMDL