MODEL 1
REMARK VINA RESULT: -7.578632399      0.000      0.000
REMARK  6 active torsions:
REMARK  status: ('A' for Active; 'I' for Inactive)
REMARK    1  A    between atoms: N1_1  and  C1_4
REMARK    2  A    between atoms: C2_10  and  C3_11
REMARK    3  A    between atoms: C4_14  and  C5_15
REMARK    4  A    between atoms: C5_15  and  N5_16
REMARK    5  A    between atoms: N6_20  and  C6_21
REMARK    6  A    between atoms: C6_21  and  C7_22
REMARK       I    between atoms: C7_22  and  N7_24
ROOT
HETATM    1  C3  UNL     1      12.541  52.011 -48.470  1.00  0.00     0.154 A
HETATM    2  N4  UNL     1      13.598  52.681 -47.948  1.00  0.00    -0.326 N
ATOM      3  H4  UNL     1      13.855  52.685 -46.961  1.00  0.00     0.169 HD
HETATM    4  C4  UNL     1      14.257  53.337 -48.914  1.00  0.00     0.126 A
HETATM    5  N6  UNL     1      13.620  53.088 -50.072  1.00  0.00    -0.268 N
HETATM    6  N9  UNL     1      12.598  52.296 -49.794  1.00  0.00    -0.279 N
ATOM      7  H9  UNL     1      11.937  51.945 -50.487  1.00  0.00     0.189 HD
ENDROOT
BRANCH   5   8
HETATM    8  C6  UNL     1      13.946  53.569 -51.401  1.00  0.00     0.253 C
BRANCH   8   9
HETATM    9  C7  UNL     1      12.767  54.177 -52.064  1.00  0.00     0.239 C
HETATM   10  O2  UNL     1      11.710  53.498 -52.106  1.00  0.00    -0.271 OA
HETATM   11  N7  UNL     1      12.845  55.481 -52.627  1.00  0.00    -0.347 N
HETATM   12  C8  UNL     1      11.649  56.026 -53.266  1.00  0.00     0.153 C
HETATM   13  C11 UNL     1      14.014  56.293 -52.607  1.00  0.00     0.153 C
HETATM   14  C9  UNL     1      11.427  57.383 -52.593  1.00  0.00     0.252 C
HETATM   15  N8  UNL     1      12.543  58.219 -53.039  1.00  0.00    -0.072 N
HETATM   16  C10 UNL     1      13.775  57.756 -52.489  1.00  0.00     0.252 C
ATOM     17  H82 UNL     1      12.585  58.282 -54.057  1.00  0.00     0.277 HD
ATOM     18  H81 UNL     1      12.384  59.205 -52.831  1.00  0.00     0.277 HD
ENDBRANCH   8   9
ENDBRANCH   5   8
BRANCH   4  19
HETATM   19  C5  UNL     1      15.485  54.196 -48.747  1.00  0.00     0.307 C
BRANCH  19  20
HETATM   20  N5  UNL     1      16.677  53.389 -48.659  1.00  0.00    -0.073 N
ATOM     21  H53 UNL     1      16.458  52.393 -48.676  1.00  0.00     0.274 HD
ATOM     22  H52 UNL     1      17.231  53.442 -49.514  1.00  0.00     0.274 HD
ATOM     23  H51 UNL     1      17.230  53.637 -47.838  1.00  0.00     0.274 HD
ENDBRANCH  19  20
ENDBRANCH   4  19
BRANCH   1  24
HETATM   24  C2  UNL     1      11.576  51.183 -47.770  1.00  0.00     0.147 A
HETATM   25  C1  UNL     1      11.820  50.055 -47.030  1.00  0.00     0.154 A
HETATM   26  N2  UNL     1      10.626  49.596 -46.552  1.00  0.00    -0.224 N
HETATM   27  O1  UNL     1       9.707  50.413 -46.986  1.00  0.00    -0.155 OA
ATOM     28  H2  UNL     1      10.481  48.773 -45.967  1.00  0.00     0.198 HD
HETATM   29  N3  UNL     1      10.255  51.370 -47.717  1.00  0.00    -0.234 N
ATOM     30  H3  UNL     1       9.749  52.131 -48.168  1.00  0.00     0.197 HD
BRANCH  25  31
HETATM   31  N1  UNL     1      12.928  49.463 -46.777  1.00  0.00    -0.382 N
ATOM     32  H12 UNL     1      13.379  49.276 -45.881  1.00  0.00     0.157 HD
ATOM     33  H11 UNL     1      13.522  49.087 -47.516  1.00  0.00     0.157 HD
ENDBRANCH  25  31
ENDBRANCH   1  24
TORSDOF 6
ENDMDL