MODEL 1
REMARK VINA RESULT: -6.286035706      0.000      0.000
REMARK  9 active torsions:
REMARK  status: ('A' for Active; 'I' for Inactive)
REMARK    1  A    between atoms: N1_2  and  C2_4
REMARK    2  A    between atoms: C4_14  and  C5_15
REMARK    3  A    between atoms: C5_15  and  O1_16
REMARK    4  A    between atoms: C5_15  and  O2_18
REMARK    5  A    between atoms: O2_18  and  N6_19
REMARK    6  A    between atoms: C6_22  and  N7_23
REMARK    7  A    between atoms: N7_23  and  C7_25
REMARK    8  A    between atoms: C7_25  and  C8_26
REMARK    9  A    between atoms: C8_26  and  C9_27
ROOT
HETATM    1  C2  UNL     1      10.602  50.113 -46.942  1.00  0.00     0.147 A
HETATM    2  N2  UNL     1      10.693  49.658 -45.681  1.00  0.00    -0.269 N
ATOM      3  H2  UNL     1       9.849  49.285 -45.246  1.00  0.00     0.190 HD
HETATM    4  N3  UNL     1      11.806  49.664 -44.970  1.00  0.00    -0.239 N
ATOM      5  H3  UNL     1      11.793  49.300 -44.017  1.00  0.00     0.208 HD
HETATM    6  N4  UNL     1      12.936  50.132 -45.469  1.00  0.00    -0.269 N
ATOM      7  H4  UNL     1      13.796  50.137 -44.921  1.00  0.00     0.190 HD
HETATM    8  C3  UNL     1      12.905  50.599 -46.727  1.00  0.00     0.152 A
HETATM    9  N5  UNL     1      14.051  51.080 -47.251  1.00  0.00    -0.336 N
ATOM     10  H5  UNL     1      14.908  51.082 -46.698  1.00  0.00     0.167 HD
HETATM   11  C4  UNL     1      14.055  51.556 -48.507  1.00  0.00     0.112 A
HETATM   12  C6  UNL     1      12.907  51.556 -49.256  1.00  0.00     0.130 A
HETATM   13  N8  UNL     1      11.734  51.082 -48.766  1.00  0.00    -0.335 N
ATOM     14  H8  UNL     1      10.879  51.081 -49.321  1.00  0.00     0.168 HD
HETATM   15  C10 UNL     1      11.763  50.610 -47.500  1.00  0.00     0.125 A
ENDROOT
BRANCH  11  16
HETATM   16  C5  UNL     1      15.349  52.085 -49.064  1.00  0.00     0.340 C
BRANCH  16  17
HETATM   17  O1  UNL     1      15.638  51.327 -50.219  1.00  0.00    -0.364 OA
ATOM     18  H1  UNL     1      15.183  50.498 -50.126  1.00  0.00     0.213 HD
ENDBRANCH  16  17
BRANCH  16  19
HETATM   19  O2  UNL     1      15.223  53.425 -49.387  1.00  0.00    -0.248 OA
BRANCH  19  20
HETATM   20  N6  UNL     1      15.751  54.166 -48.408  1.00  0.00    -0.308 N
ATOM     21  H62 UNL     1      15.811  55.184 -48.420  1.00  0.00     0.184 HD
ATOM     22  H61 UNL     1      16.080  53.552 -47.662  1.00  0.00     0.184 HD
ENDBRANCH  19  20
ENDBRANCH  16  19
ENDBRANCH  11  16
BRANCH  12  23
HETATM   23  N7  UNL     1      12.940  52.019 -50.459  1.00  0.00    -0.374 N
ATOM     24  H7  UNL     1      13.658  51.675 -51.096  1.00  0.00     0.161 HD
BRANCH  23  25
HETATM   25  C7  UNL     1      11.999  53.008 -50.941  1.00  0.00     0.122 C
BRANCH  25  26
HETATM   26  C8  UNL     1      12.734  54.135 -51.620  1.00  0.00     0.030 C
BRANCH  26  27
HETATM   27  C9  UNL     1      12.377  54.124 -53.105  1.00  0.00     0.088 C
HETATM   28  S1  UNL     1      12.009  55.834 -53.637  1.00  0.00    -0.098 SA
ENDBRANCH  26  27
ENDBRANCH  25  26
ENDBRANCH  23  25
ENDBRANCH  12  23
BRANCH   1  29
HETATM   29  N1  UNL     1       9.485  50.092 -47.617  1.00  0.00    -0.378 N
HETATM   30  C1  UNL     1       8.531  51.160 -47.390  1.00  0.00     0.148 C
ATOM     31  H1  UNL     1       9.288  49.347 -48.285  1.00  0.00     0.160 HD
ENDBRANCH   1  29
TORSDOF 9
ENDMDL