MODEL 4
REMARK VINA RESULT: -8.034749805      3.129      4.644
REMARK  6 active torsions:
REMARK  status: ('A' for Active; 'I' for Inactive)
REMARK       I    between atoms: C1_4  and  N2_5
REMARK       I    between atoms: C1_4  and  N10_30
REMARK    1  A    between atoms: C4_9  and  O1_10
REMARK    2  A    between atoms: O1_10  and  C5_11
REMARK    3  A    between atoms: C5_11  and  C6_12
REMARK    4  A    between atoms: C6_12  and  N3_13
REMARK       I    between atoms: N3_13  and  C7_15
REMARK    5  A    between atoms: C7_15  and  C8_17
REMARK    6  A    between atoms: N10_30  and  N11_32
ROOT
HETATM    1  N1  UNL     1      17.178  48.921 -48.727  1.00  0.00    -0.233 N
ATOM      2  H11 UNL     1      17.166  48.917 -47.707  1.00  0.00     0.174 HD
ATOM      3  H12 UNL     1      17.939  49.422 -49.185  1.00  0.00     0.174 HD
HETATM    4  C1  UNL     1      16.277  48.325 -49.427  1.00  0.00     0.696 C
HETATM    5  N2  UNL     1      16.294  48.331 -50.849  1.00  0.00    -0.178 N
ATOM      6  H2  UNL     1      16.811  47.608 -51.349  1.00  0.00     0.185 HD
HETATM    7  C2  UNL     1      15.660  49.241 -51.518  1.00  0.00     0.119 A
HETATM    8  C3  UNL     1      14.857  50.372 -51.005  1.00  0.00     0.164 A
HETATM    9  C4  UNL     1      14.402  51.041 -52.241  1.00  0.00     0.139 A
HETATM   10  N8  UNL     1      14.853  50.421 -53.244  1.00  0.00    -0.282 N
ATOM     11  H8  UNL     1      14.662  50.709 -54.203  1.00  0.00     0.189 HD
HETATM   12  N9  UNL     1      15.623  49.322 -52.935  1.00  0.00    -0.286 N
ATOM     13  H9  UNL     1      16.078  48.691 -53.594  1.00  0.00     0.188 HD
HETATM   14  N10 UNL     1      15.217  47.628 -48.791  1.00  0.00    -0.072 N
ATOM     15  H10 UNL     1      15.099  46.629 -48.961  1.00  0.00     0.212 HD
ENDROOT
BRANCH   9  16
HETATM   16  O1  UNL     1      13.606  52.173 -52.332  1.00  0.00    -0.336 OA
BRANCH  16  17
HETATM   17  C5  UNL     1      12.275  52.218 -51.856  1.00  0.00     0.197 C
BRANCH  17  18
HETATM   18  C6  UNL     1      12.129  52.925 -50.563  1.00  0.00     0.149 C
BRANCH  18  19
HETATM   19  N3  UNL     1      12.212  51.994 -49.463  1.00  0.00    -0.352 N
HETATM   20  C7  UNL     1      11.257  51.909 -48.430  1.00  0.00     0.288 C
HETATM   21  O2  UNL     1      10.263  52.661 -48.436  1.00  0.00    -0.264 OA
ATOM     22  H3  UNL     1      13.010  51.359 -49.432  1.00  0.00     0.162 HD
BRANCH  20  23
HETATM   23  C8  UNL     1      11.402  50.946 -47.332  1.00  0.00     0.206 A
HETATM   24  N4  UNL     1      10.500  50.027 -46.949  1.00  0.00    -0.264 N
HETATM   25  N5  UNL     1      10.995  49.362 -45.938  1.00  0.00    -0.226 N
ATOM     26  H4  UNL     1       9.586  49.874 -47.374  1.00  0.00     0.190 HD
HETATM   27  N6  UNL     1      12.183  49.826 -45.664  1.00  0.00    -0.226 N
ATOM     28  H5  UNL     1      10.527  48.602 -45.443  1.00  0.00     0.210 HD
HETATM   29  N7  UNL     1      12.458  50.803 -46.508  1.00  0.00    -0.264 N
ATOM     30  H6  UNL     1      12.797  49.490 -44.922  1.00  0.00     0.210 HD
ATOM     31  H7  UNL     1      13.317  51.351 -46.533  1.00  0.00     0.190 HD
ENDBRANCH  20  23
ENDBRANCH  18  19
ENDBRANCH  17  18
ENDBRANCH  16  17
ENDBRANCH   9  16
BRANCH  14  32
HETATM   32  N11 UNL     1      14.333  48.290 -47.934  1.00  0.00    -0.024 N
HETATM   33  O3  UNL     1      13.124  48.383 -48.251  1.00  0.00    -0.516 OA
HETATM   34  O4  UNL     1      14.826  48.813 -46.775  1.00  0.00    -0.516 OA
ENDBRANCH  14  32
TORSDOF 6
ENDMDL