MODEL 4
REMARK VINA RESULT: -7.074211733      1.445      2.715
REMARK  7 active torsions:
REMARK  status: ('A' for Active; 'I' for Inactive)
REMARK    1  A    between atoms: O1_2  and  C2_3
REMARK    2  A    between atoms: C2_3  and  C3_5
REMARK    3  A    between atoms: C5_7  and  N1_8
REMARK    4  A    between atoms: C8_12  and  C9_13
REMARK    5  A    between atoms: C9_13  and  N2_14
REMARK    6  A    between atoms: C9_13  and  N3_18
REMARK    7  A    between atoms: C10_24  and  N7_25
ROOT
HETATM    1  N1  UNL     1      12.417  53.281 -50.572  1.00  0.00    -0.352 N
ATOM      2  H1  UNL     1      12.547  53.820 -49.716  1.00  0.00     0.166 HD
HETATM    3  C6  UNL     1      12.639  52.011 -50.603  1.00  0.00     0.107 A
HETATM    4  C7  UNL     1      13.063  51.332 -49.468  1.00  0.00     0.077 A
HETATM    5  C8  UNL     1      13.305  49.976 -49.479  1.00  0.00     0.066 A
HETATM    6  N8  UNL     1      13.117  49.314 -50.635  1.00  0.00    -0.352 N
ATOM      7  H8  UNL     1      13.289  48.309 -50.667  1.00  0.00     0.166 HD
HETATM    8  C11 UNL     1      12.704  49.953 -51.760  1.00  0.00     0.182 A
HETATM    9  N9  UNL     1      12.474  51.280 -51.720  1.00  0.00    -0.339 N
ATOM     10  H9  UNL     1      12.164  51.748 -52.571  1.00  0.00     0.168 HD
ENDROOT
BRANCH   5  11
HETATM   11  C9  UNL     1      13.757  49.224 -48.290  1.00  0.00     0.370 C
BRANCH  11  12
HETATM   12  N2  UNL     1      13.921  47.824 -48.678  1.00  0.00    -0.051 N
ATOM     13  H23 UNL     1      14.259  47.239 -47.913  1.00  0.00     0.277 HD
ATOM     14  H22 UNL     1      13.032  47.349 -48.830  1.00  0.00     0.277 HD
ATOM     15  H21 UNL     1      14.529  47.794 -49.496  1.00  0.00     0.277 HD
ENDBRANCH  11  12
BRANCH  11  16
HETATM   16  N3  UNL     1      12.883  49.389 -47.168  1.00  0.00    -0.068 N
HETATM   17  N4  UNL     1      11.569  49.227 -47.157  1.00  0.00     0.013 NA
HETATM   18  N5  UNL     1      11.106  49.470 -45.922  1.00  0.00    -0.211 N
HETATM   19  N6  UNL     1      12.117  49.786 -45.145  1.00  0.00    -0.118 N
ATOM     20  H5  UNL     1      10.129  49.418 -45.634  1.00  0.00     0.206 HD
HETATM   21  C10 UNL     1      13.216  49.736 -45.913  1.00  0.00     0.709 A
ATOM     22  H6  UNL     1      12.075  50.023 -44.154  1.00  0.00     0.207 HD
BRANCH  21  23
HETATM   23  N7  UNL     1      14.420  49.981 -45.530  1.00  0.00    -0.232 N
ATOM     24  H72 UNL     1      14.729  50.799 -45.003  1.00  0.00     0.174 HD
ATOM     25  H71 UNL     1      15.214  49.368 -45.719  1.00  0.00     0.174 HD
ENDBRANCH  21  23
ENDBRANCH  11  16
ENDBRANCH   5  11
BRANCH   1  26
HETATM   26  C5  UNL     1      11.984  53.907 -51.779  1.00  0.00     0.102 C
HETATM   27  C3  UNL     1      12.741  54.811 -52.355  1.00  0.00     0.029 C
HETATM   28  C4  UNL     1      14.047  55.189 -51.758  1.00  0.00     0.056 C
BRANCH  27  29
HETATM   29  C2  UNL     1      12.339  55.473 -53.583  1.00  0.00     0.289 C
HETATM   30  O2  UNL     1      12.246  54.795 -54.636  1.00  0.00    -0.260 OA
BRANCH  29  31
HETATM   31  O1  UNL     1      12.050  56.826 -53.655  1.00  0.00    -0.323 OA
HETATM   32  C1  UNL     1      10.884  57.399 -53.108  1.00  0.00     0.213 C
ENDBRANCH  29  31
ENDBRANCH  27  29
ENDBRANCH   1  26
TORSDOF 7
ENDMDL