MODEL 1
REMARK VINA RESULT: -6.976991809      0.000      0.000
REMARK  6 active torsions:
REMARK  status: ('A' for Active; 'I' for Inactive)
REMARK    1  A    between atoms: N1_1  and  C1_4
REMARK    2  A    between atoms: C1_4  and  N2_5
REMARK    3  A    between atoms: N2_5  and  S1_7
REMARK    4  A    between atoms: S1_7  and  N3_10
REMARK    5  A    between atoms: N3_10  and  C2_12
REMARK    6  A    between atoms: C5_23  and  N8_24
ROOT
HETATM    1  C2  UNL     1      14.035  50.005 -50.753  1.00  0.00     0.176 A
HETATM    2  N4  UNL     1      12.996  49.252 -51.125  1.00  0.00    -0.277 N
ATOM      3  H4  UNL     1      12.275  49.120 -50.417  1.00  0.00     0.189 HD
HETATM    4  N5  UNL     1      12.776  48.667 -52.253  1.00  0.00    -0.281 N
ATOM      5  H5  UNL     1      11.908  48.136 -52.317  1.00  0.00     0.188 HD
HETATM    6  C3  UNL     1      13.543  48.667 -53.355  1.00  0.00     0.172 A
HETATM    7  N6  UNL     1      13.379  48.079 -54.573  1.00  0.00    -0.170 N
ATOM      8  H6  UNL     1      12.575  47.506 -54.832  1.00  0.00     0.186 HD
HETATM    9  C4  UNL     1      14.409  48.349 -55.385  1.00  0.00     0.721 A
HETATM   10  N7  UNL     1      14.948  48.172 -56.597  1.00  0.00    -0.019 N
ATOM     11  H7  UNL     1      14.544  47.629 -57.360  1.00  0.00     0.203 HD
HETATM   12  C5  UNL     1      16.124  48.842 -56.632  1.00  0.00     0.706 A
HETATM   13  N9  UNL     1      16.268  49.414 -55.425  1.00  0.00    -0.110 N
ATOM     14  H9  UNL     1      17.062  49.990 -55.144  1.00  0.00     0.207 HD
HETATM   15  N10 UNL     1      15.237  49.125 -54.658  1.00  0.00    -0.060 N
HETATM   16  C6  UNL     1      14.747  49.334 -53.439  1.00  0.00     0.165 A
HETATM   17  S2  UNL     1      15.183  50.168 -52.000  1.00  0.00    -0.028 SA
ENDROOT
BRANCH   1  18
HETATM   18  N3  UNL     1      14.060  50.496 -49.577  1.00  0.00    -0.245 N
ATOM     19  H3  UNL     1      14.716  51.256 -49.405  1.00  0.00     0.182 HD
BRANCH  18  20
HETATM   20  S1  UNL     1      13.099  49.997 -48.276  1.00  0.00     0.325 S
HETATM   21  O1  UNL     1      11.625  50.312 -48.494  1.00  0.00    -0.182 OA
HETATM   22  O2  UNL     1      13.166  48.478 -48.204  1.00  0.00    -0.182 OA
BRANCH  20  23
HETATM   23  N2  UNL     1      13.587  50.624 -46.763  1.00  0.00    -0.264 N
ATOM     24  H2  UNL     1      14.294  51.359 -46.745  1.00  0.00     0.181 HD
BRANCH  23  25
HETATM   25  C1  UNL     1      13.054  50.167 -45.538  1.00  0.00     0.186 C
BRANCH  25  26
HETATM   26  N1  UNL     1      11.877  49.653 -45.450  1.00  0.00    -0.395 N
ATOM     27  H12 UNL     1      11.529  49.119 -46.246  1.00  0.00     0.156 HD
ATOM     28  H11 UNL     1      11.294  49.764 -44.619  1.00  0.00     0.156 HD
ENDBRANCH  25  26
ENDBRANCH  23  25
ENDBRANCH  20  23
ENDBRANCH  18  20
ENDBRANCH   1  18
BRANCH  12  29
HETATM   29  N8  UNL     1      16.952  48.922 -57.624  1.00  0.00    -0.233 N
ATOM     30  H82 UNL     1      16.784  49.386 -58.516  1.00  0.00     0.174 HD
ATOM     31  H81 UNL     1      17.896  48.540 -57.673  1.00  0.00     0.174 HD
ENDBRANCH  12  29
TORSDOF 6
ENDMDL