MODEL 3
REMARK VINA RESULT: -7.301183297      1.570      3.100
REMARK  6 active torsions:
REMARK  status: ('A' for Active; 'I' for Inactive)
REMARK    1  A    between atoms: C4_9  and  N4_10
REMARK    2  A    between atoms: C5_15  and  C6_16
REMARK    3  A    between atoms: C6_16  and  N6_17
REMARK    4  A    between atoms: N6_17  and  C7_19
REMARK    5  A    between atoms: C8_22  and  O1_23
REMARK    6  A    between atoms: O1_23  and  C9_24
ROOT
HETATM    1  C9  UNL     1      17.042  49.123 -56.058  1.00  0.00     0.302 C
HETATM    2  C10 UNL     1      16.560  49.399 -57.401  1.00  0.00     0.085 C
HETATM    3  N8  UNL     1      16.178  49.624 -58.478  1.00  0.00    -0.195 NA
ENDROOT
BRANCH   1   4
HETATM    4  O1  UNL     1      16.355  47.983 -55.583  1.00  0.00    -0.306 OA
BRANCH   4   5
HETATM    5  C8  UNL     1      15.177  48.104 -54.850  1.00  0.00     0.254 A
HETATM    6  N7  UNL     1      15.053  48.213 -53.517  1.00  0.00    -0.152 N
HETATM    7  C7  UNL     1      13.757  48.312 -53.184  1.00  0.00     0.696 A
ATOM      8  H7  UNL     1      15.830  48.221 -52.856  1.00  0.00     0.188 HD
HETATM    9  N10 UNL     1      13.077  48.261 -54.349  1.00  0.00    -0.129 N
HETATM   10  N9  UNL     1      13.943  48.135 -55.356  1.00  0.00    -0.250 N
ATOM     11  H10 UNL     1      12.062  48.310 -54.444  1.00  0.00     0.205 HD
ATOM     12  H9  UNL     1      13.702  48.073 -56.346  1.00  0.00     0.191 HD
BRANCH   7  13
HETATM   13  N6  UNL     1      13.245  48.431 -51.997  1.00  0.00    -0.219 N
ATOM     14  H6  UNL     1      12.367  47.963 -51.769  1.00  0.00     0.178 HD
BRANCH  13  15
HETATM   15  C6  UNL     1      13.938  49.247 -50.975  1.00  0.00     0.198 C
BRANCH  15  16
HETATM   16  C5  UNL     1      13.156  50.415 -50.606  1.00  0.00     0.075 A
HETATM   17  N5  UNL     1      12.785  51.318 -51.540  1.00  0.00    -0.192 N
HETATM   18  C4  UNL     1      12.063  52.418 -51.280  1.00  0.00     0.677 A
ATOM     19  H5  UNL     1      13.072  51.153 -52.504  1.00  0.00     0.184 HD
HETATM   20  N3  UNL     1      11.691  52.626 -50.007  1.00  0.00    -0.174 N
HETATM   21  C3  UNL     1      12.008  51.788 -49.005  1.00  0.00     0.151 A
ATOM     22  H3  UNL     1      11.142  53.458 -49.790  1.00  0.00     0.186 HD
HETATM   23  N2  UNL     1      11.781  51.745 -47.686  1.00  0.00    -0.336 N
HETATM   24  C11 UNL     1      12.770  50.638 -49.311  1.00  0.00     0.105 A
HETATM   25  C2  UNL     1      12.355  50.651 -47.197  1.00  0.00     0.184 A
ATOM     26  H2  UNL     1      11.257  52.434 -47.148  1.00  0.00     0.168 HD
HETATM   27  N1  UNL     1      12.980  49.942 -48.193  1.00  0.00    -0.343 N
HETATM   28  C1  UNL     1      13.709  48.696 -48.015  1.00  0.00     0.157 C
BRANCH  18  29
HETATM   29  N4  UNL     1      11.729  53.262 -52.221  1.00  0.00    -0.234 N
ATOM     30  H42 UNL     1      12.394  53.937 -52.598  1.00  0.00     0.174 HD
ATOM     31  H41 UNL     1      10.785  53.269 -52.605  1.00  0.00     0.174 HD
ENDBRANCH  18  29
ENDBRANCH  15  16
ENDBRANCH  13  15
ENDBRANCH   7  13
ENDBRANCH   4   5
ENDBRANCH   1   4
TORSDOF 6
ENDMDL