MODEL 1
REMARK VINA RESULT: -7.671792807      0.000      0.000
REMARK  4 active torsions:
REMARK  status: ('A' for Active; 'I' for Inactive)
REMARK    1  A    between atoms: C2_3  and  C3_4
REMARK    2  A    between atoms: C4_7  and  N3_8
REMARK       I    between atoms: N3_8  and  C5_10
REMARK    3  A    between atoms: C9_22  and  C10_23
REMARK    4  A    between atoms: C10_23  and  N8_24
ROOT
HETATM    1  C1  UNL     1      15.031  54.480 -50.573  1.00  0.00     0.159 C
HETATM    2  N1  UNL     1      13.827  54.530 -51.356  1.00  0.00    -0.324 N
HETATM    3  C2  UNL     1      12.824  53.636 -51.389  1.00  0.00     0.154 A
HETATM    4  N7  UNL     1      11.945  54.109 -52.249  1.00  0.00    -0.339 N
ATOM      5  H7  UNL     1      11.070  53.643 -52.484  1.00  0.00     0.167 HD
HETATM    6  C9  UNL     1      12.340  55.276 -52.776  1.00  0.00     0.074 A
HETATM    7  C11 UNL     1      13.543  55.555 -52.210  1.00  0.00     0.141 A
HETATM    8  C12 UNL     1      14.354  56.721 -52.477  1.00  0.00     0.120 C
HETATM    9  N9  UNL     1      15.019  57.645 -52.697  1.00  0.00    -0.190 NA
ENDROOT
BRANCH   6  10
HETATM   10  C10 UNL     1      11.666  56.149 -53.773  1.00  0.00     0.289 C
BRANCH  10  11
HETATM   11  N8  UNL     1      10.900  57.190 -53.129  1.00  0.00    -0.074 N
ATOM     12  H83 UNL     1      10.026  57.371 -53.623  1.00  0.00     0.274 HD
ATOM     13  H82 UNL     1      10.515  56.874 -52.238  1.00  0.00     0.274 HD
ATOM     14  H81 UNL     1      11.451  58.041 -53.017  1.00  0.00     0.274 HD
ENDBRANCH  10  11
ENDBRANCH   6  10
BRANCH   3  15
HETATM   15  C3  UNL     1      12.796  52.395 -50.585  1.00  0.00     0.157 A
HETATM   16  N2  UNL     1      12.133  52.394 -49.400  1.00  0.00    -0.325 N
HETATM   17  C4  UNL     1      12.091  51.285 -48.653  1.00  0.00     0.114 A
ATOM     18  H2  UNL     1      11.665  53.241 -49.079  1.00  0.00     0.169 HD
HETATM   19  C6  UNL     1      12.713  50.117 -49.054  1.00  0.00     0.123 A
HETATM   20  C7  UNL     1      13.383  50.124 -50.254  1.00  0.00     0.252 A
HETATM   21  O1  UNL     1      13.978  49.095 -50.694  1.00  0.00    -0.268 OA
HETATM   22  N6  UNL     1      13.404  51.268 -50.989  1.00  0.00    -0.301 N
HETATM   23  C8  UNL     1      14.110  51.286 -52.260  1.00  0.00     0.161 C
BRANCH  17  24
HETATM   24  N3  UNL     1      11.399  51.248 -47.392  1.00  0.00    -0.317 N
HETATM   25  C5  UNL     1      10.686  50.096 -46.973  1.00  0.00     0.187 C
HETATM   26  N4  UNL     1      11.213  49.370 -46.050  1.00  0.00    -0.373 N
HETATM   27  N5  UNL     1       9.434  49.720 -47.524  1.00  0.00    -0.064 NA
ATOM     28  H42 UNL     1      12.113  49.640 -45.654  1.00  0.00     0.158 HD
ATOM     29  H41 UNL     1      10.700  48.541 -45.748  1.00  0.00     0.158 HD
ATOM     30  H3  UNL     1      11.421  52.068 -46.786  1.00  0.00     0.170 HD
ENDBRANCH  17  24
ENDBRANCH   3  15
TORSDOF 4
ENDMDL