MODEL 5
REMARK VINA RESULT: -6.988356284      2.097      3.080
REMARK  6 active torsions:
REMARK  status: ('A' for Active; 'I' for Inactive)
REMARK       I    between atoms: N1_2  and  C3_4
REMARK       I    between atoms: C3_4  and  N2_6
REMARK    1  A    between atoms: N2_6  and  N3_8
REMARK    2  A    between atoms: N3_8  and  C4_10
REMARK       I    between atoms: N7_19  and  C8_21
REMARK    3  A    between atoms: C8_21  and  C9_23
REMARK    4  A    between atoms: C9_23  and  O3_24
REMARK    5  A    between atoms: C9_23  and  N8_26
REMARK    6  A    between atoms: N8_26  and  O4_27
ROOT
HETATM    1  C4  UNL     1      17.800  49.980 -56.686  1.00  0.00     0.181 C
HETATM    2  C5  UNL     1      17.281  50.587 -57.865  1.00  0.00     0.123 C
HETATM    3  N4  UNL     1      16.864  51.075 -58.846  1.00  0.00    -0.190 NA
HETATM    4  C6  UNL     1      16.899  49.357 -55.742  1.00  0.00     0.205 A
HETATM    5  N5  UNL     1      17.182  48.734 -54.580  1.00  0.00    -0.274 N
ATOM      6  H5  UNL     1      18.113  48.607 -54.183  1.00  0.00     0.189 HD
HETATM    7  N6  UNL     1      16.051  48.318 -54.046  1.00  0.00    -0.263 N
ATOM      8  H6  UNL     1      15.955  47.814 -53.164  1.00  0.00     0.190 HD
HETATM    9  C7  UNL     1      15.043  48.674 -54.867  1.00  0.00     0.248 A
HETATM   10  N7  UNL     1      13.789  48.435 -54.675  1.00  0.00    -0.288 N
ATOM     11  H7  UNL     1      13.101  48.748 -55.359  1.00  0.00     0.172 HD
HETATM   12  C8  UNL     1      13.367  47.738 -53.510  1.00  0.00     0.271 C
HETATM   13  O2  UNL     1      13.542  46.506 -53.469  1.00  0.00    -0.269 OA
HETATM   14  O5  UNL     1      15.602  49.291 -55.864  1.00  0.00    -0.256 OA
ENDROOT
BRANCH   1  15
HETATM   15  N3  UNL     1      19.049  49.986 -56.466  1.00  0.00    -0.283 N
ATOM     16  H3  UNL     1      19.564  49.167 -56.789  1.00  0.00     0.188 HD
BRANCH  15  17
HETATM   17  N2  UNL     1      19.789  50.957 -55.848  1.00  0.00    -0.250 N
HETATM   18  C3  UNL     1      20.199  50.791 -54.505  1.00  0.00     0.336 C
HETATM   19  N1  UNL     1      20.967  51.803 -53.871  1.00  0.00    -0.342 N
HETATM   20  O1  UNL     1      19.880  49.744 -53.879  1.00  0.00    -0.245 OA
HETATM   21  C1  UNL     1      21.369  51.599 -52.497  1.00  0.00     0.154 C
HETATM   22  C2  UNL     1      21.347  53.009 -54.560  1.00  0.00     0.154 C
ATOM     23  H2  UNL     1      20.046  51.802 -56.358  1.00  0.00     0.191 HD
ENDBRANCH  15  17
ENDBRANCH   1  15
BRANCH  12  24
HETATM   24  C9  UNL     1      12.737  48.436 -52.374  1.00  0.00     0.331 C
BRANCH  24  25
HETATM   25  O3  UNL     1      11.608  49.106 -52.827  1.00  0.00    -0.369 OA
ATOM     26  H3  UNL     1      11.692  50.028 -52.617  1.00  0.00     0.212 HD
ENDBRANCH  24  25
BRANCH  24  27
HETATM   27  N8  UNL     1      13.689  49.433 -51.866  1.00  0.00    -0.061 NA
BRANCH  27  28
HETATM   28  O4  UNL     1      14.827  48.801 -51.500  1.00  0.00    -0.293 OA
ATOM     29  H4  UNL     1      15.011  48.115 -52.129  1.00  0.00     0.238 HD
ENDBRANCH  27  28
ENDBRANCH  24  27
ENDBRANCH  12  24
TORSDOF 6
ENDMDL