MODEL 5
REMARK VINA RESULT: -7.200396030      2.209      5.408
REMARK  5 active torsions:
REMARK  status: ('A' for Active; 'I' for Inactive)
REMARK       I    between atoms: C2_2  and  N1_4
REMARK    1  A    between atoms: N1_4  and  C3_6
REMARK    2  A    between atoms: C4_7  and  C5_8
REMARK    3  A    between atoms: N5_15  and  C6_16
REMARK    4  A    between atoms: C7_19  and  N7_20
REMARK    5  A    between atoms: C9_27  and  N9_28
ROOT
HETATM    1  C3  UNL     1      15.833  49.083 -54.539  1.00  0.00     0.167 A
HETATM    2  C4  UNL     1      15.474  48.832 -55.822  1.00  0.00     0.161 A
HETATM    3  N3  UNL     1      14.280  48.118 -55.732  1.00  0.00    -0.278 N
ATOM      4  H3  UNL     1      13.736  47.763 -56.519  1.00  0.00     0.189 HD
HETATM    5  N4  UNL     1      13.982  47.982 -54.487  1.00  0.00    -0.232 N
ATOM      6  H4  UNL     1      13.148  47.496 -54.156  1.00  0.00     0.209 HD
HETATM    7  N5  UNL     1      14.858  48.531 -53.696  1.00  0.00    -0.203 N
ENDROOT
BRANCH   7   8
HETATM    8  C6  UNL     1      14.890  48.593 -52.284  1.00  0.00     0.184 A
HETATM    9  N6  UNL     1      15.878  48.068 -51.549  1.00  0.00    -0.172 N
HETATM   10  C7  UNL     1      15.898  48.136 -50.209  1.00  0.00     0.680 A
ATOM     11  H6  UNL     1      16.647  47.597 -52.027  1.00  0.00     0.186 HD
HETATM   12  N8  UNL     1      14.901  48.749 -49.542  1.00  0.00    -0.154 N
HETATM   13  C8  UNL     1      13.876  49.297 -50.220  1.00  0.00     0.296 A
ATOM     14  H8  UNL     1      14.923  48.796 -48.523  1.00  0.00     0.187 HD
HETATM   15  O3  UNL     1      12.929  49.879 -49.595  1.00  0.00    -0.265 OA
HETATM   16  C9  UNL     1      13.860  49.225 -51.597  1.00  0.00     0.217 A
BRANCH  10  17
HETATM   17  N7  UNL     1      16.903  47.596 -49.583  1.00  0.00    -0.234 N
ATOM     18  H72 UNL     1      17.563  46.985 -50.064  1.00  0.00     0.174 HD
ATOM     19  H71 UNL     1      17.016  47.801 -48.591  1.00  0.00     0.174 HD
ENDBRANCH  10  17
BRANCH  16  20
HETATM   20  N9  UNL     1      12.766  49.821 -52.263  1.00  0.00    -0.106 N
HETATM   21  O4  UNL     1      12.739  51.043 -52.420  1.00  0.00    -0.531 OA
HETATM   22  O5  UNL     1      11.746  49.048 -52.726  1.00  0.00    -0.531 OA
ENDBRANCH  16  20
ENDBRANCH   7   8
BRANCH   1  23
HETATM   23  N1  UNL     1      17.017  49.580 -53.989  1.00  0.00    -0.310 N
HETATM   24  C2  UNL     1      18.335  49.164 -54.051  1.00  0.00     0.219 C
HETATM   25  C1  UNL     1      19.444  50.059 -53.485  1.00  0.00     0.117 C
HETATM   26  O1  UNL     1      18.734  48.090 -54.543  1.00  0.00    -0.274 OA
ATOM     27  H1  UNL     1      16.883  50.421 -53.427  1.00  0.00     0.170 HD
ENDBRANCH   1  23
BRANCH   2  28
HETATM   28  C5  UNL     1      15.968  49.307 -57.094  1.00  0.00     0.286 C
HETATM   29  N2  UNL     1      17.233  48.817 -57.578  1.00  0.00    -0.056 NA
HETATM   30  O2  UNL     1      15.372  50.116 -57.803  1.00  0.00    -0.269 OA
ENDBRANCH   2  28
TORSDOF 5
ENDMDL