MODEL 5
REMARK VINA RESULT: -6.738576343      0.895      4.539
REMARK  5 active torsions:
REMARK  status: ('A' for Active; 'I' for Inactive)
REMARK    1  A    between atoms: C4_4  and  C5_5
REMARK    2  A    between atoms: C5_5  and  N1_6
REMARK    3  A    between atoms: N1_6  and  N2_8
REMARK    4  A    between atoms: C6_10  and  N3_11
REMARK    5  A    between atoms: N3_11  and  C7_13
ROOT
HETATM    1  N2  UNL     1      -1.304   2.640  24.650  1.00  0.00    -0.300 N
ATOM      2  H2  UNL     1      -2.248   2.820  24.312  1.00  0.00     0.187 HD
HETATM    3  C6  UNL     1      -0.719   3.471  25.427  1.00  0.00     0.198 C
ENDROOT
BRANCH   1   4
HETATM    4  N1  UNL     1      -0.624   1.486  24.278  1.00  0.00    -0.330 N
ATOM      5  H1  UNL     1      -0.127   1.441  23.387  1.00  0.00     0.180 HD
BRANCH   4   6
HETATM    6  C5  UNL     1      -0.630   0.355  25.168  1.00  0.00     0.196 C
BRANCH   6   7
HETATM    7  C4  UNL     1       0.772   0.144  25.635  1.00  0.00     0.028 A
HETATM    8  C3  UNL     1       1.065  -0.028  26.910  1.00  0.00     0.027 A
HETATM    9  C2  UNL     1       2.431  -0.233  27.362  1.00  0.00     0.003 A
HETATM   10  C1  UNL     1       3.401  -0.247  26.464  1.00  0.00     0.017 A
HETATM   11  C11 UNL     1       3.032  -0.052  25.067  1.00  0.00     0.088 A
HETATM   12  N5  UNL     1       1.820   0.128  24.683  1.00  0.00    -0.368 N
ATOM     13  H5  UNL     1       1.612   0.258  23.693  1.00  0.00     0.165 HD
ENDBRANCH   6   7
ENDBRANCH   4   6
ENDBRANCH   1   4
BRANCH   3  14
HETATM   14  N3  UNL     1       0.586   3.211  25.890  1.00  0.00    -0.338 N
ATOM     15  H3  UNL     1       1.169   2.560  25.363  1.00  0.00     0.168 HD
BRANCH  14  16
HETATM   16  C7  UNL     1       1.126   3.816  27.058  1.00  0.00     0.105 A
HETATM   17  C8  UNL     1       2.285   3.475  27.712  1.00  0.00     0.050 A
HETATM   18  C9  UNL     1       2.429   4.308  28.781  1.00  0.00     0.021 A
HETATM   19  C10 UNL     1       1.353   5.171  28.791  1.00  0.00     0.090 A
HETATM   20  N4  UNL     1       0.594   4.851  27.747  1.00  0.00    -0.352 N
ATOM     21  H4  UNL     1      -0.276   5.324  27.499  1.00  0.00     0.166 HD
ENDBRANCH  14  16
ENDBRANCH   3  14
TORSDOF 5
ENDMDL