MODEL 1
REMARK VINA RESULT: -6.034954528      0.000      0.000
REMARK  6 active torsions:
REMARK  status: ('A' for Active; 'I' for Inactive)
REMARK    1  A    between atoms: C2_2  and  C4_4
REMARK    2  A    between atoms: C4_4  and  C5_5
REMARK    3  A    between atoms: C5_5  and  N1_6
REMARK    4  A    between atoms: C5_5  and  C6_10
REMARK    5  A    between atoms: C6_10  and  N2_11
REMARK    6  A    between atoms: N2_11  and  C7_13
ROOT
HETATM    1  C6  UNL     1      -0.368   0.913  25.781  1.00  0.00     0.154 C
ENDROOT
BRANCH   1   2
HETATM    2  C5  UNL     1      -0.572   2.359  25.785  1.00  0.00     0.201 C
BRANCH   2   3
HETATM    3  C4  UNL     1       0.410   3.349  26.171  1.00  0.00     0.038 C
BRANCH   3   4
HETATM    4  C2  UNL     1       1.199   3.338  27.407  1.00  0.00    -0.021 C
HETATM    5  C1  UNL     1       1.146   4.830  27.911  1.00  0.00     0.009 C
HETATM    6  C3  UNL     1       2.708   3.184  27.137  1.00  0.00     0.009 C
ENDBRANCH   3   4
ENDBRANCH   2   3
BRANCH   2   7
HETATM    7  N1  UNL     1      -1.056   2.760  24.435  1.00  0.00    -0.073 N
ATOM      8  H13 UNL     1      -1.853   3.397  24.461  1.00  0.00     0.274 HD
ATOM      9  H12 UNL     1      -0.416   3.382  23.942  1.00  0.00     0.274 HD
ATOM     10  H11 UNL     1      -1.247   1.892  23.932  1.00  0.00     0.274 HD
ENDBRANCH   2   7
ENDBRANCH   1   2
BRANCH   1  11
HETATM   11  N2  UNL     1       0.599   0.486  24.802  1.00  0.00    -0.373 N
ATOM     12  H2  UNL     1       0.327   0.433  23.821  1.00  0.00     0.161 HD
BRANCH  11  13
HETATM   13  C7  UNL     1       1.801   0.171  25.141  1.00  0.00     0.116 A
HETATM   14  C8  UNL     1       2.029  -0.169  26.477  1.00  0.00     0.138 A
HETATM   15  N3  UNL     1       3.258  -0.511  26.908  1.00  0.00    -0.366 N
HETATM   16  C9  UNL     1       3.460  -0.860  28.301  1.00  0.00     0.155 C
HETATM   17  C10 UNL     1       4.268  -0.518  26.027  1.00  0.00     0.107 A
HETATM   18  C11 UNL     1       4.073  -0.187  24.707  1.00  0.00     0.107 A
HETATM   19  N4  UNL     1       2.830   0.156  24.280  1.00  0.00    -0.350 N
ATOM     20  H4  UNL     1       2.678   0.402  23.301  1.00  0.00     0.166 HD
ENDBRANCH  11  13
ENDBRANCH   1  11
TORSDOF 6
ENDMDL