MODEL 5
REMARK VINA RESULT: -7.078810237      3.158      4.227
REMARK  5 active torsions:
REMARK  status: ('A' for Active; 'I' for Inactive)
REMARK    1  A    between atoms: N2_4  and  N3_6
REMARK    2  A    between atoms: C1_8  and  C2_9
REMARK    3  A    between atoms: C2_9  and  C3_10
REMARK    4  A    between atoms: C5_14  and  C6_15
REMARK    5  A    between atoms: C6_15  and  N5_16
ROOT
HETATM    1  C3  UNL     1       1.361   1.297  27.810  1.00  0.00     0.087 A
HETATM    2  N4  UNL     1       2.205   0.442  28.411  1.00  0.00    -0.343 N
ATOM      3  H4  UNL     1       3.217   0.447  28.279  1.00  0.00     0.167 HD
HETATM    4  C4  UNL     1       1.547  -0.424  29.210  1.00  0.00     0.068 A
HETATM    5  C5  UNL     1       1.919  -1.467  30.026  1.00  0.00    -0.004 A
HETATM    6  C7  UNL     1       0.953  -2.154  30.717  1.00  0.00     0.011 A
HETATM    7  C8  UNL     1      -0.399  -1.807  30.602  1.00  0.00     0.003 A
HETATM    8  C9  UNL     1      -0.758  -0.760  29.781  1.00  0.00     0.032 A
HETATM    9  C10 UNL     1       0.200  -0.057  29.078  1.00  0.00     0.061 A
HETATM   10  N6  UNL     1       0.139   0.982  28.226  1.00  0.00    -0.344 N
ATOM     11  H6  UNL     1      -0.717   1.456  27.941  1.00  0.00     0.167 HD
ENDROOT
BRANCH   1  12
HETATM   12  C2  UNL     1       1.788   2.376  26.864  1.00  0.00     0.122 C
BRANCH  12  13
HETATM   13  C1  UNL     1       0.663   3.311  26.655  1.00  0.00     0.089 C
HETATM   14  N3  UNL     1       0.715   4.482  27.166  1.00  0.00    -0.301 N
ATOM     15  H3  UNL     1      -0.056   5.135  27.028  1.00  0.00     0.187 HD
BRANCH  14  16
HETATM   16  N2  UNL     1       1.825   4.860  27.910  1.00  0.00    -0.250 N
HETATM   17  N1  UNL     1       1.637   5.466  29.004  1.00  0.00    -0.331 N
ATOM     18  H12 UNL     1       0.687   5.665  29.318  1.00  0.00     0.178 HD
ATOM     19  H11 UNL     1       2.453   5.743  29.551  1.00  0.00     0.178 HD
ATOM     20  H2  UNL     1       2.768   4.654  27.583  1.00  0.00     0.207 HD
ENDBRANCH  14  16
ENDBRANCH  12  13
ENDBRANCH   1  12
BRANCH   5  21
HETATM   21  C6  UNL     1       3.343  -1.836  30.151  1.00  0.00     0.270 C
BRANCH  21  22
HETATM   22  N5  UNL     1       3.831  -1.724  31.493  1.00  0.00    -0.075 N
ATOM     23  H53 UNL     1       3.349  -0.979  31.996  1.00  0.00     0.274 HD
ATOM     24  H52 UNL     1       3.536  -2.522  32.056  1.00  0.00     0.274 HD
ATOM     25  H51 UNL     1       4.843  -1.599  31.538  1.00  0.00     0.274 HD
ENDBRANCH  21  22
ENDBRANCH   5  21
TORSDOF 5
ENDMDL