MODEL 5
REMARK VINA RESULT: -6.164760997      2.159      2.969
REMARK  8 active torsions:
REMARK  status: ('A' for Active; 'I' for Inactive)
REMARK    1  A    between atoms: C1_4  and  C2_5
REMARK    2  A    between atoms: C5_10  and  C6_11
REMARK    3  A    between atoms: C7_12  and  C8_13
REMARK    4  A    between atoms: C9_14  and  C10_15
REMARK    5  A    between atoms: C10_15  and  O1_16
REMARK    6  A    between atoms: O1_16  and  C11_17
REMARK    7  A    between atoms: C11_17  and  C12_18
REMARK    8  A    between atoms: C12_18  and  N3_19
ROOT
HETATM    1  C6  UNL     1       1.747   1.313  28.097  1.00  0.00    -0.051 C
HETATM    2  C7  UNL     1       2.219   0.352  28.649  1.00  0.00    -0.009 C
ENDROOT
BRANCH   1   3
HETATM    3  C5  UNL     1       1.160   2.438  27.423  1.00  0.00     0.048 A
HETATM    4  C2  UNL     1       1.342   3.763  27.669  1.00  0.00     0.066 A
HETATM    5  N2  UNL     1       0.584   4.475  26.782  1.00  0.00    -0.364 N
HETATM    6  C3  UNL     1      -0.059   3.598  25.996  1.00  0.00     0.090 A
ATOM      7  H2  UNL     1       0.519   5.492  26.727  1.00  0.00     0.165 HD
HETATM    8  C4  UNL     1       0.282   2.326  26.373  1.00  0.00     0.040 A
BRANCH   4   9
HETATM    9  C1  UNL     1       2.162   4.413  28.660  1.00  0.00     0.111 C
HETATM   10  N1  UNL     1       2.038   5.599  29.026  1.00  0.00    -0.406 N
ATOM     11  H12 UNL     1       1.293   6.136  28.579  1.00  0.00     0.155 HD
ATOM     12  H11 UNL     1       2.618   6.059  29.727  1.00  0.00     0.155 HD
ENDBRANCH   4   9
ENDBRANCH   1   3
BRANCH   2  13
HETATM   13  C8  UNL     1       2.787  -0.774  29.295  1.00  0.00    -0.013 C
HETATM   14  C9  UNL     1       3.278  -1.722  29.860  1.00  0.00    -0.066 C
BRANCH  14  15
HETATM   15  C10 UNL     1       3.894  -2.873  30.575  1.00  0.00     0.262 C
BRANCH  15  16
HETATM   16  O1  UNL     1       2.919  -3.656  31.147  1.00  0.00    -0.378 OA
BRANCH  16  17
HETATM   17  C11 UNL     1       2.278  -3.037  32.192  1.00  0.00     0.196 C
BRANCH  17  18
HETATM   18  C12 UNL     1       0.773  -3.099  32.122  1.00  0.00     0.255 C
BRANCH  18  19
HETATM   19  N3  UNL     1       0.316  -3.869  30.982  1.00  0.00    -0.077 N
ATOM     20  H33 UNL     1       1.038  -4.509  30.654  1.00  0.00     0.274 HD
ATOM     21  H32 UNL     1      -0.391  -4.552  31.255  1.00  0.00     0.274 HD
ATOM     22  H31 UNL     1      -0.019  -3.270  30.227  1.00  0.00     0.274 HD
ENDBRANCH  18  19
ENDBRANCH  17  18
ENDBRANCH  16  17
ENDBRANCH  15  16
ENDBRANCH  14  15
ENDBRANCH   2  13
TORSDOF 8
ENDMDL