MODEL 3
REMARK VINA RESULT: -6.657366535      1.438      2.644
REMARK  6 active torsions:
REMARK  status: ('A' for Active; 'I' for Inactive)
REMARK    1  A    between atoms: C3_3  and  C4_4
REMARK    2  A    between atoms: N1_7  and  C7_8
REMARK    3  A    between atoms: C7_8  and  C8_9
REMARK    4  A    between atoms: C8_9  and  C9_10
REMARK    5  A    between atoms: C9_10  and  N3_14
REMARK    6  A    between atoms: N3_14  and  N4_16
ROOT
HETATM    1  C1  UNL     1       2.139  -2.885  31.011  1.00  0.00     0.012 C
HETATM    2  C2  UNL     1       2.587  -1.894  30.473  1.00  0.00    -0.113 C
HETATM    3  C3  UNL     1       3.113  -0.686  29.826  1.00  0.00     0.131 C
ENDROOT
BRANCH   3   4
HETATM    4  C4  UNL     1       2.386  -0.419  28.557  1.00  0.00    -0.044 A
HETATM    5  C5  UNL     1       1.041  -0.116  28.517  1.00  0.00     0.025 A
HETATM    6  C6  UNL     1       0.384   0.130  27.331  1.00  0.00     0.091 A
HETATM    7  N1  UNL     1       1.080   0.070  26.178  1.00  0.00    -0.366 N
HETATM    8  C10 UNL     1       2.401  -0.223  26.164  1.00  0.00     0.091 A
HETATM    9  C11 UNL     1       3.055  -0.467  27.354  1.00  0.00     0.025 A
BRANCH   7  10
HETATM   10  C7  UNL     1       0.427   0.320  24.929  1.00  0.00     0.135 C
BRANCH  10  11
HETATM   11  C8  UNL     1      -1.073   0.377  25.118  1.00  0.00     0.097 C
BRANCH  11  12
HETATM   12  C9  UNL     1      -1.698   1.463  24.358  1.00  0.00     0.090 C
HETATM   13  N2  UNL     1      -2.895   1.326  23.904  1.00  0.00    -0.388 N
ATOM     14  H22 UNL     1      -3.355   0.439  24.108  1.00  0.00     0.157 HD
ATOM     15  H21 UNL     1      -3.330   2.082  23.375  1.00  0.00     0.157 HD
BRANCH  12  16
HETATM   16  N3  UNL     1      -1.056   2.700  24.073  1.00  0.00    -0.296 N
ATOM     17  H3  UNL     1      -0.622   2.810  23.157  1.00  0.00     0.187 HD
BRANCH  16  18
HETATM   18  N4  UNL     1      -0.980   3.769  24.955  1.00  0.00    -0.344 N
ATOM     19  H42 UNL     1      -0.723   4.673  24.558  1.00  0.00     0.176 HD
ATOM     20  H41 UNL     1      -1.161   3.707  25.957  1.00  0.00     0.176 HD
ENDBRANCH  16  18
ENDBRANCH  12  16
ENDBRANCH  11  12
ENDBRANCH  10  11
ENDBRANCH   7  10
ENDBRANCH   3   4
TORSDOF 6
ENDMDL