MODEL 5
REMARK VINA RESULT: -5.799648624      2.642      3.430
REMARK  7 active torsions:
REMARK  status: ('A' for Active; 'I' for Inactive)
REMARK    1  A    between atoms: C2_2  and  C3_3
REMARK    2  A    between atoms: C3_3  and  N1_4
REMARK    3  A    between atoms: N1_4  and  C4_6
REMARK    4  A    between atoms: C7_11  and  N3_12
REMARK    5  A    between atoms: N3_12  and  C8_14
REMARK    6  A    between atoms: C8_14  and  C10_16
REMARK    7  A    between atoms: C10_16  and  N4_17
ROOT
HETATM    1  C4  UNL     1       2.741   2.364  27.024  1.00  0.00     0.679 A
HETATM    2  N2  UNL     1       3.492   1.768  26.093  1.00  0.00    -0.202 N
ATOM      3  H2  UNL     1       3.997   2.334  25.410  1.00  0.00     0.183 HD
HETATM    4  C5  UNL     1       3.585   0.427  26.050  1.00  0.00     0.110 A
HETATM    5  C6  UNL     1       2.906  -0.384  26.967  1.00  0.00     0.066 A
HETATM    6  C7  UNL     1       2.145   0.252  27.910  1.00  0.00     0.118 A
HETATM    7  N5  UNL     1       2.096   1.595  27.895  1.00  0.00    -0.177 N
ATOM      8  H5  UNL     1       1.524   2.057  28.603  1.00  0.00     0.185 HD
ENDROOT
BRANCH   6   9
HETATM    9  N3  UNL     1       1.502  -0.378  28.773  1.00  0.00    -0.370 N
ATOM     10  H3  UNL     1       2.042  -1.131  29.198  1.00  0.00     0.161 HD
BRANCH   9  11
HETATM   11  C8  UNL     1       0.199  -0.282  29.290  1.00  0.00     0.104 C
HETATM   12  C9  UNL     1      -0.926  -0.183  28.315  1.00  0.00     0.034 C
BRANCH  11  13
HETATM   13  C10 UNL     1      -0.052  -1.450  30.242  1.00  0.00     0.254 C
BRANCH  13  14
HETATM   14  N4  UNL     1      -1.301  -1.142  30.959  1.00  0.00    -0.077 N
ATOM     15  H43 UNL     1      -1.850  -1.971  31.188  1.00  0.00     0.274 HD
ATOM     16  H42 UNL     1      -1.151  -0.822  31.915  1.00  0.00     0.274 HD
ATOM     17  H41 UNL     1      -1.806  -0.469  30.382  1.00  0.00     0.274 HD
ENDBRANCH  13  14
ENDBRANCH  11  13
ENDBRANCH   9  11
ENDBRANCH   6   9
BRANCH   1  18
HETATM   18  N1  UNL     1       2.669   3.649  27.044  1.00  0.00    -0.226 N
ATOM     19  H1  UNL     1       3.544   4.166  27.137  1.00  0.00     0.177 HD
BRANCH  18  20
HETATM   20  C3  UNL     1       1.462   4.414  26.946  1.00  0.00     0.137 C
BRANCH  20  21
HETATM   21  C2  UNL     1       0.989   4.919  28.297  1.00  0.00     0.016 C
HETATM   22  C1  UNL     1       2.194   5.199  29.170  1.00  0.00     0.006 C
ENDBRANCH  20  21
ENDBRANCH  18  20
ENDBRANCH   1  18
TORSDOF 7
ENDMDL