MODEL 3
REMARK VINA RESULT: -5.638004192      2.890      3.681
REMARK  5 active torsions:
REMARK  status: ('A' for Active; 'I' for Inactive)
REMARK    1  A    between atoms: C2_2  and  C3_3
REMARK    2  A    between atoms: C3_3  and  C4_4
REMARK    3  A    between atoms: C4_4  and  N1_5
REMARK    4  A    between atoms: C5_7  and  N2_8
REMARK    5  A    between atoms: N2_8  and  C6_10
ROOT
HETATM    1  C6  UNL     1       1.327   1.292  26.978  1.00  0.00     0.685 A
HETATM    2  N3  UNL     1       0.489   1.904  26.123  1.00  0.00    -0.176 N
ATOM      3  H3  UNL     1       0.005   1.447  25.350  1.00  0.00     0.185 HD
HETATM    4  C7  UNL     1       0.382   3.206  26.436  1.00  0.00     0.166 A
HETATM    5  N4  UNL     1      -0.382   4.224  25.815  1.00  0.00    -0.079 NA
HETATM    6  C8  UNL     1       1.191   3.431  27.542  1.00  0.00     0.138 A
HETATM    7  S1  UNL     1       1.441   5.004  28.401  1.00  0.00    -0.029 SA
HETATM    8  N5  UNL     1       1.740   2.242  27.830  1.00  0.00    -0.181 N
ATOM      9  H5  UNL     1       2.390   2.080  28.599  1.00  0.00     0.185 HD
ENDROOT
BRANCH   1  10
HETATM   10  N2  UNL     1       1.653   0.029  26.956  1.00  0.00    -0.188 N
ATOM     11  H2  UNL     1       0.943  -0.703  26.970  1.00  0.00     0.185 HD
BRANCH  10  12
HETATM   12  C5  UNL     1       3.037  -0.286  26.914  1.00  0.00     0.193 C
HETATM   13  N1  UNL     1       3.571  -0.809  27.962  1.00  0.00    -0.386 N
ATOM     14  H1  UNL     1       4.564  -1.041  27.950  1.00  0.00     0.160 HD
BRANCH  13  15
HETATM   15  C4  UNL     1       2.808  -1.072  29.141  1.00  0.00     0.120 C
BRANCH  15  16
HETATM   16  C3  UNL     1       3.562  -2.040  30.002  1.00  0.00     0.019 C
BRANCH  16  17
HETATM   17  C2  UNL     1       2.860  -2.239  31.329  1.00  0.00    -0.003 C
HETATM   18  C1  UNL     1       2.052  -3.506  31.289  1.00  0.00     0.005 C
ENDBRANCH  16  17
ENDBRANCH  15  16
ENDBRANCH  13  15
ENDBRANCH  10  12
ENDBRANCH   1  10
TORSDOF 5
ENDMDL