MODEL 3
REMARK VINA RESULT: -6.912487466      3.043      4.798
REMARK  5 active torsions:
REMARK  status: ('A' for Active; 'I' for Inactive)
REMARK    1  A    between atoms: N2_7  and  C6_8
REMARK    2  A    between atoms: C6_8  and  C7_9
REMARK    3  A    between atoms: C7_9  and  C8_10
REMARK    4  A    between atoms: C8_10  and  N3_11
REMARK    5  A    between atoms: N3_11  and  C9_13
ROOT
HETATM    1  C8  UNL     1       2.615  -0.379  26.386  1.00  0.00     0.139 C
ENDROOT
BRANCH   1   2
HETATM    2  C7  UNL     1       3.468  -0.509  27.652  1.00  0.00     0.040 C
BRANCH   2   3
HETATM    3  C6  UNL     1       2.578  -0.146  28.811  1.00  0.00     0.131 C
BRANCH   3   4
HETATM    4  N2  UNL     1       2.378  -1.243  29.723  1.00  0.00    -0.345 N
HETATM    5  C1  UNL     1       1.124  -1.512  30.124  1.00  0.00     0.118 A
HETATM    6  N1  UNL     1       0.004  -0.764  29.687  1.00  0.00    -0.083 NA
HETATM    7  C2  UNL     1       0.854  -2.561  31.008  1.00  0.00     0.045 A
HETATM    8  C3  UNL     1       1.877  -3.350  31.491  1.00  0.00     0.005 A
HETATM    9  C4  UNL     1       3.178  -3.063  31.068  1.00  0.00     0.017 A
HETATM   10  C5  UNL     1       3.368  -2.011  30.195  1.00  0.00     0.092 A
ENDBRANCH   3   4
ENDBRANCH   2   3
ENDBRANCH   1   2
BRANCH   1  11
HETATM   11  N3  UNL     1       1.255  -0.028  26.726  1.00  0.00    -0.225 N
ATOM     12  H3  UNL     1       0.951   0.024  27.697  1.00  0.00     0.177 HD
BRANCH  11  13
HETATM   13  C9  UNL     1       0.425   0.222  25.741  1.00  0.00     0.693 A
HETATM   14  N4  UNL     1      -0.917   0.232  25.813  1.00  0.00    -0.185 N
HETATM   15  C10 UNL     1      -1.389   0.531  24.591  1.00  0.00     0.215 A
ATOM     16  H4  UNL     1      -1.476   0.047  26.646  1.00  0.00     0.185 HD
HETATM   17  N5  UNL     1      -0.355   0.707  23.753  1.00  0.00    -0.281 N
HETATM   18  N6  UNL     1       0.737   0.516  24.469  1.00  0.00    -0.131 N
ATOM     19  H5  UNL     1      -0.403   0.941  22.761  1.00  0.00     0.188 HD
ATOM     20  H6  UNL     1       1.687   0.583  24.106  1.00  0.00     0.205 HD
ENDBRANCH  11  13
ENDBRANCH   1  11
TORSDOF 5
ENDMDL