MODEL 2
REMARK VINA RESULT: -6.603207382      3.953      6.833
REMARK  6 active torsions:
REMARK  status: ('A' for Active; 'I' for Inactive)
REMARK    1  A    between atoms: O1_1  and  C1_3
REMARK    2  A    between atoms: C1_3  and  C2_4
REMARK    3  A    between atoms: N1_8  and  C6_9
REMARK    4  A    between atoms: C6_9  and  C7_10
REMARK    5  A    between atoms: C7_10  and  N2_11
REMARK    6  A    between atoms: N2_11  and  C8_13
ROOT
HETATM    1  C6  UNL     1       2.477  -0.322  29.303  1.00  0.00     0.147 C
ENDROOT
BRANCH   1   2
HETATM    2  N1  UNL     1       2.529  -0.277  27.876  1.00  0.00    -0.364 N
HETATM    3  C5  UNL     1       3.648  -0.442  27.156  1.00  0.00     0.090 A
HETATM    4  C4  UNL     1       3.689  -0.395  25.787  1.00  0.00     0.018 A
HETATM    5  C3  UNL     1       2.531  -0.169  25.076  1.00  0.00     0.012 A
HETATM    6  C2  UNL     1       1.374   0.003  25.808  1.00  0.00    -0.019 A
HETATM    7  C11 UNL     1       1.384  -0.053  27.192  1.00  0.00     0.099 A
BRANCH   6   8
HETATM    8  C1  UNL     1       0.117   0.248  25.074  1.00  0.00     0.204 C
BRANCH   8   9
HETATM    9  O1  UNL     1       0.373   0.514  23.727  1.00  0.00    -0.396 OA
ATOM     10  H1  UNL     1      -0.037  -0.138  23.170  1.00  0.00     0.209 HD
ENDBRANCH   8   9
ENDBRANCH   6   8
ENDBRANCH   1   2
BRANCH   1  11
HETATM   11  C7  UNL     1       2.809  -1.670  29.886  1.00  0.00     0.158 C
BRANCH  11  12
HETATM   12  N2  UNL     1       3.643  -1.592  31.039  1.00  0.00    -0.224 N
ATOM     13  H2  UNL     1       3.480  -0.823  31.690  1.00  0.00     0.177 HD
BRANCH  12  14
HETATM   14  C8  UNL     1       4.588  -2.425  31.317  1.00  0.00     0.677 A
HETATM   15  N3  UNL     1       5.350  -3.050  30.402  1.00  0.00    -0.201 N
HETATM   16  C9  UNL     1       6.239  -3.847  30.992  1.00  0.00     0.123 A
ATOM     17  H3  UNL     1       5.260  -2.929  29.393  1.00  0.00     0.183 HD
HETATM   18  C10 UNL     1       6.032  -3.723  32.352  1.00  0.00     0.123 A
HETATM   19  N4  UNL     1       5.022  -2.851  32.511  1.00  0.00    -0.201 N
ATOM     20  H4  UNL     1       4.640  -2.558  33.411  1.00  0.00     0.183 HD
ENDBRANCH  12  14
ENDBRANCH  11  12
ENDBRANCH   1  11
TORSDOF 6
ENDMDL