MODEL 3
REMARK VINA RESULT: -5.785578910      4.653      5.526
REMARK  6 active torsions:
REMARK  status: ('A' for Active; 'I' for Inactive)
REMARK    1  A    between atoms: C2_2  and  N1_3
REMARK    2  A    between atoms: C4_5  and  C5_6
REMARK    3  A    between atoms: C6_7  and  C7_8
REMARK    4  A    between atoms: C8_9  and  C9_10
REMARK    5  A    between atoms: C9_10  and  N2_11
REMARK    6  A    between atoms: N2_11  and  C10_14
ROOT
HETATM    1  C5  UNL     1       2.715  -1.202  29.766  1.00  0.00    -0.032 C
HETATM    2  C6  UNL     1       2.052  -0.548  28.999  1.00  0.00    -0.008 C
ENDROOT
BRANCH   2   3
HETATM    3  C7  UNL     1       1.295   0.211  28.078  1.00  0.00    -0.013 C
HETATM    4  C8  UNL     1       0.668   0.870  27.276  1.00  0.00    -0.065 C
BRANCH   4   5
HETATM    5  C9  UNL     1      -0.059   1.672  26.296  1.00  0.00     0.326 C
BRANCH   5   6
HETATM    6  N2  UNL     1       0.665   2.898  26.033  1.00  0.00    -0.062 N
ATOM      7  H22 UNL     1       1.249   2.816  25.201  1.00  0.00     0.278 HD
ATOM      8  H21 UNL     1       0.040   3.639  25.715  1.00  0.00     0.278 HD
BRANCH   6   9
HETATM    9  C10 UNL     1       1.442   3.316  27.188  1.00  0.00     0.179 C
HETATM   10  C11 UNL     1       1.125   4.717  27.591  1.00  0.00     0.039 C
HETATM   11  C12 UNL     1       2.933   3.207  26.915  1.00  0.00     0.039 C
ENDBRANCH   6   9
ENDBRANCH   5   6
ENDBRANCH   4   5
ENDBRANCH   2   3
BRANCH   1  12
HETATM   12  C4  UNL     1       3.535  -1.998  30.669  1.00  0.00     0.117 A
HETATM   13  C3  UNL     1       4.640  -2.748  30.350  1.00  0.00     0.147 A
HETATM   14  N1  UNL     1       5.096  -3.313  31.483  1.00  0.00    -0.284 N
HETATM   15  N4  UNL     1       4.283  -2.910  32.458  1.00  0.00    -0.020 NA
HETATM   16  N3  UNL     1       3.342  -2.118  31.973  1.00  0.00    -0.275 N
ATOM     17  H3  UNL     1       2.597  -1.676  32.511  1.00  0.00     0.185 HD
BRANCH  14  18
HETATM   18  C2  UNL     1       6.250  -4.183  31.610  1.00  0.00     0.141 C
HETATM   19  C1  UNL     1       6.740  -4.106  33.036  1.00  0.00     0.028 C
ENDBRANCH  14  18
ENDBRANCH   1  12
TORSDOF 6
ENDMDL