MODEL 5
REMARK VINA RESULT: -6.542979512      1.807      4.063
REMARK  2 active torsions:
REMARK  status: ('A' for Active; 'I' for Inactive)
REMARK    1  A    between atoms: O1_2  and  C2_3
REMARK    2  A    between atoms: C5_6  and  O2_7
ROOT
HETATM    1  C2  UNL     1      21.289  29.613  18.296  1.00  0.00     0.156 C
HETATM    2  C3  UNL     1      22.796  29.613  18.591  1.00  0.00     0.154 C
HETATM    3  C4  UNL     1      22.960  30.001  20.023  1.00  0.00     0.066 C
HETATM    4  C5  UNL     1      23.894  31.052  20.388  1.00  0.00     0.121 C
HETATM    5  C6  UNL     1      24.173  32.258  19.670  1.00  0.00     0.039 C
HETATM    6  C7  UNL     1      23.287  33.321  19.290  1.00  0.00     0.021 C
HETATM    7  C8  UNL     1      22.753  34.261  20.384  1.00  0.00    -0.010 C
HETATM    8  C9  UNL     1      23.464  34.383  21.638  1.00  0.00     0.010 C
HETATM    9  C10 UNL     1      21.486  33.438  20.320  1.00  0.00     0.037 C
HETATM   10  C11 UNL     1      21.920  33.172  18.863  1.00  0.00     0.126 C
HETATM   11  O3  UNL     1      21.383  32.083  18.384  1.00  0.00    -0.380 OA
HETATM   12  C12 UNL     1      21.358  31.761  17.084  1.00  0.00     0.132 C
HETATM   13  C13 UNL     1      22.637  31.917  16.323  1.00  0.00     0.070 C
HETATM   14  C14 UNL     1      23.197  30.485  16.441  1.00  0.00     0.064 C
HETATM   15  C15 UNL     1      24.363  30.297  15.506  1.00  0.00     0.046 C
HETATM   16  O4  UNL     1      23.539  30.275  17.701  1.00  0.00    -0.372 OA
HETATM   17  C16 UNL     1      21.946  29.785  15.945  1.00  0.00     0.025 C
HETATM   18  C17 UNL     1      22.061  28.348  15.732  1.00  0.00     0.014 C
HETATM   19  C18 UNL     1      20.977  30.269  16.973  1.00  0.00     0.053 C
ENDROOT
BRANCH   1  20
HETATM   20  O1  UNL     1      20.719  28.379  18.358  1.00  0.00    -0.388 OA
HETATM   21  C1  UNL     1      20.152  28.038  19.555  1.00  0.00     0.202 C
ENDBRANCH   1  20
BRANCH   4  22
HETATM   22  O2  UNL     1      25.169  30.413  20.554  1.00  0.00    -0.395 OA
ATOM     23  H2  UNL     1      25.655  30.582  19.755  1.00  0.00     0.210 HD
ENDBRANCH   4  22
TORSDOF 2
ENDMDL