MODEL 2
REMARK VINA RESULT: -7.220332914      1.897      6.088
REMARK  3 active torsions:
REMARK  status: ('A' for Active; 'I' for Inactive)
REMARK    1  A    between atoms: C4_4  and  C5_5
REMARK    2  A    between atoms: C6_6  and  C7_7
REMARK    3  A    between atoms: C17_21  and  O5_22
ROOT
HETATM    1  C7  UNL     1      21.969  32.141  18.711  1.00  0.00     0.128 C
HETATM    2  C8  UNL     1      20.841  31.242  19.001  1.00  0.00     0.268 C
HETATM    3  O1  UNL     1      19.760  31.822  19.232  1.00  0.00    -0.264 OA
HETATM    4  O2  UNL     1      20.919  29.876  19.029  1.00  0.00    -0.315 OA
HETATM    5  C9  UNL     1      21.479  28.951  18.188  1.00  0.00     0.137 C
HETATM    6  C10 UNL     1      22.145  27.879  19.073  1.00  0.00     0.040 C
HETATM    7  C11 UNL     1      22.431  29.378  17.152  1.00  0.00     0.074 C
HETATM    8  C12 UNL     1      21.693  29.516  15.821  1.00  0.00     0.137 C
HETATM    9  C13 UNL     1      22.584  29.126  14.677  1.00  0.00     0.040 C
HETATM   10  O3  UNL     1      21.108  30.788  15.655  1.00  0.00    -0.315 OA
HETATM   11  C14 UNL     1      21.587  31.929  16.271  1.00  0.00     0.271 C
HETATM   12  O4  UNL     1      21.145  33.035  15.881  1.00  0.00    -0.264 OA
HETATM   13  C15 UNL     1      22.575  31.887  17.346  1.00  0.00     0.086 C
HETATM   14  C16 UNL     1      23.650  32.947  17.151  1.00  0.00     0.030 C
HETATM   15  C17 UNL     1      23.282  30.555  17.444  1.00  0.00     0.146 C
ENDROOT
BRANCH   1  16
HETATM   16  C6  UNL     1      21.597  33.568  18.886  1.00  0.00    -0.011 C
HETATM   17  C5  UNL     1      21.726  34.167  20.036  1.00  0.00    -0.003 C
BRANCH  17  18
HETATM   18  C4  UNL     1      21.381  35.559  20.275  1.00  0.00     0.002 C
HETATM   19  C2  UNL     1      20.146  35.974  20.412  1.00  0.00    -0.088 C
HETATM   20  C1  UNL     1      19.015  34.982  20.321  1.00  0.00     0.043 C
HETATM   21  C3  UNL     1      19.812  37.380  20.652  1.00  0.00     0.043 C
ENDBRANCH  17  18
ENDBRANCH   1  16
BRANCH  15  22
HETATM   22  O5  UNL     1      23.916  30.398  18.653  1.00  0.00    -0.394 OA
ATOM     23  H5  UNL     1      24.591  29.732  18.587  1.00  0.00     0.210 HD
ENDBRANCH  15  22
TORSDOF 3
ENDMDL