MODEL 1
REMARK VINA RESULT: -7.002977863      0.000      0.000
REMARK  4 active torsions:
REMARK  status: ('A' for Active; 'I' for Inactive)
REMARK    1  A    between atoms: O1_2  and  C2_3
REMARK    2  A    between atoms: C3_4  and  O2_5
REMARK    3  A    between atoms: C11_14  and  O3_15
REMARK    4  A    between atoms: O3_15  and  C12_16
REMARK       I    between atoms: C12_16  and  N1_18
ROOT
HETATM    1  C2  UNL     1      22.558  30.076  17.330  1.00  0.00     0.185 C
HETATM    2  C3  UNL     1      21.117  30.430  16.929  1.00  0.00     0.151 C
HETATM    3  C4  UNL     1      21.139  31.897  17.297  1.00  0.00     0.046 C
HETATM    4  C5  UNL     1      21.712  31.810  18.691  1.00  0.00    -0.007 C
HETATM    5  C6  UNL     1      20.606  31.657  19.671  1.00  0.00     0.018 C
HETATM    6  C7  UNL     1      22.474  33.069  18.942  1.00  0.00     0.013 C
HETATM    7  C8  UNL     1      23.899  32.760  18.591  1.00  0.00     0.008 C
HETATM    8  C9  UNL     1      24.038  31.293  18.938  1.00  0.00     0.020 C
HETATM    9  C10 UNL     1      24.521  31.226  20.345  1.00  0.00     0.013 C
HETATM   10  C11 UNL     1      22.697  30.646  18.709  1.00  0.00     0.111 C
ENDROOT
BRANCH  10  11
HETATM   11  O3  UNL     1      22.288  29.816  19.741  1.00  0.00    -0.289 OA
BRANCH  11  12
HETATM   12  C12 UNL     1      22.332  28.447  19.717  1.00  0.00     0.363 C
HETATM   13  O4  UNL     1      23.487  27.962  19.647  1.00  0.00    -0.238 OA
HETATM   14  N1  UNL     1      21.199  27.604  19.766  1.00  0.00    -0.324 N
HETATM   15  C13 UNL     1      21.410  26.180  19.732  1.00  0.00     0.154 C
HETATM   16  C16 UNL     1      19.885  28.188  19.847  1.00  0.00     0.154 C
HETATM   17  C14 UNL     1      20.201  25.380  19.444  1.00  0.00     0.187 C
HETATM   18  O5  UNL     1      19.085  26.126  19.096  1.00  0.00    -0.388 OA
HETATM   19  C15 UNL     1      18.811  27.136  20.005  1.00  0.00     0.187 C
ENDBRANCH  11  12
ENDBRANCH  10  11
BRANCH   1  20
HETATM   20  O1  UNL     1      23.456  30.740  16.499  1.00  0.00    -0.385 OA
HETATM   21  C1  UNL     1      23.953  29.929  15.490  1.00  0.00     0.202 C
ENDBRANCH   1  20
BRANCH   2  22
HETATM   22  O2  UNL     1      20.904  30.224  15.582  1.00  0.00    -0.393 OA
ATOM     23  H2  UNL     1      20.240  30.813  15.242  1.00  0.00     0.210 HD
ENDBRANCH   2  22
TORSDOF 4
ENDMDL