MODEL 5
REMARK VINA RESULT: -5.992329513      2.947      4.307
REMARK  2 active torsions:
REMARK  status: ('A' for Active; 'I' for Inactive)
REMARK    1  A    between atoms: S1_2  and  C2_3
REMARK       I    between atoms: N3_10  and  C5_12
REMARK    2  A    between atoms: C5_12  and  C6_14
ROOT
HETATM    1  C2  UNL     1      22.467  29.043  15.751  1.00  0.00     0.160 A
HETATM    2  N1  UNL     1      21.851  28.038  16.394  1.00  0.00    -0.332 N
ATOM      3  H1  UNL     1      21.374  27.312  15.860  1.00  0.00     0.168 HD
HETATM    4  C3  UNL     1      21.859  27.982  17.735  1.00  0.00     0.200 A
HETATM    5  N2  UNL     1      22.498  28.954  18.422  1.00  0.00    -0.187 N
ATOM      6  H2  UNL     1      22.506  28.915  19.441  1.00  0.00     0.185 HD
HETATM    7  C4  UNL     1      23.124  29.972  17.804  1.00  0.00     0.687 A
HETATM    8  N3  UNL     1      23.744  30.917  18.434  1.00  0.00    -0.158 N
ATOM      9  H3  UNL     1      24.195  31.656  17.894  1.00  0.00     0.187 HD
HETATM   10  C5  UNL     1      23.818  30.959  19.853  1.00  0.00     0.252 C
HETATM   11  O1  UNL     1      24.534  30.074  20.411  1.00  0.00    -0.271 OA
HETATM   12  N4  UNL     1      23.092  29.990  16.459  1.00  0.00    -0.170 N
ATOM     13  H4  UNL     1      23.559  30.751  15.963  1.00  0.00     0.186 HD
ENDROOT
BRANCH  10  14
HETATM   14  C6  UNL     1      23.088  31.989  20.643  1.00  0.00     0.110 C
HETATM   15  C7  UNL     1      24.145  32.739  21.446  1.00  0.00     0.035 C
HETATM   16  C8  UNL     1      22.117  31.402  21.555  1.00  0.00     0.048 C
HETATM   17  C9  UNL     1      20.760  31.288  20.964  1.00  0.00     0.010 C
HETATM   18  C10 UNL     1      20.488  29.894  20.436  1.00  0.00     0.027 C
HETATM   19  C11 UNL     1      19.647  31.664  21.895  1.00  0.00     0.027 C
HETATM   20  S2  UNL     1      20.756  32.506  19.593  1.00  0.00    -0.082 SA
HETATM   21  C12 UNL     1      22.481  32.941  19.712  1.00  0.00     0.204 C
HETATM   22  O2  UNL     1      23.006  33.858  19.119  1.00  0.00    -0.284 OA
ENDBRANCH  10  14
BRANCH   1  23
HETATM   23  S1  UNL     1      22.415  29.051  13.969  1.00  0.00    -0.098 SA
HETATM   24  C1  UNL     1      23.034  27.510  13.290  1.00  0.00     0.099 C
ENDBRANCH   1  23
TORSDOF 2
ENDMDL