MODEL 2
REMARK VINA RESULT: -7.099320518      0.598      1.297
REMARK  7 active torsions:
REMARK  status: ('A' for Active; 'I' for Inactive)
REMARK    1  A    between atoms: O1_2  and  C2_3
REMARK    2  A    between atoms: C2_3  and  C3_5
REMARK    3  A    between atoms: C3_5  and  N2_16
REMARK       I    between atoms: N1_6  and  C4_8
REMARK    4  A    between atoms: C4_8  and  C5_10
REMARK    5  A    between atoms: C5_10  and  C6_11
REMARK    6  A    between atoms: C6_11  and  C7_12
REMARK    7  A    between atoms: N2_16  and  C11_18
ROOT
HETATM    1  C3  UNL     1      22.405  30.369  17.135  1.00  0.00     0.187 C
HETATM    2  N1  UNL     1      22.838  29.234  17.504  1.00  0.00    -0.304 N
ATOM      3  H1  UNL     1      23.848  29.087  17.532  1.00  0.00     0.171 HD
HETATM    4  C4  UNL     1      22.007  28.181  17.872  1.00  0.00     0.246 C
HETATM    5  O3  UNL     1      21.585  27.418  16.976  1.00  0.00    -0.268 OA
ENDROOT
BRANCH   1   6
HETATM    6  C2  UNL     1      21.020  30.696  17.054  1.00  0.00     0.327 C
HETATM    7  O2  UNL     1      20.434  30.828  15.939  1.00  0.00    -0.256 OA
BRANCH   6   8
HETATM    8  O1  UNL     1      20.250  30.885  18.172  1.00  0.00    -0.320 OA
HETATM    9  C1  UNL     1      20.727  31.633  19.273  1.00  0.00     0.213 C
ENDBRANCH   6   8
ENDBRANCH   1   6
BRANCH   1  10
HETATM   10  N2  UNL     1      23.376  31.353  16.788  1.00  0.00    -0.316 N
ATOM     11  H2  UNL     1      23.462  31.671  15.822  1.00  0.00     0.169 HD
BRANCH  10  12
HETATM   12  C11 UNL     1      24.161  31.850  17.718  1.00  0.00     0.166 A
HETATM   13  N3  UNL     1      25.318  31.351  18.164  1.00  0.00    -0.279 N
HETATM   14  N4  UNL     1      25.937  31.990  19.084  1.00  0.00    -0.296 N
ATOM     15  H3  UNL     1      25.698  30.486  17.782  1.00  0.00     0.189 HD
HETATM   16  C12 UNL     1      25.434  33.109  19.571  1.00  0.00     0.066 A
ATOM     17  H4  UNL     1      26.822  31.633  19.444  1.00  0.00     0.187 HD
HETATM   18  C13 UNL     1      25.995  34.007  20.646  1.00  0.00     0.078 C
HETATM   19  S1  UNL     1      23.994  33.260  18.663  1.00  0.00    -0.038 SA
ENDBRANCH  10  12
ENDBRANCH   1  10
BRANCH   4  20
HETATM   20  C5  UNL     1      21.605  27.922  19.248  1.00  0.00     0.071 C
BRANCH  20  21
HETATM   21  C6  UNL     1      21.034  26.793  19.563  1.00  0.00    -0.013 C
BRANCH  21  22
HETATM   22  C7  UNL     1      19.811  26.780  20.383  1.00  0.00    -0.034 C
HETATM   23  C8  UNL     1      20.025  25.908  21.591  1.00  0.00     0.018 C
HETATM   24  C9  UNL     1      19.439  28.193  20.771  1.00  0.00     0.018 C
HETATM   25  C10 UNL     1      18.664  26.208  19.581  1.00  0.00     0.018 C
ENDBRANCH  21  22
ENDBRANCH  20  21
ENDBRANCH   4  20
TORSDOF 7
ENDMDL