MODEL 5
REMARK VINA RESULT: -6.374241614      1.813      6.212
REMARK  3 active torsions:
REMARK  status: ('A' for Active; 'I' for Inactive)
REMARK    1  A    between atoms: C4_7  and  N3_8
REMARK    2  A    between atoms: C11_16  and  N5_17
REMARK       I    between atoms: N5_17  and  C12_19
REMARK    3  A    between atoms: C12_19  and  C13_21
ROOT
HETATM    1  C1  UNL     1      20.875  26.731  19.756  1.00  0.00     0.072 C
HETATM    2  C2  UNL     1      21.355  27.511  18.589  1.00  0.00     0.052 A
HETATM    3  N1  UNL     1      21.569  27.066  17.364  1.00  0.00    -0.299 N
ATOM      4  H1  UNL     1      21.425  26.103  17.061  1.00  0.00     0.187 HD
HETATM    5  N2  UNL     1      22.004  28.064  16.574  1.00  0.00    -0.279 N
HETATM    6  C3  UNL     1      22.322  27.850  15.197  1.00  0.00     0.179 C
HETATM    7  C4  UNL     1      22.090  29.215  17.267  1.00  0.00     0.149 A
HETATM    8  C11 UNL     1      21.680  28.872  18.551  1.00  0.00     0.104 A
ENDROOT
BRANCH   7   9
HETATM    9  N3  UNL     1      22.459  30.510  16.825  1.00  0.00    -0.356 N
HETATM   10  C5  UNL     1      21.442  31.297  16.113  1.00  0.00     0.155 C
HETATM   11  C6  UNL     1      21.918  32.676  15.716  1.00  0.00     0.291 C
HETATM   12  N4  UNL     1      22.417  33.298  16.891  1.00  0.00     0.087 N
HETATM   13  C7  UNL     1      22.642  34.703  16.639  1.00  0.00     0.310 C
HETATM   14  C8  UNL     1      23.608  32.665  17.293  1.00  0.00     0.296 C
HETATM   15  C9  UNL     1      23.699  31.173  16.938  1.00  0.00     0.110 C
HETATM   16  C10 UNL     1      24.412  31.119  15.567  1.00  0.00     0.034 C
ENDBRANCH   7   9
BRANCH   8  17
HETATM   17  N5  UNL     1      21.521  29.639  19.734  1.00  0.00    -0.322 N
HETATM   18  C12 UNL     1      20.467  30.573  19.846  1.00  0.00     0.230 C
HETATM   19  O1  UNL     1      19.677  30.711  18.883  1.00  0.00    -0.272 OA
ATOM     20  H5  UNL     1      22.172  29.515  20.509  1.00  0.00     0.169 HD
BRANCH  18  21
HETATM   21  C13 UNL     1      20.281  31.385  21.072  1.00  0.00     0.030 C
HETATM   22  C14 UNL     1      19.383  32.587  20.781  1.00  0.00     0.025 C
HETATM   23  C15 UNL     1      21.578  31.946  21.592  1.00  0.00     0.025 C
HETATM   24  C16 UNL     1      19.618  30.575  22.142  1.00  0.00     0.025 C
ENDBRANCH  18  21
ENDBRANCH   8  17
TORSDOF 3
ENDMDL