MODEL 4
REMARK VINA RESULT: -6.282268026      2.913      5.225
REMARK  3 active torsions:
REMARK  status: ('A' for Active; 'I' for Inactive)
REMARK    1  A    between atoms: C3_3  and  O1_4
REMARK       I    between atoms: N1_8  and  C6_9
REMARK    2  A    between atoms: C6_9  and  C7_11
REMARK    3  A    between atoms: C10_19  and  C11_20
ROOT
HETATM    1  C1  UNL     1      19.912  27.983  20.030  1.00  0.00     0.015 C
HETATM    2  C2  UNL     1      21.014  28.283  19.675  1.00  0.00    -0.079 C
HETATM    3  C3  UNL     1      22.359  28.670  19.255  1.00  0.00     0.127 C
HETATM    4  C4  UNL     1      22.697  29.994  19.897  1.00  0.00     0.071 C
HETATM    5  C5  UNL     1      21.978  31.100  19.132  1.00  0.00     0.130 C
HETATM    6  N1  UNL     1      22.323  31.032  17.727  1.00  0.00    -0.341 N
HETATM    7  C6  UNL     1      23.158  31.974  17.138  1.00  0.00     0.273 C
HETATM    8  O2  UNL     1      23.421  31.916  15.877  1.00  0.00    -0.266 OA
HETATM    9  C10 UNL     1      21.752  29.875  17.109  1.00  0.00     0.098 C
HETATM   10  C14 UNL     1      22.418  28.657  17.768  1.00  0.00     0.052 C
HETATM   11  C15 UNL     1      21.702  27.364  17.337  1.00  0.00     0.016 C
ENDROOT
BRANCH   3  12
HETATM   12  O1  UNL     1      23.296  27.745  19.723  1.00  0.00    -0.377 OA
ATOM     13  H1  UNL     1      22.928  26.869  19.712  1.00  0.00     0.211 HD
ENDBRANCH   3  12
BRANCH   9  14
HETATM   14  C11 UNL     1      21.662  29.646  15.689  1.00  0.00     0.001 C
HETATM   15  C12 UNL     1      20.801  30.604  14.890  1.00  0.00     0.011 C
HETATM   16  C13 UNL     1      22.897  29.206  14.940  1.00  0.00     0.011 C
ENDBRANCH   9  14
BRANCH   7  17
HETATM   17  C7  UNL     1      23.847  33.118  17.786  1.00  0.00     0.131 A
HETATM   18  N2  UNL     1      23.124  34.186  18.148  1.00  0.00    -0.306 N
HETATM   19  S1  UNL     1      24.207  35.250  18.828  1.00  0.00     0.067 SA
ATOM     20  H2  UNL     1      22.119  34.320  18.031  1.00  0.00     0.176 HD
HETATM   21  N3  UNL     1      25.589  34.338  18.656  1.00  0.00    -0.314 N
HETATM   22  C8  UNL     1      25.183  33.218  18.069  1.00  0.00     0.046 A
ATOM     23  H3  UNL     1      26.537  34.584  18.939  1.00  0.00     0.175 HD
HETATM   24  C9  UNL     1      26.189  32.122  17.746  1.00  0.00     0.071 C
ENDBRANCH   7  17
TORSDOF 3
ENDMDL