MODEL 2
REMARK VINA RESULT: -7.260529495      1.220      1.272
REMARK  3 active torsions:
REMARK  status: ('A' for Active; 'I' for Inactive)
REMARK    1  A    between atoms: C2_2  and  C3_3
REMARK    2  A    between atoms: C11_13  and  O3_14
REMARK    3  A    between atoms: C16_21  and  C17_22
ROOT
HETATM    1  C3  UNL     1      20.539  28.342  20.046  1.00  0.00     0.019 C
HETATM    2  C4  UNL     1      19.973  29.734  20.359  1.00  0.00     0.019 C
HETATM    3  C5  UNL     1      21.122  30.613  19.912  1.00  0.00    -0.036 C
HETATM    4  C6  UNL     1      21.948  30.929  21.121  1.00  0.00     0.015 C
HETATM    5  C7  UNL     1      20.633  31.887  19.262  1.00  0.00     0.045 C
HETATM    6  C8  UNL     1      21.587  32.124  18.096  1.00  0.00     0.165 C
HETATM    7  O1  UNL     1      22.668  32.879  18.444  1.00  0.00    -0.234 OA
HETATM    8  O2  UNL     1      23.252  33.298  17.339  1.00  0.00    -0.222 OA
HETATM    9  C9  UNL     1      24.472  32.633  17.255  1.00  0.00     0.167 C
HETATM   10  C10 UNL     1      25.385  33.187  16.181  1.00  0.00     0.057 C
HETATM   11  C11 UNL     1      25.165  32.426  18.584  1.00  0.00     0.297 C
HETATM   12  O4  UNL     1      24.598  31.152  18.619  1.00  0.00    -0.350 OA
HETATM   13  C12 UNL     1      24.343  31.154  17.262  1.00  0.00     0.167 C
HETATM   14  C13 UNL     1      23.079  30.599  16.774  1.00  0.00     0.043 C
HETATM   15  C14 UNL     1      21.881  30.742  17.638  1.00  0.00     0.026 C
HETATM   16  C15 UNL     1      21.867  29.862  18.848  1.00  0.00     0.012 C
HETATM   17  C16 UNL     1      21.015  28.608  18.616  1.00  0.00     0.060 C
ENDROOT
BRANCH   1  18
HETATM   18  C2  UNL     1      19.501  27.301  20.092  1.00  0.00    -0.031 C
HETATM   19  C1  UNL     1      19.735  26.168  20.721  1.00  0.00     0.007 C
ENDBRANCH   1  18
BRANCH  17  20
HETATM   20  C17 UNL     1      21.816  27.494  18.088  1.00  0.00     0.236 C
HETATM   21  O5  UNL     1      21.397  26.764  17.212  1.00  0.00    -0.306 OA
ENDBRANCH  17  20
BRANCH  11  22
HETATM   22  O3  UNL     1      24.764  33.266  19.606  1.00  0.00    -0.368 OA
ATOM     23  H3  UNL     1      23.964  33.017  20.054  1.00  0.00     0.212 HD
ENDBRANCH  11  22
TORSDOF 3
ENDMDL