MODEL 3
REMARK VINA RESULT: -4.859401410      2.770      4.980
REMARK  7 active torsions:
REMARK  status: ('A' for Active; 'I' for Inactive)
REMARK    1  A    between atoms: C2_2  and  C3_3
REMARK    2  A    between atoms: C3_3  and  N1_4
REMARK    3  A    between atoms: N1_4  and  C4_6
REMARK    4  A    between atoms: C4_6  and  C5_7
REMARK    5  A    between atoms: C5_7  and  C7_9
REMARK    6  A    between atoms: C7_9  and  N2_10
REMARK    7  A    between atoms: N2_10  and  C8_12
ROOT
HETATM    1  C5  UNL     1      62.422  11.488  23.543  1.00  0.00     0.037 C
HETATM    2  C6  UNL     1      62.995  10.107  23.684  1.00  0.00     0.017 C
ENDROOT
BRANCH   1   3
HETATM    3  C4  UNL     1      62.698  11.916  22.081  1.00  0.00     0.128 C
BRANCH   3   4
HETATM    4  N1  UNL     1      61.510  12.329  21.486  1.00  0.00    -0.402 N
ATOM      5  H1  UNL     1      61.559  12.891  20.636  1.00  0.00     0.158 HD
BRANCH   4   6
HETATM    6  C3  UNL     1      60.254  12.010  22.003  1.00  0.00     0.055 C
BRANCH   6   7
HETATM    7  C2  UNL     1      59.235  13.090  22.127  1.00  0.00     0.039 C
HETATM    8  C1  UNL     1      57.870  12.794  21.622  1.00  0.00     0.010 C
ENDBRANCH   6   7
ENDBRANCH   4   6
ENDBRANCH   3   4
ENDBRANCH   1   3
BRANCH   1   9
HETATM    9  C7  UNL     1      63.107  12.493  24.388  1.00  0.00     0.061 C
BRANCH   9  10
HETATM   10  N2  UNL     1      62.414  13.375  25.197  1.00  0.00    -0.397 N
ATOM     11  H2  UNL     1      61.589  13.838  24.817  1.00  0.00     0.159 HD
BRANCH  10  12
HETATM   12  C8  UNL     1      62.793  13.662  26.509  1.00  0.00     0.080 C
HETATM   13  C9  UNL     1      61.832  13.851  27.614  1.00  0.00     0.025 C
HETATM   14  C10 UNL     1      61.983  12.351  27.953  1.00  0.00     0.004 C
HETATM   15  C11 UNL     1      63.278  12.372  27.200  1.00  0.00     0.025 C
ENDBRANCH  10  12
ENDBRANCH   9  10
ENDBRANCH   1   9
TORSDOF 7
ENDMDL