MODEL 1
REMARK VINA RESULT: -5.319699323      0.000      0.000
REMARK  8 active torsions:
REMARK  status: ('A' for Active; 'I' for Inactive)
REMARK    1  A    between atoms: C2_2  and  C3_3
REMARK    2  A    between atoms: C3_3  and  C4_4
REMARK    3  A    between atoms: C4_4  and  N1_5
REMARK    4  A    between atoms: N1_5  and  C5_8
REMARK    5  A    between atoms: C5_8  and  C6_9
REMARK    6  A    between atoms: C8_11  and  C9_12
REMARK    7  A    between atoms: C9_12  and  C11_14
REMARK    8  A    between atoms: C11_14  and  N2_15
ROOT
HETATM    1  C6  UNL     1      63.685  11.445  24.715  1.00  0.00    -0.057 A
HETATM    2  C7  UNL     1      64.494  11.878  25.666  1.00  0.00    -0.017 A
HETATM    3  C8  UNL     1      64.570  10.529  26.234  1.00  0.00     0.018 A
HETATM    4  C12 UNL     1      63.669  10.026  25.177  1.00  0.00     0.044 A
ENDROOT
BRANCH   1   5
HETATM    5  C5  UNL     1      63.021  12.145  23.564  1.00  0.00     0.266 C
BRANCH   5   6
HETATM    6  N1  UNL     1      63.958  13.030  22.950  1.00  0.00    -0.071 N
ATOM      7  H12 UNL     1      64.415  13.622  23.643  1.00  0.00     0.277 HD
ATOM      8  H11 UNL     1      63.483  13.752  22.407  1.00  0.00     0.277 HD
BRANCH   6   9
HETATM    9  C4  UNL     1      64.935  12.319  22.140  1.00  0.00     0.236 C
BRANCH   9  10
HETATM   10  C3  UNL     1      66.161  13.132  21.828  1.00  0.00     0.054 C
BRANCH  10  11
HETATM   11  C2  UNL     1      67.354  12.625  22.544  1.00  0.00    -0.035 C
HETATM   12  C1  UNL     1      67.499  12.690  23.852  1.00  0.00     0.007 C
ENDBRANCH  10  11
ENDBRANCH   9  10
ENDBRANCH   6   9
ENDBRANCH   5   6
ENDBRANCH   1   5
BRANCH   3  13
HETATM   13  C9  UNL     1      65.957   9.945  26.340  1.00  0.00     0.015 C
HETATM   14  C10 UNL     1      65.960   8.588  26.996  1.00  0.00     0.012 C
BRANCH  13  15
HETATM   15  C11 UNL     1      66.776  10.894  27.173  1.00  0.00     0.234 C
BRANCH  15  16
HETATM   16  N2  UNL     1      67.919  10.295  27.792  1.00  0.00    -0.079 N
ATOM     17  H23 UNL     1      68.636  10.998  27.975  1.00  0.00     0.274 HD
ATOM     18  H22 UNL     1      67.702  10.017  28.749  1.00  0.00     0.274 HD
ATOM     19  H21 UNL     1      68.314   9.510  27.274  1.00  0.00     0.274 HD
ENDBRANCH  15  16
ENDBRANCH  13  15
ENDBRANCH   3  13
TORSDOF 8
ENDMDL