MODEL 1
REMARK VINA RESULT: -5.534728810      0.000      0.000
REMARK  7 active torsions:
REMARK  status: ('A' for Active; 'I' for Inactive)
REMARK    1  A    between atoms: C1_4  and  C2_5
REMARK    2  A    between atoms: C2_5  and  C3_6
REMARK    3  A    between atoms: C3_6  and  N2_7
REMARK    4  A    between atoms: N2_7  and  C4_9
REMARK    5  A    between atoms: C4_9  and  C5_10
REMARK    6  A    between atoms: C5_10  and  O1_11
REMARK    7  A    between atoms: O1_11  and  C6_12
ROOT
HETATM    1  C4  UNL     1      62.981   8.520  24.668  1.00  0.00     0.140 C
ENDROOT
BRANCH   1   2
HETATM    2  N2  UNL     1      62.390   9.643  24.035  1.00  0.00    -0.419 N
ATOM      3  H2  UNL     1      61.383   9.700  23.877  1.00  0.00     0.153 HD
BRANCH   2   4
HETATM    4  C3  UNL     1      63.267  10.682  23.631  1.00  0.00     0.119 C
BRANCH   4   5
HETATM    5  C2  UNL     1      62.532  12.010  23.726  1.00  0.00     0.063 C
BRANCH   5   6
HETATM    6  C1  UNL     1      62.662  12.618  25.073  1.00  0.00     0.054 C
HETATM    7  N1  UNL     1      62.640  13.886  25.221  1.00  0.00    -0.411 N
ATOM      8  H12 UNL     1      62.532  14.473  24.394  1.00  0.00     0.155 HD
ATOM      9  H11 UNL     1      62.729  14.304  26.148  1.00  0.00     0.155 HD
ENDBRANCH   5   6
ENDBRANCH   4   5
ENDBRANCH   2   4
ENDBRANCH   1   2
BRANCH   1  10
HETATM   10  C5  UNL     1      63.452   8.778  26.071  1.00  0.00     0.195 C
BRANCH  10  11
HETATM   11  O1  UNL     1      64.859   8.666  26.132  1.00  0.00    -0.350 OA
BRANCH  11  12
HETATM   12  C6  UNL     1      65.594   9.699  26.680  1.00  0.00     0.068 A
HETATM   13  C7  UNL     1      64.958  10.824  27.157  1.00  0.00     0.037 A
HETATM   14  C8  UNL     1      65.643  11.885  27.715  1.00  0.00     0.003 A
HETATM   15  C9  UNL     1      67.017  11.842  27.810  1.00  0.00     0.000 A
HETATM   16  C10 UNL     1      67.672  10.727  27.340  1.00  0.00     0.003 A
HETATM   17  C11 UNL     1      66.975   9.660  26.778  1.00  0.00     0.037 A
ENDBRANCH  11  12
ENDBRANCH  10  11
ENDBRANCH   1  10
TORSDOF 7
ENDMDL