MODEL 1
REMARK VINA RESULT: -5.130907773      0.000      0.000
REMARK  8 active torsions:
REMARK  status: ('A' for Active; 'I' for Inactive)
REMARK    1  A    between atoms: C2_2  and  C3_3
REMARK    2  A    between atoms: C3_3  and  N1_4
REMARK    3  A    between atoms: N1_4  and  C4_7
REMARK    4  A    between atoms: C4_7  and  C5_8
REMARK    5  A    between atoms: C5_8  and  N2_10
REMARK    6  A    between atoms: N2_10  and  C7_12
REMARK    7  A    between atoms: C7_12  and  C8_13
REMARK    8  A    between atoms: C8_13  and  C9_14
ROOT
HETATM    1  C5  UNL     1      62.903  12.101  23.971  1.00  0.00     0.102 C
HETATM    2  C6  UNL     1      64.262  11.998  23.384  1.00  0.00     0.034 C
ENDROOT
BRANCH   1   3
HETATM    3  C4  UNL     1      61.773  11.805  23.008  1.00  0.00     0.257 C
BRANCH   3   4
HETATM    4  N1  UNL     1      60.752  12.793  22.941  1.00  0.00    -0.070 N
ATOM      5  H12 UNL     1      61.120  13.726  22.758  1.00  0.00     0.277 HD
ATOM      6  H11 UNL     1      60.332  12.985  23.851  1.00  0.00     0.277 HD
BRANCH   4   7
HETATM    7  C3  UNL     1      59.771  12.372  21.948  1.00  0.00     0.259 C
BRANCH   7   8
HETATM    8  C2  UNL     1      58.575  13.251  21.922  1.00  0.00    -0.010 C
HETATM    9  C1  UNL     1      57.392  12.856  21.504  1.00  0.00     0.008 C
ENDBRANCH   7   8
ENDBRANCH   4   7
ENDBRANCH   3   4
ENDBRANCH   1   3
BRANCH   1  10
HETATM   10  N2  UNL     1      62.600  13.238  24.729  1.00  0.00    -0.396 N
ATOM     11  H2  UNL     1      62.428  14.116  24.239  1.00  0.00     0.159 HD
BRANCH  10  12
HETATM   12  C7  UNL     1      62.522  13.227  26.113  1.00  0.00     0.056 C
BRANCH  12  13
HETATM   13  C8  UNL     1      63.300  12.172  26.859  1.00  0.00     0.048 C
BRANCH  13  14
HETATM   14  C9  UNL     1      63.981  12.885  28.031  1.00  0.00    -0.018 C
HETATM   15  C10 UNL     1      65.427  12.469  28.111  1.00  0.00     0.010 C
HETATM   16  C11 UNL     1      63.816  14.383  27.957  1.00  0.00     0.010 C
ENDBRANCH  13  14
ENDBRANCH  12  13
ENDBRANCH  10  12
ENDBRANCH   1  10
TORSDOF 8
ENDMDL