MODEL 3
REMARK VINA RESULT: -5.108191520      1.172      6.277
REMARK  7 active torsions:
REMARK  status: ('A' for Active; 'I' for Inactive)
REMARK    1  A    between atoms: C2_2  and  C3_3
REMARK    2  A    between atoms: C3_3  and  C4_4
REMARK    3  A    between atoms: C3_3  and  N1_6
REMARK    4  A    between atoms: N1_6  and  C6_8
REMARK    5  A    between atoms: C6_8  and  C7_9
REMARK    6  A    between atoms: C7_9  and  N2_10
REMARK    7  A    between atoms: N2_10  and  C8_12
ROOT
HETATM    1  C6  UNL     1      60.452  11.936  22.222  1.00  0.00     0.133 C
ENDROOT
BRANCH   1   2
HETATM    2  N1  UNL     1      59.846  13.210  22.337  1.00  0.00    -0.416 N
ATOM      3  H1  UNL     1      60.094  13.865  23.078  1.00  0.00     0.153 HD
BRANCH   2   4
HETATM    4  C3  UNL     1      58.865  13.515  21.345  1.00  0.00     0.076 C
BRANCH   4   5
HETATM    5  C2  UNL     1      57.484  13.724  21.823  1.00  0.00     0.020 C
HETATM    6  C1  UNL     1      56.448  12.773  21.354  1.00  0.00     0.007 C
ENDBRANCH   4   5
BRANCH   4   7
HETATM    7  C4  UNL     1      58.979  12.546  20.194  1.00  0.00     0.020 C
HETATM    8  C5  UNL     1      59.329  13.183  18.883  1.00  0.00     0.007 C
ENDBRANCH   4   7
ENDBRANCH   2   4
ENDBRANCH   1   2
BRANCH   1   9
HETATM    9  C7  UNL     1      61.771  11.851  22.940  1.00  0.00     0.133 C
BRANCH   9  10
HETATM   10  N2  UNL     1      61.763  12.679  24.083  1.00  0.00    -0.416 N
ATOM     11  H2  UNL     1      60.968  13.280  24.295  1.00  0.00     0.153 HD
BRANCH  10  12
HETATM   12  C8  UNL     1      62.903  12.643  24.922  1.00  0.00     0.076 C
HETATM   13  C9  UNL     1      62.708  12.898  26.384  1.00  0.00     0.024 C
HETATM   14  C10 UNL     1      63.831  11.891  26.656  1.00  0.00     0.004 C
HETATM   15  C11 UNL     1      63.469  11.292  25.288  1.00  0.00     0.024 C
ENDBRANCH  10  12
ENDBRANCH   9  10
ENDBRANCH   1   9
TORSDOF 7
ENDMDL