MODEL 1
REMARK VINA RESULT: -5.505219826      0.000      0.000
REMARK  7 active torsions:
REMARK  status: ('A' for Active; 'I' for Inactive)
REMARK    1  A    between atoms: C2_2  and  N1_3
REMARK    2  A    between atoms: N1_3  and  C3_5
REMARK    3  A    between atoms: C3_5  and  C4_6
REMARK    4  A    between atoms: C4_6  and  N2_7
REMARK    5  A    between atoms: N2_7  and  C5_8
REMARK    6  A    between atoms: N2_7  and  C8_11
REMARK    7  A    between atoms: C5_8  and  C6_9
ROOT
HETATM    1  N2  UNL     1      65.949  11.564  25.874  1.00  0.00    -0.366 N
ENDROOT
BRANCH   1   2
HETATM    2  C4  UNL     1      65.016  12.231  26.728  1.00  0.00     0.143 C
BRANCH   2   3
HETATM    3  C3  UNL     1      63.844  11.377  27.135  1.00  0.00     0.139 C
BRANCH   3   4
HETATM    4  N1  UNL     1      62.658  12.010  26.610  1.00  0.00    -0.398 N
ATOM      5  H1  UNL     1      61.945  11.429  26.169  1.00  0.00     0.158 HD
BRANCH   4   6
HETATM    6  C2  UNL     1      62.450  13.410  26.686  1.00  0.00     0.072 C
HETATM    7  C1  UNL     1      61.727  13.892  27.681  1.00  0.00     0.029 C
ENDBRANCH   4   6
ENDBRANCH   3   4
ENDBRANCH   2   3
ENDBRANCH   1   2
BRANCH   1   8
HETATM    8  C5  UNL     1      66.630  10.371  26.313  1.00  0.00     0.124 C
BRANCH   8   9
HETATM    9  C6  UNL     1      67.724  10.706  27.330  1.00  0.00     0.015 C
HETATM   10  C7  UNL     1      69.041  10.382  26.674  1.00  0.00     0.006 C
ENDBRANCH   8   9
ENDBRANCH   1   8
BRANCH   1  11
HETATM   11  C8  UNL     1      66.231  12.069  24.576  1.00  0.00     0.102 A
HETATM   12  C9  UNL     1      67.459  12.477  24.069  1.00  0.00     0.050 A
HETATM   13  C10 UNL     1      67.236  12.879  22.773  1.00  0.00     0.021 A
HETATM   14  C11 UNL     1      65.882  12.701  22.542  1.00  0.00     0.090 A
HETATM   15  N3  UNL     1      65.278  12.214  23.626  1.00  0.00    -0.352 N
ATOM     16  H3  UNL     1      64.287  11.994  23.722  1.00  0.00     0.166 HD
ENDBRANCH   1  11
TORSDOF 7
ENDMDL