MODEL 4
REMARK VINA RESULT: -5.316310523      2.004      2.639
REMARK  7 active torsions:
REMARK  status: ('A' for Active; 'I' for Inactive)
REMARK    1  A    between atoms: C2_2  and  N1_3
REMARK    2  A    between atoms: N1_3  and  C3_5
REMARK    3  A    between atoms: C3_5  and  C4_6
REMARK    4  A    between atoms: C4_6  and  N2_7
REMARK    5  A    between atoms: N2_7  and  C5_10
REMARK    6  A    between atoms: C5_10  and  C6_11
REMARK    7  A    between atoms: C6_11  and  C7_12
ROOT
HETATM    1  N2  UNL     1      61.529  12.320  21.729  1.00  0.00    -0.071 N
ATOM      2  H21 UNL     1      62.060  11.991  20.923  1.00  0.00     0.277 HD
ATOM      3  H22 UNL     1      61.717  13.320  21.649  1.00  0.00     0.277 HD
ENDROOT
BRANCH   1   4
HETATM    4  C4  UNL     1      62.056  11.792  22.947  1.00  0.00     0.276 C
BRANCH   4   5
HETATM    5  C3  UNL     1      63.562  11.877  22.992  1.00  0.00     0.087 C
BRANCH   5   6
HETATM    6  N1  UNL     1      64.146  13.087  22.590  1.00  0.00    -0.381 N
ATOM      7  H1  UNL     1      63.850  13.959  23.028  1.00  0.00     0.164 HD
BRANCH   6   8
HETATM    8  C2  UNL     1      65.137  13.116  21.588  1.00  0.00     0.056 C
HETATM    9  C1  UNL     1      66.550  13.123  22.106  1.00  0.00     0.054 C
ENDBRANCH   6   8
ENDBRANCH   5   6
ENDBRANCH   4   5
ENDBRANCH   1   4
BRANCH   1  10
HETATM   10  C5  UNL     1      60.141  12.044  21.580  1.00  0.00     0.233 C
BRANCH  10  11
HETATM   11  C6  UNL     1      59.223  13.121  22.081  1.00  0.00     0.032 C
BRANCH  11  12
HETATM   12  C7  UNL     1      58.160  13.380  21.052  1.00  0.00    -0.013 C
HETATM   13  C8  UNL     1      56.773  13.434  21.611  1.00  0.00     0.005 C
HETATM   14  C9  UNL     1      56.025  12.297  20.877  1.00  0.00     0.000 C
HETATM   15  C10 UNL     1      56.679  12.374  19.513  1.00  0.00     0.000 C
HETATM   16  C11 UNL     1      58.158  12.345  19.948  1.00  0.00     0.005 C
ENDBRANCH  11  12
ENDBRANCH  10  11
ENDBRANCH   1  10
TORSDOF 7
ENDMDL