MODEL 3
REMARK VINA RESULT: -5.826474925      1.158      1.260
REMARK  3 active torsions:
REMARK  status: ('A' for Active; 'I' for Inactive)
REMARK    1  A    between atoms: C4_7  and  C5_8
REMARK    2  A    between atoms: C5_8  and  N2_9
REMARK    3  A    between atoms: N2_9  and  C6_11
ROOT
HETATM    1  C5  UNL     1      -0.852  13.491  47.932  1.00  0.00     0.118 C
ENDROOT
BRANCH   1   2
HETATM    2  C4  UNL     1      -0.143  12.401  47.643  1.00  0.00     0.117 A
HETATM    3  C3  UNL     1      -0.373  11.571  46.568  1.00  0.00     0.275 A
HETATM    4  N1  UNL     1       0.555  10.589  46.630  1.00  0.00    -0.308 N
HETATM    5  O1  UNL     1      -1.285  11.737  45.715  1.00  0.00    -0.266 OA
HETATM    6  C2  UNL     1       1.353  10.781  47.710  1.00  0.00     0.098 A
ATOM      7  H1  UNL     1       0.642   9.820  45.966  1.00  0.00     0.170 HD
HETATM    8  C1  UNL     1       2.375  10.008  48.084  1.00  0.00     0.063 C
HETATM    9  N4  UNL     1       0.898  11.897  48.305  1.00  0.00    -0.338 N
ATOM     10  H4  UNL     1       1.296  12.304  49.151  1.00  0.00     0.167 HD
ENDBRANCH   1   2
BRANCH   1  11
HETATM   11  N2  UNL     1      -1.709  13.558  49.059  1.00  0.00    -0.391 N
ATOM     12  H2  UNL     1      -2.625  13.109  49.053  1.00  0.00     0.159 HD
BRANCH  11  13
HETATM   13  C6  UNL     1      -1.241  14.283  50.213  1.00  0.00     0.108 C
HETATM   14  C7  UNL     1      -2.357  14.590  51.190  1.00  0.00     0.054 C
HETATM   15  C8  UNL     1      -1.678  15.683  52.022  1.00  0.00     0.234 C
HETATM   16  N3  UNL     1      -0.764  16.353  51.141  1.00  0.00    -0.073 N
HETATM   17  C9  UNL     1      -0.760  15.674  49.882  1.00  0.00     0.257 C
ATOM     18  H32 UNL     1      -0.970  17.347  51.047  1.00  0.00     0.277 HD
ATOM     19  H31 UNL     1       0.171  16.440  51.540  1.00  0.00     0.277 HD
ENDBRANCH  11  13
ENDBRANCH   1  11
TORSDOF 3
ENDMDL