MODEL 1
REMARK VINA RESULT: -5.441309823      0.000      0.000
REMARK  3 active torsions:
REMARK  status: ('A' for Active; 'I' for Inactive)
REMARK    1  A    between atoms: C2_2  and  N1_3
REMARK       I    between atoms: N1_3  and  C3_5
REMARK       I    between atoms: C3_5  and  N2_7
REMARK    2  A    between atoms: N2_7  and  C4_9
REMARK    3  A    between atoms: N3_10  and  C5_12
ROOT
HETATM    1  C4  UNL     1       0.331  11.716  47.488  1.00  0.00     0.181 C
HETATM    2  N3  UNL     1       0.271  12.274  48.645  1.00  0.00    -0.359 N
ATOM      3  H3  UNL     1       0.956  12.059  49.370  1.00  0.00     0.162 HD
ENDROOT
BRANCH   2   4
HETATM    4  C5  UNL     1      -0.794  13.215  48.887  1.00  0.00     0.285 C
HETATM    5  C6  UNL     1      -0.309  14.662  48.784  1.00  0.00     0.061 C
HETATM    6  C7  UNL     1      -1.486  15.383  49.385  1.00  0.00     0.022 A
HETATM    7  C8  UNL     1      -1.577  15.642  50.839  1.00  0.00     0.040 A
HETATM    8  C9  UNL     1      -2.092  14.344  50.344  1.00  0.00     0.193 A
HETATM    9  N4  UNL     1      -1.225  13.198  50.283  1.00  0.00    -0.050 N
ATOM     10  H42 UNL     1      -1.645  12.322  50.594  1.00  0.00     0.280 HD
ATOM     11  H41 UNL     1      -0.470  13.192  50.967  1.00  0.00     0.280 HD
ENDBRANCH   2   4
BRANCH   1  12
HETATM   12  N2  UNL     1      -0.600  11.991  46.461  1.00  0.00    -0.305 N
HETATM   13  C3  UNL     1      -0.599  11.180  45.303  1.00  0.00     0.321 C
HETATM   14  N1  UNL     1      -1.533  11.451  44.268  1.00  0.00    -0.343 N
HETATM   15  O1  UNL     1       0.222  10.221  45.183  1.00  0.00    -0.247 OA
ATOM     16  H1  UNL     1      -2.193  12.223  44.365  1.00  0.00     0.164 HD
ATOM     17  H2  UNL     1      -1.262  12.761  46.554  1.00  0.00     0.171 HD
BRANCH  14  18
HETATM   18  C2  UNL     1      -1.546  10.623  43.062  1.00  0.00     0.120 C
HETATM   19  C1  UNL     1      -1.049  11.466  41.928  1.00  0.00     0.026 C
ENDBRANCH  14  18
ENDBRANCH   1  12
TORSDOF 3
ENDMDL