MODEL 4
REMARK VINA RESULT: -5.647624149      3.374      3.595
REMARK  2 active torsions:
REMARK  status: ('A' for Active; 'I' for Inactive)
REMARK    1  A    between atoms: C3_3  and  N1_4
REMARK       I    between atoms: N1_4  and  C4_6
REMARK       I    between atoms: C4_6  and  N2_8
REMARK    2  A    between atoms: N2_8  and  C5_10
ROOT
HETATM    1  C1  UNL     1       3.499   9.255  46.768  1.00  0.00     0.014 C
HETATM    2  C2  UNL     1       2.679   9.643  47.567  1.00  0.00    -0.098 C
HETATM    3  C3  UNL     1       1.675  10.101  48.551  1.00  0.00     0.217 C
ENDROOT
BRANCH   3   4
HETATM    4  N1  UNL     1       0.953  11.227  47.986  1.00  0.00    -0.333 N
HETATM    5  C4  UNL     1       0.132  12.075  48.772  1.00  0.00     0.317 C
HETATM    6  O1  UNL     1       0.037  11.827  50.007  1.00  0.00    -0.247 OA
HETATM    7  N2  UNL     1      -0.554  13.157  48.196  1.00  0.00    -0.330 N
ATOM      8  H2  UNL     1      -0.442  13.312  47.193  1.00  0.00     0.165 HD
ATOM      9  H1  UNL     1       1.039  11.415  46.987  1.00  0.00     0.165 HD
BRANCH   7  10
HETATM   10  C5  UNL     1      -1.405  14.062  48.922  1.00  0.00     0.178 C
HETATM   11  C6  UNL     1      -0.563  15.031  49.723  1.00  0.00     0.036 C
HETATM   12  C7  UNL     1      -1.508  15.825  50.602  1.00  0.00     0.022 C
HETATM   13  C8  UNL     1      -1.928  14.907  51.738  1.00  0.00     0.122 C
HETATM   14  N3  UNL     1      -2.603  13.752  51.130  1.00  0.00    -0.359 N
HETATM   15  C9  UNL     1      -2.400  13.405  49.770  1.00  0.00     0.240 C
ATOM     16  H3  UNL     1      -3.232  13.187  51.700  1.00  0.00     0.162 HD
HETATM   17  O2  UNL     1      -3.110  12.490  49.283  1.00  0.00    -0.271 OA
ENDBRANCH   7  10
ENDBRANCH   3   4
TORSDOF 2
ENDMDL