MODEL 2
REMARK VINA RESULT: -6.297733032      1.040      1.657
REMARK  2 active torsions:
REMARK  status: ('A' for Active; 'I' for Inactive)
REMARK    1  A    between atoms: C5_10  and  N3_11
REMARK    2  A    between atoms: N3_11  and  C6_13
ROOT
HETATM    1  C1  UNL     1      -2.415  15.073  52.419  1.00  0.00     0.045 C
HETATM    2  C2  UNL     1      -1.537  15.558  51.557  1.00  0.00     0.055 A
HETATM    3  N1  UNL     1      -0.750  16.632  51.748  1.00  0.00    -0.307 N
ATOM      4  H1  UNL     1      -0.725  17.217  52.584  1.00  0.00     0.170 HD
HETATM    5  C3  UNL     1      -0.011  16.797  50.656  1.00  0.00     0.325 A
HETATM    6  O1  UNL     1       0.844  17.706  50.477  1.00  0.00    -0.247 OA
HETATM    7  N2  UNL     1      -0.339  15.820  49.776  1.00  0.00    -0.305 N
ATOM      8  H2  UNL     1       0.071  15.701  48.850  1.00  0.00     0.171 HD
HETATM    9  C4  UNL     1      -1.284  15.036  50.309  1.00  0.00     0.077 A
HETATM   10  C5  UNL     1      -1.853  13.982  49.751  1.00  0.00     0.115 C
ENDROOT
BRANCH  10  11
HETATM   11  N3  UNL     1      -1.514  13.528  48.449  1.00  0.00    -0.391 N
ATOM     12  H3  UNL     1      -1.995  13.923  47.641  1.00  0.00     0.159 HD
BRANCH  11  13
HETATM   13  C6  UNL     1      -0.486  12.503  48.242  1.00  0.00     0.106 C
HETATM   14  C7  UNL     1      -0.233  11.720  49.505  1.00  0.00     0.028 C
HETATM   15  C8  UNL     1      -0.382  10.237  49.298  1.00  0.00     0.029 C
HETATM   16  C9  UNL     1      -1.704   9.836  48.729  1.00  0.00     0.232 C
HETATM   17  N4  UNL     1      -2.214  10.910  47.891  1.00  0.00    -0.073 N
HETATM   18  C10 UNL     1      -1.065  11.506  47.229  1.00  0.00     0.257 C
ATOM     19  H42 UNL     1      -2.939  10.605  47.241  1.00  0.00     0.277 HD
ATOM     20  H41 UNL     1      -2.779  11.587  48.403  1.00  0.00     0.277 HD
ENDBRANCH  11  13
ENDBRANCH  10  11
TORSDOF 2
ENDMDL