MODEL 5
REMARK VINA RESULT: -6.043533491      1.497      2.517
REMARK  3 active torsions:
REMARK  status: ('A' for Active; 'I' for Inactive)
REMARK    1  A    between atoms: N1_1  and  C1_4
REMARK    2  A    between atoms: N5_14  and  C4_16
REMARK    3  A    between atoms: C4_16  and  C5_17
ROOT
HETATM    1  C1  UNL     1      -0.894  14.640  49.379  1.00  0.00     0.148 A
HETATM    2  N2  UNL     1      -0.716  15.708  50.133  1.00  0.00    -0.291 N
ATOM      3  H2  UNL     1      -0.011  16.403  49.888  1.00  0.00     0.172 HD
HETATM    4  C2  UNL     1      -1.481  15.867  51.235  1.00  0.00     0.340 A
HETATM    5  O1  UNL     1      -1.336  16.875  51.978  1.00  0.00    -0.245 OA
HETATM    6  N3  UNL     1      -2.414  14.979  51.586  1.00  0.00    -0.250 N
ATOM      7  H3  UNL     1      -2.982  15.117  52.422  1.00  0.00     0.192 HD
HETATM    8  N4  UNL     1      -2.578  13.909  50.813  1.00  0.00    -0.279 N
ATOM      9  H4  UNL     1      -3.290  13.230  51.080  1.00  0.00     0.189 HD
HETATM   10  C3  UNL     1      -1.861  13.671  49.700  1.00  0.00     0.160 A
HETATM   11  N5  UNL     1      -2.005  12.641  48.936  1.00  0.00    -0.372 N
ATOM     12  H5  UNL     1      -1.416  12.542  48.110  1.00  0.00     0.161 HD
ENDROOT
BRANCH   1  13
HETATM   13  N1  UNL     1      -0.176  14.477  48.332  1.00  0.00    -0.382 N
ATOM     14  H12 UNL     1      -0.584  14.669  47.417  1.00  0.00     0.157 HD
ATOM     15  H11 UNL     1       0.789  14.159  48.427  1.00  0.00     0.157 HD
ENDBRANCH   1  13
BRANCH  11  16
HETATM   16  C4  UNL     1      -2.973  11.643  49.230  1.00  0.00     0.126 C
BRANCH  16  17
HETATM   17  C5  UNL     1      -2.790  10.347  48.469  1.00  0.00     0.003 C
HETATM   18  C6  UNL     1      -1.618  10.480  47.523  1.00  0.00     0.006 C
HETATM   19  C7  UNL     1      -0.973   9.256  48.129  1.00  0.00     0.001 C
HETATM   20  C8  UNL     1      -1.937   9.361  49.266  1.00  0.00     0.006 C
ENDBRANCH  16  17
ENDBRANCH  11  16
TORSDOF 3
ENDMDL