MODEL 1
REMARK VINA RESULT: -6.575772454      0.000      0.000
REMARK  2 active torsions:
REMARK  status: ('A' for Active; 'I' for Inactive)
REMARK    1  A    between atoms: C3_6  and  C4_7
REMARK    2  A    between atoms: C4_7  and  N2_8
ROOT
HETATM    1  N2  UNL     1      -1.427  14.255  50.464  1.00  0.00    -0.329 N
HETATM    2  C5  UNL     1      -2.315  14.741  51.503  1.00  0.00     0.149 C
HETATM    3  C6  UNL     1      -1.680  15.791  52.356  1.00  0.00     0.159 C
HETATM    4  N3  UNL     1      -0.757  16.650  51.702  1.00  0.00    -0.331 N
ATOM      5  H3  UNL     1      -0.184  17.314  52.224  1.00  0.00     0.180 HD
HETATM    6  N4  UNL     1      -0.670  16.546  50.335  1.00  0.00    -0.256 N
ATOM      7  H4  UNL     1      -0.571  17.382  49.759  1.00  0.00     0.191 HD
HETATM    8  C7  UNL     1      -0.721  15.253  49.728  1.00  0.00     0.336 C
HETATM    9  O2  UNL     1      -0.186  15.002  48.626  1.00  0.00    -0.245 OA
ENDROOT
BRANCH   1  10
HETATM   10  C4  UNL     1      -1.244  12.855  50.164  1.00  0.00     0.154 C
BRANCH  10  11
HETATM   11  C3  UNL     1      -2.497  12.071  50.394  1.00  0.00     0.122 C
HETATM   12  C2  UNL     1      -2.865  11.363  49.094  1.00  0.00     0.151 C
HETATM   13  N1  UNL     1      -3.833  10.396  49.577  1.00  0.00    -0.341 N
HETATM   14  C1  UNL     1      -3.365  10.022  50.870  1.00  0.00     0.316 C
ATOM     15  H1  UNL     1      -4.666  10.058  49.097  1.00  0.00     0.164 HD
HETATM   16  O1  UNL     1      -3.756   9.036  51.559  1.00  0.00    -0.247 OA
HETATM   17  N5  UNL     1      -2.350  10.963  51.284  1.00  0.00    -0.335 N
ATOM     18  H5  UNL     1      -1.677  10.859  52.044  1.00  0.00     0.164 HD
ENDBRANCH  10  11
ENDBRANCH   1  10
TORSDOF 2
ENDMDL