MODEL 2
REMARK VINA RESULT: -6.071726860      1.759      1.962
REMARK  5 active torsions:
REMARK  status: ('A' for Active; 'I' for Inactive)
REMARK    1  A    between atoms: N1_1  and  N2_4
REMARK    2  A    between atoms: N2_4  and  C1_5
REMARK    3  A    between atoms: C1_5  and  C2_6
REMARK    4  A    between atoms: C2_6  and  N3_7
REMARK       I    between atoms: N3_7  and  C3_9
REMARK       I    between atoms: C3_9  and  N5_13
REMARK    5  A    between atoms: N5_13  and  C4_15
ROOT
HETATM    1  N3  UNL     1       0.742  12.026  47.892  1.00  0.00    -0.221 N
ATOM      2  H3  UNL     1       1.516  12.202  48.533  1.00  0.00     0.178 HD
HETATM    3  C3  UNL     1      -0.336  12.996  47.830  1.00  0.00     0.668 C
HETATM    4  N4  UNL     1      -1.346  12.628  47.170  1.00  0.00    -0.235 N
ATOM      5  H41 UNL     1      -2.104  13.310  47.126  1.00  0.00     0.174 HD
ATOM      6  H42 UNL     1      -1.476  11.740  46.685  1.00  0.00     0.174 HD
HETATM    7  N5  UNL     1      -0.158  14.215  48.497  1.00  0.00    -0.213 N
ATOM      8  H5  UNL     1       0.726  14.705  48.358  1.00  0.00     0.178 HD
ENDROOT
BRANCH   1   9
HETATM    9  C2  UNL     1       0.773  10.841  47.104  1.00  0.00     0.199 C
BRANCH   9  10
HETATM   10  C1  UNL     1       1.700   9.788  47.622  1.00  0.00     0.201 C
BRANCH  10  11
HETATM   11  N2  UNL     1       2.826   9.602  47.087  1.00  0.00    -0.348 NA
BRANCH  11  12
HETATM   12  N1  UNL     1       3.873   9.191  46.601  1.00  0.00    -0.281 N
ATOM     13  H12 UNL     1       3.779   8.328  47.138  1.00  0.00     0.191 HD
ATOM     14  H11 UNL     1       4.746   9.021  46.101  1.00  0.00     0.191 HD
ENDBRANCH  11  12
ENDBRANCH  10  11
ENDBRANCH   9  10
ENDBRANCH   1   9
BRANCH   7  15
HETATM   15  C4  UNL     1      -1.109  14.816  49.344  1.00  0.00     0.193 C
HETATM   16  C5  UNL     1      -1.475  13.915  50.539  1.00  0.00     0.055 C
HETATM   17  C6  UNL     1      -2.268  14.914  51.379  1.00  0.00     0.125 C
HETATM   18  N6  UNL     1      -1.604  16.185  51.118  1.00  0.00    -0.359 N
HETATM   19  C7  UNL     1      -0.543  15.956  50.160  1.00  0.00     0.241 C
ATOM     20  H6  UNL     1      -1.846  17.083  51.539  1.00  0.00     0.162 HD
HETATM   21  O1  UNL     1       0.520  16.571  50.095  1.00  0.00    -0.271 OA
ENDBRANCH   7  15
TORSDOF 5
ENDMDL