MODEL 2
REMARK VINA RESULT: -5.982018505      0.811      1.486
REMARK  3 active torsions:
REMARK  status: ('A' for Active; 'I' for Inactive)
REMARK    1  A    between atoms: C3_5  and  C4_6
REMARK    2  A    between atoms: C4_6  and  C5_7
REMARK    3  A    between atoms: C5_7  and  C6_8
ROOT
HETATM    1  C1  UNL     1      -0.190  10.130  45.267  1.00  0.00     0.049 C
HETATM    2  C2  UNL     1      -0.218  11.021  46.241  1.00  0.00     0.093 A
HETATM    3  N1  UNL     1      -1.175  11.897  46.585  1.00  0.00    -0.339 N
ATOM      4  H1  UNL     1      -2.067  11.992  46.099  1.00  0.00     0.167 HD
HETATM    5  C3  UNL     1      -0.810  12.635  47.649  1.00  0.00     0.104 A
HETATM    6  N3  UNL     1       0.426  12.205  47.989  1.00  0.00    -0.308 N
ATOM      7  H3  UNL     1       0.986  12.565  48.761  1.00  0.00     0.170 HD
HETATM    8  C10 UNL     1       0.797  11.229  47.146  1.00  0.00     0.273 A
HETATM    9  O1  UNL     1       1.902  10.625  47.206  1.00  0.00    -0.266 OA
ENDROOT
BRANCH   5  10
HETATM   10  C4  UNL     1      -1.534  13.582  48.224  1.00  0.00     0.024 C
BRANCH  10  11
HETATM   11  C5  UNL     1      -0.896  14.805  48.702  1.00  0.00     0.064 C
BRANCH  11  12
HETATM   12  C6  UNL     1      -0.981  15.028  50.176  1.00  0.00     0.189 C
HETATM   13  C7  UNL     1      -2.138  14.331  50.836  1.00  0.00     0.035 C
HETATM   14  C8  UNL     1      -2.148  15.012  52.210  1.00  0.00     0.029 C
HETATM   15  C9  UNL     1      -1.382  16.309  51.978  1.00  0.00     0.233 C
HETATM   16  N2  UNL     1      -1.209  16.409  50.533  1.00  0.00    -0.071 N
ATOM     17  H22 UNL     1      -0.489  17.064  50.225  1.00  0.00     0.277 HD
ATOM     18  H21 UNL     1      -1.971  16.869  50.033  1.00  0.00     0.277 HD
ENDBRANCH  11  12
ENDBRANCH  10  11
ENDBRANCH   5  10
TORSDOF 3
ENDMDL