MODEL 4
REMARK VINA RESULT: -5.680727765      1.714      6.186
REMARK  2 active torsions:
REMARK  status: ('A' for Active; 'I' for Inactive)
REMARK    1  A    between atoms: C3_3  and  N1_4
REMARK    2  A    between atoms: N2_7  and  N3_8
REMARK       I    between atoms: N3_8  and  C6_10
REMARK       I    between atoms: C6_10  and  N5_14
ROOT
HETATM    1  C1  UNL     1      -1.745  15.637  52.586  1.00  0.00     0.014 C
HETATM    2  C2  UNL     1      -1.671  15.630  51.383  1.00  0.00    -0.098 C
HETATM    3  C3  UNL     1      -1.554  15.619  49.900  1.00  0.00     0.221 C
ENDROOT
BRANCH   3   4
HETATM    4  N1  UNL     1      -1.699  14.273  49.396  1.00  0.00    -0.321 N
HETATM    5  C4  UNL     1      -2.534  13.284  50.043  1.00  0.00     0.150 C
HETATM    6  C5  UNL     1      -2.618  12.109  49.096  1.00  0.00     0.174 C
HETATM    7  N2  UNL     1      -1.626  12.333  48.069  1.00  0.00    -0.227 N
HETATM    8  C9  UNL     1      -1.108  13.658  48.240  1.00  0.00     0.340 C
HETATM    9  O1  UNL     1      -0.262  14.230  47.505  1.00  0.00    -0.245 OA
BRANCH   7  10
HETATM   10  N3  UNL     1      -1.279  11.398  47.106  1.00  0.00    -0.126 N
HETATM   11  C6  UNL     1      -0.455  10.275  47.287  1.00  0.00     0.698 C
HETATM   12  N4  UNL     1      -0.527   9.404  48.207  1.00  0.00    -0.233 N
HETATM   13  N5  UNL     1       0.595  10.082  46.319  1.00  0.00    -0.148 N
ATOM     14  H42 UNL     1      -1.270   9.540  48.892  1.00  0.00     0.174 HD
ATOM     15  H41 UNL     1       0.071   8.588  48.339  1.00  0.00     0.174 HD
HETATM   16  C7  UNL     1       1.878   9.749  46.762  1.00  0.00     0.015 C
ATOM     17  H5  UNL     1       0.404  10.187  45.323  1.00  0.00     0.195 HD
HETATM   18  C8  UNL     1       2.999   9.464  47.137  1.00  0.00     0.037 C
ATOM     19  H3  UNL     1      -1.661  11.540  46.170  1.00  0.00     0.206 HD
ENDBRANCH   7  10
ENDBRANCH   3   4
TORSDOF 2
ENDMDL