MODEL 5
REMARK VINA RESULT: -6.166491935      1.377      4.723
REMARK  2 active torsions:
REMARK  status: ('A' for Active; 'I' for Inactive)
REMARK    1  A    between atoms: C3_6  and  C4_7
REMARK    2  A    between atoms: C4_7  and  N2_8
ROOT
HETATM    1  C4  UNL     1      -2.648  12.836  49.371  1.00  0.00     0.154 C
ENDROOT
BRANCH   1   2
HETATM    2  C3  UNL     1      -1.646  11.774  49.087  1.00  0.00     0.122 C
HETATM    3  C2  UNL     1      -0.243  12.056  49.496  1.00  0.00     0.151 C
HETATM    4  N1  UNL     1       0.428  12.425  48.250  1.00  0.00    -0.341 N
HETATM    5  C1  UNL     1      -0.357  11.881  47.168  1.00  0.00     0.316 C
ATOM      6  H1  UNL     1       1.289  12.966  48.161  1.00  0.00     0.164 HD
HETATM    7  O1  UNL     1       0.098  11.817  45.994  1.00  0.00    -0.247 OA
HETATM    8  N4  UNL     1      -1.617  11.480  47.667  1.00  0.00    -0.335 N
ATOM      9  H4  UNL     1      -2.372  11.059  47.125  1.00  0.00     0.164 HD
ENDBRANCH   1   2
BRANCH   1  10
HETATM   10  N2  UNL     1      -2.170  14.026  49.974  1.00  0.00    -0.326 N
HETATM   11  C5  UNL     1      -2.413  14.451  51.355  1.00  0.00     0.253 C
HETATM   12  N3  UNL     1      -1.279  15.313  51.668  1.00  0.00    -0.337 N
HETATM   13  C6  UNL     1      -0.813  15.830  50.450  1.00  0.00     0.310 C
ATOM     14  H3  UNL     1      -0.897  15.504  52.595  1.00  0.00     0.164 HD
HETATM   15  O2  UNL     1      -0.045  16.820  50.331  1.00  0.00    -0.262 OA
HETATM   16  C7  UNL     1      -1.368  15.026  49.377  1.00  0.00     0.312 C
HETATM   17  O3  UNL     1      -1.158  15.209  48.129  1.00  0.00    -0.262 OA
ENDBRANCH   1  10
TORSDOF 2
ENDMDL