MODEL 3
REMARK VINA RESULT: -7.123407558      3.665      5.519
REMARK  5 active torsions:
REMARK  status: ('A' for Active; 'I' for Inactive)
REMARK    1  A    between atoms: C2_2  and  N1_3
REMARK    2  A    between atoms: C2_2  and  C3_7
REMARK    3  A    between atoms: C2_2  and  N5_20
REMARK    4  A    between atoms: C3_7  and  N2_8
REMARK       I    between atoms: N2_8  and  C4_11
REMARK       I    between atoms: C4_11  and  N3_12
REMARK       I    between atoms: C4_11  and  N4_16
REMARK       I    between atoms: N5_20  and  C5_22
REMARK       I    between atoms: C5_22  and  N7_26
REMARK    5  A    between atoms: N7_26  and  N8_28
ROOT
HETATM    1  C1  UNL     1       6.322   2.887  -0.459  1.00  0.00     0.073 C
HETATM    2  C2  UNL     1       7.171   2.833  -1.717  1.00  0.00     0.230 C
ENDROOT
BRANCH   2   3
HETATM    3  N1  UNL     1       8.341   1.997  -1.419  1.00  0.00    -0.051 N
ATOM      4  H13 UNL     1       8.515   1.898  -0.419  1.00  0.00     0.277 HD
ATOM      5  H12 UNL     1       8.189   1.010  -1.625  1.00  0.00     0.277 HD
ATOM      6  H11 UNL     1       9.133   2.393  -1.925  1.00  0.00     0.277 HD
ENDBRANCH   2   3
BRANCH   2   7
HETATM    7  C3  UNL     1       6.366   2.187  -2.805  1.00  0.00     0.298 C
BRANCH   7   8
HETATM    8  N2  UNL     1       4.943   2.215  -2.515  1.00  0.00    -0.018 N
HETATM    9  C4  UNL     1       4.147   2.276  -3.715  1.00  0.00     0.575 C
HETATM   10  N3  UNL     1       4.479   3.471  -4.451  1.00  0.00    -0.026 N
HETATM   11  N4  UNL     1       2.759   2.347  -3.351  1.00  0.00    -0.026 N
ATOM     12  H33 UNL     1       4.385   4.313  -3.883  1.00  0.00     0.278 HD
ATOM     13  H32 UNL     1       5.479   3.538  -4.647  1.00  0.00     0.278 HD
ATOM     14  H31 UNL     1       3.916   3.514  -5.301  1.00  0.00     0.278 HD
ATOM     15  H43 UNL     1       2.479   1.582  -2.738  1.00  0.00     0.278 HD
ATOM     16  H42 UNL     1       2.563   3.120  -2.715  1.00  0.00     0.278 HD
ATOM     17  H41 UNL     1       2.196   2.390  -4.201  1.00  0.00     0.278 HD
ATOM     18  H22 UNL     1       4.670   1.426  -1.929  1.00  0.00     0.281 HD
ATOM     19  H21 UNL     1       4.710   2.976  -1.878  1.00  0.00     0.281 HD
ENDBRANCH   7   8
ENDBRANCH   2   7
BRANCH   2  20
HETATM   20  N5  UNL     1       7.632   4.155  -2.064  1.00  0.00    -0.189 N
HETATM   21  C5  UNL     1       6.950   5.328  -1.652  1.00  0.00     0.693 C
HETATM   22  N6  UNL     1       7.581   6.116  -0.841  1.00  0.00    -0.233 N
HETATM   23  N7  UNL     1       5.650   5.618  -2.107  1.00  0.00    -0.072 N
ATOM     24  H62 UNL     1       8.523   5.906  -0.511  1.00  0.00     0.174 HD
ATOM     25  H61 UNL     1       7.091   6.960  -0.544  1.00  0.00     0.174 HD
ATOM     26  H7  UNL     1       5.305   5.173  -2.958  1.00  0.00     0.212 HD
ATOM     27  H5  UNL     1       8.478   4.250  -2.626  1.00  0.00     0.180 HD
BRANCH  23  28
HETATM   28  N8  UNL     1       4.826   6.502  -1.416  1.00  0.00    -0.024 N
HETATM   29  O1  UNL     1       4.829   6.508  -0.176  1.00  0.00    -0.516 OA
HETATM   30  O2  UNL     1       4.026   7.351  -2.131  1.00  0.00    -0.516 OA
ENDBRANCH  23  28
ENDBRANCH   2  20
TORSDOF 5
ENDMDL