MODEL 3
REMARK VINA RESULT: -6.261294055      0.993      1.793
REMARK  9 active torsions:
REMARK  status: ('A' for Active; 'I' for Inactive)
REMARK    1  A    between atoms: N1_1  and  C1_4
REMARK    2  A    between atoms: C2_5  and  C3_6
REMARK    3  A    between atoms: C3_6  and  O1_7
REMARK    4  A    between atoms: C3_6  and  N2_9
REMARK    5  A    between atoms: N2_9  and  C4_11
REMARK    6  A    between atoms: C4_11  and  C5_12
REMARK    7  A    between atoms: C5_12  and  C6_13
REMARK    8  A    between atoms: C6_13  and  N3_14
REMARK    9  A    between atoms: N6_22  and  N7_23
ROOT
HETATM    1  C1  UNL     1       6.025   6.504  -0.873  1.00  0.00     0.172 A
HETATM    2  C2  UNL     1       5.333   5.681  -1.700  1.00  0.00     0.147 A
HETATM    3  N4  UNL     1       4.149   6.321  -1.966  1.00  0.00    -0.277 N
ATOM      4  H4  UNL     1       3.406   5.957  -2.563  1.00  0.00     0.189 HD
HETATM    5  N5  UNL     1       4.116   7.454  -1.344  1.00  0.00    -0.219 N
ATOM      6  H5  UNL     1       3.346   8.122  -1.373  1.00  0.00     0.210 HD
HETATM    7  N6  UNL     1       5.227   7.607  -0.672  1.00  0.00    -0.170 N
ENDROOT
BRANCH   2   8
HETATM    8  C3  UNL     1       5.720   4.392  -2.223  1.00  0.00     0.168 C
BRANCH   8   9
HETATM    9  O1  UNL     1       4.810   3.459  -2.187  1.00  0.00    -0.344 OA
ATOM     10  H1  UNL     1       3.928   3.723  -2.422  1.00  0.00     0.219 HD
ENDBRANCH   8   9
BRANCH   8  11
HETATM   11  N2  UNL     1       6.937   3.993  -2.764  1.00  0.00    -0.369 N
ATOM     12  H2  UNL     1       7.741   4.622  -2.736  1.00  0.00     0.161 HD
BRANCH  11  13
HETATM   13  C4  UNL     1       7.063   2.663  -3.377  1.00  0.00     0.123 C
BRANCH  13  14
HETATM   14  C5  UNL     1       7.852   1.742  -2.491  1.00  0.00     0.047 C
BRANCH  14  15
HETATM   15  C6  UNL     1       8.913   2.467  -1.718  1.00  0.00     0.231 C
BRANCH  15  16
HETATM   16  N3  UNL     1       8.750   2.098  -0.309  1.00  0.00    -0.079 N
ATOM     17  H33 UNL     1       9.082   1.157  -0.101  1.00  0.00     0.274 HD
ATOM     18  H32 UNL     1       9.385   2.600   0.312  1.00  0.00     0.274 HD
ATOM     19  H31 UNL     1       7.767   2.237  -0.074  1.00  0.00     0.274 HD
ENDBRANCH  15  16
ENDBRANCH  14  15
ENDBRANCH  13  14
ENDBRANCH  11  13
ENDBRANCH   8  11
ENDBRANCH   2   8
BRANCH   1  20
HETATM   20  N1  UNL     1       7.161   6.416  -0.323  1.00  0.00    -0.381 N
ATOM     21  H12 UNL     1       7.510   5.520   0.018  1.00  0.00     0.157 HD
ATOM     22  H11 UNL     1       7.888   7.102  -0.117  1.00  0.00     0.157 HD
ENDBRANCH   1  20
BRANCH   7  23
HETATM   23  N7  UNL     1       5.586   8.684   0.123  1.00  0.00    -0.321 N
ATOM     24  H72 UNL     1       5.045   9.533   0.296  1.00  0.00     0.179 HD
ATOM     25  H71 UNL     1       6.464   8.741   0.638  1.00  0.00     0.179 HD
ENDBRANCH   7  23
TORSDOF 9
ENDMDL