MODEL 5
REMARK VINA RESULT: -7.933810447      2.436      5.591
REMARK  5 active torsions:
REMARK  status: ('A' for Active; 'I' for Inactive)
REMARK    1  A    between atoms: C3_8  and  N4_9
REMARK    2  A    between atoms: N4_9  and  N5_11
REMARK    3  A    between atoms: N5_11  and  N6_12
REMARK    4  A    between atoms: N6_12  and  C4_13
REMARK    5  A    between atoms: C4_13  and  C5_14
ROOT
HETATM    1  N1  UNL     1       5.823   8.952   1.164  1.00  0.00    -0.190 NA
HETATM    2  C1  UNL     1       5.588   8.206   0.291  1.00  0.00     0.121 C
HETATM    3  C2  UNL     1       5.282   7.281  -0.769  1.00  0.00     0.156 A
HETATM    4  N2  UNL     1       4.090   7.074  -1.369  1.00  0.00    -0.287 N
ATOM      5  H2  UNL     1       3.229   7.566  -1.135  1.00  0.00     0.188 HD
HETATM    6  N3  UNL     1       4.195   6.148  -2.299  1.00  0.00    -0.282 N
ATOM      7  H3  UNL     1       3.425   5.825  -2.885  1.00  0.00     0.188 HD
HETATM    8  C3  UNL     1       5.452   5.689  -2.370  1.00  0.00     0.160 A
HETATM    9  C6  UNL     1       6.157   6.395  -1.408  1.00  0.00     0.131 A
HETATM   10  N8  UNL     1       7.530   6.273  -1.092  1.00  0.00    -0.095 NA
ENDROOT
BRANCH   8  11
HETATM   11  N4  UNL     1       6.015   4.691  -3.227  1.00  0.00    -0.270 N
ATOM     12  H4  UNL     1       6.677   4.951  -3.958  1.00  0.00     0.185 HD
BRANCH  11  13
HETATM   13  N5  UNL     1       5.649   3.364  -3.052  1.00  0.00    -0.029 NA
BRANCH  13  14
HETATM   14  N6  UNL     1       5.328   3.100  -1.716  1.00  0.00    -0.117 NA
BRANCH  14  15
HETATM   15  C4  UNL     1       6.443   2.400  -1.078  1.00  0.00     0.231 C
BRANCH  15  16
HETATM   16  C5  UNL     1       6.850   3.090   0.175  1.00  0.00     0.247 C
HETATM   17  N7  UNL     1       8.193   3.215   0.562  1.00  0.00    -0.061 NA
HETATM   18  O1  UNL     1       5.954   3.584   0.915  1.00  0.00    -0.275 OA
ENDBRANCH  15  16
ENDBRANCH  14  15
ENDBRANCH  13  14
ENDBRANCH  11  13
ENDBRANCH   8  11
TORSDOF 5
ENDMDL