MODEL 3
REMARK VINA RESULT: -6.694270818      1.837      2.278
REMARK  7 active torsions:
REMARK  status: ('A' for Active; 'I' for Inactive)
REMARK    1  A    between atoms: C1_4  and  C2_5
REMARK    2  A    between atoms: C2_5  and  N2_6
REMARK    3  A    between atoms: C2_5  and  C3_10
REMARK    4  A    between atoms: C2_5  and  C4_15
REMARK    5  A    between atoms: C3_10  and  N3_11
REMARK    6  A    between atoms: C4_15  and  N4_16
REMARK    7  A    between atoms: C6_20  and  N6_21
ROOT
HETATM    1  C2  UNL     1       7.337   3.350  -1.565  1.00  0.00     0.194 C
ENDROOT
BRANCH   1   2
HETATM    2  C1  UNL     1       7.723   2.456  -0.443  1.00  0.00     0.095 C
HETATM    3  N1  UNL     1       8.287   2.836   0.615  1.00  0.00    -0.409 N
ATOM      4  H12 UNL     1       8.485   3.833   0.693  1.00  0.00     0.155 HD
ATOM      5  H11 UNL     1       8.552   2.222   1.386  1.00  0.00     0.155 HD
ENDBRANCH   1   2
BRANCH   1   6
HETATM    6  N2  UNL     1       8.254   4.502  -1.561  1.00  0.00    -0.062 N
ATOM      7  H23 UNL     1       8.010   5.200  -0.858  1.00  0.00     0.275 HD
ATOM      8  H22 UNL     1       9.181   4.269  -1.204  1.00  0.00     0.275 HD
ATOM      9  H21 UNL     1       8.279   4.886  -2.506  1.00  0.00     0.275 HD
ENDBRANCH   1   6
BRANCH   1  10
HETATM   10  C3  UNL     1       7.558   2.597  -2.848  1.00  0.00     0.275 C
BRANCH  10  11
HETATM   11  N3  UNL     1       8.256   1.347  -2.654  1.00  0.00    -0.076 N
ATOM     12  H33 UNL     1       9.064   1.473  -2.045  1.00  0.00     0.274 HD
ATOM     13  H32 UNL     1       7.708   0.710  -2.075  1.00  0.00     0.274 HD
ATOM     14  H31 UNL     1       8.526   0.903  -3.531  1.00  0.00     0.274 HD
ENDBRANCH  10  11
ENDBRANCH   1  10
BRANCH   1  15
HETATM   15  C4  UNL     1       5.939   3.839  -1.404  1.00  0.00     0.180 C
BRANCH  15  16
HETATM   16  N4  UNL     1       5.822   5.171  -0.851  1.00  0.00    -0.292 N
HETATM   17  C5  UNL     1       5.772   6.260  -1.675  1.00  0.00     0.205 A
HETATM   18  N5  UNL     1       5.672   7.515  -1.208  1.00  0.00    -0.188 N
HETATM   19  C6  UNL     1       5.614   7.759   0.111  1.00  0.00     0.680 A
ATOM     20  H5  UNL     1       5.638   8.295  -1.865  1.00  0.00     0.185 HD
HETATM   21  N7  UNL     1       5.661   6.702   0.937  1.00  0.00    -0.141 N
HETATM   22  C7  UNL     1       5.763   5.445   0.464  1.00  0.00     0.341 A
ATOM     23  H7  UNL     1       5.619   6.853   1.944  1.00  0.00     0.189 HD
HETATM   24  O1  UNL     1       5.801   4.498   1.289  1.00  0.00    -0.246 OA
BRANCH  19  25
HETATM   25  N6  UNL     1       5.517   8.972   0.581  1.00  0.00    -0.234 N
ATOM     26  H62 UNL     1       4.800   9.610   0.238  1.00  0.00     0.174 HD
ATOM     27  H61 UNL     1       6.149   9.321   1.301  1.00  0.00     0.174 HD
ENDBRANCH  19  25
ENDBRANCH  15  16
ENDBRANCH   1  15
TORSDOF 7
ENDMDL