MODEL 4
REMARK VINA RESULT: -6.504840423      1.671      5.020
REMARK  6 active torsions:
REMARK  status: ('A' for Active; 'I' for Inactive)
REMARK    1  A    between atoms: C1_1  and  C2_2
REMARK    2  A    between atoms: C1_1  and  C6_12
REMARK    3  A    between atoms: C2_2  and  N1_3
REMARK    4  A    between atoms: N1_3  and  C3_5
REMARK    5  A    between atoms: C6_12  and  N4_13
REMARK    6  A    between atoms: N4_13  and  C7_16
ROOT
HETATM    1  C1  UNL     1       6.218   4.293  -3.662  1.00  0.00     0.047 C
ENDROOT
BRANCH   1   2
HETATM    2  C2  UNL     1       4.857   4.412  -2.989  1.00  0.00     0.124 C
BRANCH   2   3
HETATM    3  N1  UNL     1       4.530   5.808  -2.775  1.00  0.00    -0.362 N
ATOM      4  H1  UNL     1       4.046   6.362  -3.482  1.00  0.00     0.162 HD
BRANCH   3   5
HETATM    5  C3  UNL     1       4.928   6.372  -1.507  1.00  0.00     0.171 C
HETATM    6  N2  UNL     1       5.673   5.844  -0.616  1.00  0.00    -0.361 N
HETATM    7  C4  UNL     1       5.876   6.672   0.537  1.00  0.00     0.142 C
ATOM      8  H2  UNL     1       6.086   4.916  -0.715  1.00  0.00     0.162 HD
HETATM    9  C5  UNL     1       5.386   8.020   0.057  1.00  0.00     0.142 C
HETATM   10  N3  UNL     1       4.529   7.651  -1.053  1.00  0.00    -0.361 N
ATOM     11  H3  UNL     1       3.771   8.214  -1.440  1.00  0.00     0.162 HD
ENDBRANCH   3   5
ENDBRANCH   2   3
ENDBRANCH   1   2
BRANCH   1  12
HETATM   12  C6  UNL     1       6.872   2.960  -3.284  1.00  0.00     0.238 C
BRANCH  12  13
HETATM   13  N4  UNL     1       7.430   3.115  -1.949  1.00  0.00    -0.030 N
ATOM     14  H42 UNL     1       8.449   3.149  -1.975  1.00  0.00     0.281 HD
ATOM     15  H41 UNL     1       7.247   4.046  -1.577  1.00  0.00     0.281 HD
BRANCH  13  16
HETATM   16  C7  UNL     1       6.961   2.088  -1.050  1.00  0.00     0.493 C
HETATM   17  N5  UNL     1       7.948   1.991   0.025  1.00  0.00    -0.016 N
HETATM   18  C8  UNL     1       7.684   3.266   0.709  1.00  0.00     0.366 C
ATOM     19  H52 UNL     1       7.899   1.153   0.604  1.00  0.00     0.282 HD
ATOM     20  H51 UNL     1       8.912   1.830  -0.265  1.00  0.00     0.282 HD
HETATM   21  N6  UNL     1       6.233   3.220   0.798  1.00  0.00    -0.117 NA
HETATM   22  N7  UNL     1       5.792   2.578  -0.359  1.00  0.00    -0.086 NA
ENDBRANCH  13  16
ENDBRANCH  12  13
ENDBRANCH   1  12
TORSDOF 6
ENDMDL