MODEL 4
REMARK VINA RESULT: -7.220848563      1.830      2.418
REMARK  6 active torsions:
REMARK  status: ('A' for Active; 'I' for Inactive)
REMARK    1  A    between atoms: C2_2  and  O1_3
REMARK    2  A    between atoms: C2_2  and  O2_5
REMARK    3  A    between atoms: C2_2  and  C3_7
REMARK    4  A    between atoms: C3_7  and  S1_8
REMARK    5  A    between atoms: S1_8  and  C4_9
REMARK    6  A    between atoms: C4_9  and  C5_10
ROOT
HETATM    1  C4  UNL     1       6.424   5.875  -1.142  1.00  0.00     0.261 C
HETATM    2  N2  UNL     1       7.766   6.331  -1.266  1.00  0.00    -0.078 NA
HETATM    3  N3  UNL     1       7.997   6.530  -2.621  1.00  0.00    -0.018 NA
HETATM    4  N4  UNL     1       7.036   5.816  -3.328  1.00  0.00    -0.018 NA
HETATM    5  N5  UNL     1       6.213   5.163  -2.406  1.00  0.00    -0.078 NA
ENDROOT
BRANCH   1   6
HETATM    6  S1  UNL     1       6.123   4.724   0.181  1.00  0.00    -0.108 SA
BRANCH   6   7
HETATM    7  C3  UNL     1       7.594   3.824   0.710  1.00  0.00     0.145 C
BRANCH   7   8
HETATM    8  C2  UNL     1       8.070   2.916  -0.415  1.00  0.00     0.164 C
HETATM    9  C1  UNL     1       6.964   2.032  -0.932  1.00  0.00     0.079 C
BRANCH   8  10
HETATM   10  O1  UNL     1       8.617   3.671  -1.459  1.00  0.00    -0.365 OA
ATOM     11  H1  UNL     1       9.546   3.806  -1.316  1.00  0.00     0.213 HD
ENDBRANCH   8  10
BRANCH   8  12
HETATM   12  O2  UNL     1       9.059   2.061   0.113  1.00  0.00    -0.365 OA
ATOM     13  H2  UNL     1       9.505   1.668  -0.628  1.00  0.00     0.213 HD
ENDBRANCH   8  12
ENDBRANCH   7   8
ENDBRANCH   6   7
ENDBRANCH   1   6
BRANCH   1  14
HETATM   14  C5  UNL     1       5.509   7.042  -1.150  1.00  0.00     0.285 C
HETATM   15  N1  UNL     1       4.304   7.019  -1.885  1.00  0.00    -0.058 NA
HETATM   16  O3  UNL     1       5.781   8.079  -0.502  1.00  0.00    -0.272 OA
ENDBRANCH   1  14
TORSDOF 6
ENDMDL