MODEL 2
REMARK VINA RESULT: -6.080551169      2.044      5.071
REMARK  9 active torsions:
REMARK  status: ('A' for Active; 'I' for Inactive)
REMARK    1  A    between atoms: N1_1  and  N2_4
REMARK    2  A    between atoms: N2_4  and  N3_5
REMARK    3  A    between atoms: C2_12  and  N6_13
REMARK    4  A    between atoms: N7_16  and  C3_17
REMARK    5  A    between atoms: C3_17  and  C4_18
REMARK    6  A    between atoms: C4_18  and  C5_19
REMARK    7  A    between atoms: C5_19  and  C6_20
REMARK    8  A    between atoms: C6_20  and  C7_21
REMARK    9  A    between atoms: C7_21  and  N8_22
ROOT
HETATM    1  N3  UNL     1       7.786   3.954  -1.269  1.00  0.00     0.012 N
HETATM    2  C1  UNL     1       8.275   2.710  -1.339  1.00  0.00     0.726 A
HETATM    3  N4  UNL     1       8.996   2.013  -0.548  1.00  0.00    -0.231 N
ATOM      4  H41 UNL     1       9.369   1.065  -0.601  1.00  0.00     0.174 HD
ATOM      5  H42 UNL     1       9.300   2.419   0.336  1.00  0.00     0.174 HD
HETATM    6  N5  UNL     1       7.863   2.161  -2.537  1.00  0.00    -0.019 N
ATOM      7  H5  UNL     1       8.066   1.227  -2.894  1.00  0.00     0.203 HD
HETATM    8  C2  UNL     1       7.140   3.116  -3.128  1.00  0.00     0.709 A
HETATM    9  N7  UNL     1       7.072   4.213  -2.391  1.00  0.00    -0.089 N
ENDROOT
BRANCH   9  10
HETATM   10  C3  UNL     1       6.384   5.472  -2.682  1.00  0.00     0.170 C
BRANCH  10  11
HETATM   11  C4  UNL     1       4.949   5.435  -2.287  1.00  0.00     0.022 C
BRANCH  11  12
HETATM   12  C5  UNL     1       4.556   6.748  -1.651  1.00  0.00     0.003 C
BRANCH  12  13
HETATM   13  C6  UNL     1       5.713   7.511  -1.064  1.00  0.00     0.027 C
BRANCH  13  14
HETATM   14  C7  UNL     1       5.464   7.649   0.424  1.00  0.00     0.229 C
BRANCH  14  15
HETATM   15  N8  UNL     1       5.556   9.039   0.821  1.00  0.00    -0.079 N
ATOM     16  H83 UNL     1       6.411   9.229   1.345  1.00  0.00     0.274 HD
ATOM     17  H82 UNL     1       5.728   9.653   0.024  1.00  0.00     0.274 HD
ATOM     18  H81 UNL     1       4.722   9.315   1.340  1.00  0.00     0.274 HD
ENDBRANCH  14  15
ENDBRANCH  13  14
ENDBRANCH  12  13
ENDBRANCH  11  12
ENDBRANCH  10  11
ENDBRANCH   9  10
BRANCH   1  19
HETATM   19  N2  UNL     1       7.925   4.897  -0.271  1.00  0.00     0.010 NA
BRANCH  19  20
HETATM   20  N1  UNL     1       7.218   4.565   0.855  1.00  0.00    -0.326 N
ATOM     21  H12 UNL     1       7.257   3.641   1.285  1.00  0.00     0.174 HD
ATOM     22  H11 UNL     1       6.657   5.344   1.200  1.00  0.00     0.174 HD
ENDBRANCH  19  20
ENDBRANCH   1  19
BRANCH   8  23
HETATM   23  N6  UNL     1       6.567   2.995  -4.288  1.00  0.00    -0.233 N
ATOM     24  H62 UNL     1       6.016   2.181  -4.561  1.00  0.00     0.174 HD
ATOM     25  H61 UNL     1       6.613   3.693  -5.030  1.00  0.00     0.174 HD
ENDBRANCH   8  23
TORSDOF 9
ENDMDL