MODEL 5
REMARK VINA RESULT: -6.158593235      1.991      2.227
REMARK  6 active torsions:
REMARK  status: ('A' for Active; 'I' for Inactive)
REMARK       I    between atoms: C2_2  and  N1_4
REMARK    1  A    between atoms: N1_4  and  C3_6
REMARK    2  A    between atoms: C3_6  and  N2_7
REMARK    3  A    between atoms: C6_16  and  N5_17
REMARK    4  A    between atoms: N5_17  and  C7_20
REMARK    5  A    between atoms: C7_20  and  O2_21
REMARK    6  A    between atoms: O2_21  and  N6_22
ROOT
HETATM    1  C3  UNL     1       7.321   2.354  -2.119  1.00  0.00     0.283 C
HETATM    2  C4  UNL     1       8.635   1.824  -2.541  1.00  0.00     0.148 C
HETATM    3  N3  UNL     1       8.821   1.186  -3.819  1.00  0.00    -0.083 NA
HETATM    4  N4  UNL     1       9.481   2.032  -1.620  1.00  0.00    -0.376 N
ATOM      5  H4  UNL     1      10.462   1.757  -1.674  1.00  0.00     0.160 HD
HETATM    6  C5  UNL     1       8.889   2.708  -0.483  1.00  0.00     0.159 C
HETATM    7  C6  UNL     1       7.641   3.391  -1.115  1.00  0.00     0.269 C
ENDROOT
BRANCH   1   8
HETATM    8  N1  UNL     1       6.514   2.684  -3.231  1.00  0.00    -0.321 N
HETATM    9  C2  UNL     1       5.145   2.900  -3.307  1.00  0.00     0.215 C
HETATM   10  C1  UNL     1       4.495   3.232  -4.613  1.00  0.00     0.117 C
HETATM   11  O1  UNL     1       4.401   2.832  -2.313  1.00  0.00    -0.274 OA
ATOM     12  H1  UNL     1       7.015   2.779  -4.115  1.00  0.00     0.165 HD
ENDBRANCH   1   8
BRANCH   1  13
HETATM   13  N2  UNL     1       6.719   1.226  -1.355  1.00  0.00    -0.043 N
ATOM     14  H23 UNL     1       5.890   0.854  -1.818  1.00  0.00     0.278 HD
ATOM     15  H22 UNL     1       7.302   0.389  -1.393  1.00  0.00     0.278 HD
ATOM     16  H21 UNL     1       6.523   1.509  -0.396  1.00  0.00     0.278 HD
ENDBRANCH   1  13
BRANCH   7  17
HETATM   17  N5  UNL     1       8.045   4.674  -1.579  1.00  0.00    -0.042 N
ATOM     18  H52 UNL     1       8.981   4.924  -1.262  1.00  0.00     0.280 HD
ATOM     19  H51 UNL     1       8.226   4.685  -2.582  1.00  0.00     0.280 HD
BRANCH  17  20
HETATM   20  C7  UNL     1       7.042   5.657  -1.184  1.00  0.00     0.432 C
BRANCH  20  21
HETATM   21  O2  UNL     1       6.888   6.628  -2.156  1.00  0.00    -0.260 OA
BRANCH  21  22
HETATM   22  N6  UNL     1       7.787   6.689  -3.093  1.00  0.00    -0.309 N
ATOM     23  H62 UNL     1       7.509   6.831  -4.064  1.00  0.00     0.184 HD
ATOM     24  H61 UNL     1       8.763   6.588  -2.816  1.00  0.00     0.184 HD
ENDBRANCH  21  22
ENDBRANCH  20  21
ENDBRANCH  17  20
ENDBRANCH   7  17
TORSDOF 6
ENDMDL