MODEL 3
REMARK VINA RESULT: -6.899733245      0.809      1.676
REMARK  8 active torsions:
REMARK  status: ('A' for Active; 'I' for Inactive)
REMARK    1  A    between atoms: C2_3  and  N3_7
REMARK       I    between atoms: N3_7  and  C3_9
REMARK    2  A    between atoms: C3_9  and  C4_11
REMARK    3  A    between atoms: C4_11  and  C5_12
REMARK    4  A    between atoms: C5_12  and  C6_13
REMARK    5  A    between atoms: C6_13  and  N4_14
REMARK    6  A    between atoms: C6_13  and  N5_18
REMARK    7  A    between atoms: C6_13  and  N6_22
REMARK    8  A    between atoms: N6_22  and  N7_23
ROOT
HETATM    1  N1  UNL     1       5.637   8.847   1.166  1.00  0.00    -0.188 NA
HETATM    2  C1  UNL     1       5.516   8.165   0.213  1.00  0.00     0.136 C
HETATM    3  C2  UNL     1       5.340   7.349  -0.938  1.00  0.00     0.184 C
HETATM    4  N2  UNL     1       4.137   7.299  -1.456  1.00  0.00    -0.377 N
ATOM      5  H21 UNL     1       4.011   6.714  -2.281  1.00  0.00     0.158 HD
ATOM      6  H22 UNL     1       3.391   7.839  -1.018  1.00  0.00     0.158 HD
ENDROOT
BRANCH   3   7
HETATM    7  N3  UNL     1       6.361   6.611  -1.537  1.00  0.00    -0.305 N
HETATM    8  C3  UNL     1       6.583   5.222  -1.237  1.00  0.00     0.223 C
HETATM    9  O1  UNL     1       5.800   4.716  -0.403  1.00  0.00    -0.273 OA
ATOM     10  H3  UNL     1       6.971   7.073  -2.211  1.00  0.00     0.171 HD
BRANCH   8  11
HETATM   11  C4  UNL     1       7.670   4.483  -1.892  1.00  0.00     0.109 C
BRANCH  11  12
HETATM   12  C5  UNL     1       7.307   3.358  -2.794  1.00  0.00     0.099 C
BRANCH  12  13
HETATM   13  C6  UNL     1       7.371   1.973  -2.234  1.00  0.00     0.371 C
BRANCH  13  14
HETATM   14  N4  UNL     1       8.332   1.102  -2.824  1.00  0.00    -0.028 N
ATOM     15  H43 UNL     1       8.765   1.559  -3.626  1.00  0.00     0.279 HD
ATOM     16  H42 UNL     1       9.139   1.010  -2.207  1.00  0.00     0.279 HD
ATOM     17  H41 UNL     1       7.994   0.179  -3.092  1.00  0.00     0.279 HD
ENDBRANCH  13  14
BRANCH  13  18
HETATM   18  N5  UNL     1       7.681   2.085  -0.838  1.00  0.00    -0.028 N
ATOM     19  H53 UNL     1       8.489   1.526  -0.563  1.00  0.00     0.279 HD
ATOM     20  H52 UNL     1       8.060   2.999  -0.587  1.00  0.00     0.279 HD
ATOM     21  H51 UNL     1       6.838   1.848  -0.316  1.00  0.00     0.279 HD
ENDBRANCH  13  18
BRANCH  13  22
HETATM   22  N6  UNL     1       6.062   1.360  -2.449  1.00  0.00    -0.081 NA
BRANCH  22  23
HETATM   23  N7  UNL     1       5.072   1.920  -1.662  1.00  0.00    -0.344 N
ATOM     24  H72 UNL     1       4.807   1.539  -0.754  1.00  0.00     0.172 HD
ATOM     25  H71 UNL     1       4.646   2.743  -2.089  1.00  0.00     0.172 HD
ENDBRANCH  22  23
ENDBRANCH  13  22
ENDBRANCH  12  13
ENDBRANCH  11  12
ENDBRANCH   8  11
ENDBRANCH   3   7
TORSDOF 8
ENDMDL