MODEL 4
REMARK VINA RESULT: -6.589720368      2.570      3.097
REMARK  9 active torsions:
REMARK  status: ('A' for Active; 'I' for Inactive)
REMARK       I    between atoms: C2_2  and  N1_4
REMARK    1  A    between atoms: N1_4  and  C3_6
REMARK    2  A    between atoms: C3_6  and  C4_7
REMARK    3  A    between atoms: C3_6  and  C8_11
REMARK    4  A    between atoms: C4_7  and  C5_8
REMARK    5  A    between atoms: C8_11  and  C9_12
REMARK    6  A    between atoms: C8_11  and  N5_25
REMARK    7  A    between atoms: C9_12  and  S1_13
REMARK    8  A    between atoms: S1_13  and  C10_14
REMARK    9  A    between atoms: C11_19  and  C12_20
ROOT
HETATM    1  C8  UNL     1      34.234 161.114  58.180  1.00  0.00     0.255 C
ENDROOT
BRANCH   1   2
HETATM    2  C3  UNL     1      32.961 160.364  58.165  1.00  0.00     0.118 C
BRANCH   2   3
HETATM    3  N1  UNL     1      32.939 159.002  57.778  1.00  0.00    -0.355 N
HETATM    4  C2  UNL     1      32.226 158.642  56.565  1.00  0.00     0.213 C
HETATM    5  C1  UNL     1      32.137 157.248  56.071  1.00  0.00     0.117 C
HETATM    6  O1  UNL     1      31.644 159.533  55.880  1.00  0.00    -0.274 OA
ATOM      7  H1  UNL     1      33.412 158.292  58.338  1.00  0.00     0.162 HD
ENDBRANCH   2   3
BRANCH   2   8
HETATM    8  C4  UNL     1      32.152 160.489  59.419  1.00  0.00     0.031 C
BRANCH   8   9
HETATM    9  C5  UNL     1      30.773 160.961  59.354  1.00  0.00    -0.021 C
HETATM   10  C6  UNL     1      30.797 162.161  58.374  1.00  0.00     0.009 C
HETATM   11  C7  UNL     1      29.711 160.065  58.864  1.00  0.00     0.009 C
ENDBRANCH   8   9
ENDBRANCH   2   8
ENDBRANCH   1   2
BRANCH   1  12
HETATM   12  C9  UNL     1      34.376 161.978  56.974  1.00  0.00     0.120 C
BRANCH  12  13
HETATM   13  S1  UNL     1      34.517 163.718  57.161  1.00  0.00    -0.090 SA
BRANCH  13  14
HETATM   14  C10 UNL     1      36.047 164.438  57.553  1.00  0.00     0.160 A
HETATM   15  N2  UNL     1      36.413 165.724  57.564  1.00  0.00    -0.278 N
HETATM   16  N3  UNL     1      37.664 165.883  57.914  1.00  0.00    -0.287 N
ATOM     17  H2  UNL     1      35.787 166.495  57.327  1.00  0.00     0.189 HD
HETATM   18  C11 UNL     1      38.149 164.654  58.145  1.00  0.00     0.101 A
ATOM     19  H3  UNL     1      38.170 166.766  57.995  1.00  0.00     0.188 HD
HETATM   20  N4  UNL     1      37.186 163.778  57.931  1.00  0.00    -0.324 N
ATOM     21  H4  UNL     1      37.276 162.768  58.032  1.00  0.00     0.169 HD
BRANCH  18  22
HETATM   22  C12 UNL     1      39.552 164.377  58.562  1.00  0.00     0.047 C
HETATM   23  C13 UNL     1      39.606 163.061  59.345  1.00  0.00     0.017 C
HETATM   24  C14 UNL     1      40.498 164.318  57.378  1.00  0.00     0.017 C
ENDBRANCH  18  22
ENDBRANCH  13  14
ENDBRANCH  12  13
ENDBRANCH   1  12
BRANCH   1  25
HETATM   25  N5  UNL     1      35.407 160.561  58.686  1.00  0.00     0.100 N
HETATM   26  C15 UNL     1      35.214 159.392  59.534  1.00  0.00     0.299 C
HETATM   27  C16 UNL     1      36.179 158.318  59.156  1.00  0.00     0.198 C
HETATM   28  O2  UNL     1      37.504 158.708  59.104  1.00  0.00    -0.388 OA
HETATM   29  C17 UNL     1      37.694 159.901  58.438  1.00  0.00     0.198 C
HETATM   30  C18 UNL     1      36.411 160.242  57.675  1.00  0.00     0.299 C
ENDBRANCH   1  25
TORSDOF 9
ENDMDL