MODEL 2
REMARK VINA RESULT: -6.631577277      2.120      2.668
REMARK  11 active torsions:
REMARK  status: ('A' for Active; 'I' for Inactive)
REMARK    1  A    between atoms: S1_2  and  C2_4
REMARK    2  A    between atoms: S1_2  and  C11_16
REMARK    3  A    between atoms: C2_4  and  C3_5
REMARK    4  A    between atoms: C3_5  and  C4_6
REMARK    5  A    between atoms: C4_6  and  C5_7
REMARK    6  A    between atoms: C5_7  and  N1_8
REMARK    7  A    between atoms: N2_11  and  C8_12
REMARK    8  A    between atoms: C11_16  and  C12_17
REMARK    9  A    between atoms: C12_17  and  C13_18
REMARK   10  A    between atoms: C13_18  and  O3_19
REMARK   11  A    between atoms: N3_21  and  O4_23
ROOT
HETATM    1  C1  UNL     1      33.694 163.729  56.937  1.00  0.00     0.113 C
HETATM    2  S1  UNL     1      34.842 162.305  57.074  1.00  0.00    -0.058 S
HETATM    3  O1  UNL     1      36.226 162.202  55.620  1.00  0.00    -0.270 OA
ENDROOT
BRANCH   2   4
HETATM    4  C2  UNL     1      36.243 163.296  57.904  1.00  0.00     0.096 C
BRANCH   4   5
HETATM    5  C3  UNL     1      36.364 164.742  57.491  1.00  0.00     0.013 C
BRANCH   5   6
HETATM    6  C4  UNL     1      37.790 165.183  57.611  1.00  0.00     0.031 C
BRANCH   6   7
HETATM    7  C5  UNL     1      38.449 164.869  58.908  1.00  0.00     0.272 C
BRANCH   7   8
HETATM    8  N1  UNL     1      39.748 164.236  58.697  1.00  0.00     0.091 N
HETATM    9  C6  UNL     1      39.746 162.843  59.103  1.00  0.00     0.292 C
HETATM   10  C7  UNL     1      41.214 162.399  59.105  1.00  0.00     0.155 C
HETATM   11  N2  UNL     1      41.740 162.687  57.799  1.00  0.00    -0.356 N
HETATM   12  C9  UNL     1      41.660 164.023  57.276  1.00  0.00     0.155 C
HETATM   13  C10 UNL     1      40.172 164.395  57.323  1.00  0.00     0.292 C
BRANCH  11  14
HETATM   14  C8  UNL     1      42.332 161.666  57.035  1.00  0.00     0.350 C
HETATM   15  O2  UNL     1      42.044 161.516  55.825  1.00  0.00    -0.284 OA
ENDBRANCH  11  14
ENDBRANCH   7   8
ENDBRANCH   6   7
ENDBRANCH   5   6
ENDBRANCH   4   5
ENDBRANCH   2   4
BRANCH   2  16
HETATM   16  C11 UNL     1      34.862 160.930  58.283  1.00  0.00     0.113 C
BRANCH  16  17
HETATM   17  C12 UNL     1      33.702 159.974  58.463  1.00  0.00     0.036 C
HETATM   18  C14 UNL     1      32.896 160.265  59.706  1.00  0.00     0.019 C
HETATM   19  C15 UNL     1      31.975 161.441  59.457  1.00  0.00     0.001 C
HETATM   20  C16 UNL     1      30.817 160.902  58.620  1.00  0.00     0.000 C
HETATM   21  C17 UNL     1      31.322 159.886  57.655  1.00  0.00     0.001 C
HETATM   22  C18 UNL     1      32.763 160.037  57.276  1.00  0.00     0.019 C
BRANCH  17  23
HETATM   23  C13 UNL     1      34.141 158.557  58.573  1.00  0.00     0.145 C
HETATM   24  N3  UNL     1      34.408 157.993  59.689  1.00  0.00    -0.250 N
ATOM     25  H3  UNL     1      34.324 158.520  60.558  1.00  0.00     0.196 HD
BRANCH  23  26
HETATM   26  O3  UNL     1      34.254 157.843  57.399  1.00  0.00    -0.347 OA
ATOM     27  H3  UNL     1      34.882 158.160  56.761  1.00  0.00     0.219 HD
ENDBRANCH  23  26
BRANCH  24  28
HETATM   28  O4  UNL     1      34.802 156.702  59.718  1.00  0.00    -0.288 OA
ATOM     29  H4  UNL     1      35.203 156.307  58.953  1.00  0.00     0.244 HD
ENDBRANCH  24  28
ENDBRANCH  17  23
ENDBRANCH  16  17
ENDBRANCH   2  16
TORSDOF 11
ENDMDL