MODEL 5
REMARK VINA RESULT: -7.121310157      2.429      4.742
REMARK  10 active torsions:
REMARK  status: ('A' for Active; 'I' for Inactive)
REMARK    1  A    between atoms: C6_9  and  C7_10
REMARK    2  A    between atoms: C7_10  and  N3_11
REMARK    3  A    between atoms: N4_14  and  C10_15
REMARK    4  A    between atoms: C10_15  and  C11_16
REMARK    5  A    between atoms: C11_16  and  C12_17
REMARK    6  A    between atoms: C15_20  and  N5_21
REMARK    7  A    between atoms: N5_21  and  C16_24
REMARK    8  A    between atoms: C16_24  and  C17_25
REMARK    9  A    between atoms: C17_25  and  C18_26
REMARK   10  A    between atoms: C18_26  and  N6_27
ROOT
HETATM    1  C10 UNL     1      36.924 160.778  57.527  1.00  0.00     0.273 C
ENDROOT
BRANCH   1   2
HETATM    2  N4  UNL     1      36.776 159.579  58.431  1.00  0.00     0.090 N
HETATM    3  C9  UNL     1      35.639 159.791  59.283  1.00  0.00     0.287 C
HETATM    4  C8  UNL     1      35.039 158.570  59.789  1.00  0.00     0.125 C
HETATM    5  N3  UNL     1      34.435 157.878  58.600  1.00  0.00    -0.288 NA
HETATM    6  C21 UNL     1      35.517 157.522  57.829  1.00  0.00     0.125 C
HETATM    7  C20 UNL     1      36.609 158.455  57.544  1.00  0.00     0.287 C
BRANCH   5   8
HETATM    8  C7  UNL     1      33.339 158.614  58.264  1.00  0.00     0.075 C
BRANCH   8   9
HETATM    9  C6  UNL     1      32.382 158.459  57.155  1.00  0.00     0.022 A
HETATM   10  C2  UNL     1      31.971 159.637  56.467  1.00  0.00     0.035 A
HETATM   11  C1  UNL     1      32.212 160.957  57.085  1.00  0.00     0.070 C
HETATM   12  N1  UNL     1      31.342 159.298  55.381  1.00  0.00    -0.302 N
HETATM   13  N2  UNL     1      31.304 157.942  55.321  1.00  0.00    -0.300 N
ATOM     14  H1  UNL     1      30.947 159.939  54.693  1.00  0.00     0.186 HD
HETATM   15  C3  UNL     1      30.690 157.226  54.190  1.00  0.00     0.177 C
HETATM   16  C4  UNL     1      31.931 157.435  56.384  1.00  0.00     0.037 A
HETATM   17  C5  UNL     1      32.119 156.005  56.631  1.00  0.00     0.071 C
ENDBRANCH   8   9
ENDBRANCH   5   8
ENDBRANCH   1   2
BRANCH   1  18
HETATM   18  C11 UNL     1      35.665 161.547  57.556  1.00  0.00     0.035 C
BRANCH  18  19
HETATM   19  C12 UNL     1      35.788 162.817  56.729  1.00  0.00    -0.011 C
HETATM   20  C13 UNL     1      34.936 163.885  57.328  1.00  0.00     0.007 C
HETATM   21  C14 UNL     1      35.751 165.095  57.579  1.00  0.00     0.033 C
HETATM   22  C15 UNL     1      37.165 164.795  57.185  1.00  0.00     0.186 C
HETATM   23  C19 UNL     1      37.214 163.300  57.030  1.00  0.00     0.037 C
BRANCH  22  24
HETATM   24  N5  UNL     1      38.099 165.108  58.333  1.00  0.00    -0.071 N
ATOM     25  H52 UNL     1      38.547 166.022  58.270  1.00  0.00     0.277 HD
ATOM     26  H51 UNL     1      37.627 165.275  59.222  1.00  0.00     0.277 HD
BRANCH  24  27
HETATM   27  C16 UNL     1      39.030 163.986  58.352  1.00  0.00     0.234 C
BRANCH  27  28
HETATM   28  C17 UNL     1      40.422 164.422  58.081  1.00  0.00     0.055 C
BRANCH  28  29
HETATM   29  C18 UNL     1      41.191 163.114  57.771  1.00  0.00     0.231 C
BRANCH  29  30
HETATM   30  N6  UNL     1      41.286 162.858  56.377  1.00  0.00    -0.079 N
ATOM     31  H63 UNL     1      41.585 161.899  56.199  1.00  0.00     0.274 HD
ATOM     32  H62 UNL     1      40.362 162.824  55.947  1.00  0.00     0.274 HD
ATOM     33  H61 UNL     1      41.889 163.527  55.899  1.00  0.00     0.274 HD
ENDBRANCH  29  30
ENDBRANCH  28  29
ENDBRANCH  27  28
ENDBRANCH  24  27
ENDBRANCH  22  24
ENDBRANCH  18  19
ENDBRANCH   1  18
TORSDOF 10
ENDMDL