MODEL 4
REMARK VINA RESULT: -6.395522791      2.423      3.830
REMARK  14 active torsions:
REMARK  status: ('A' for Active; 'I' for Inactive)
REMARK    1  A    between atoms: C3_3  and  O1_6
REMARK    2  A    between atoms: O1_6  and  C6_7
REMARK    3  A    between atoms: C6_7  and  C7_9
REMARK    4  A    between atoms: C7_9  and  O3_10
REMARK    5  A    between atoms: O3_10  and  C8_11
REMARK    6  A    between atoms: C8_11  and  C9_13
REMARK    7  A    between atoms: C9_13  and  C10_14
REMARK    8  A    between atoms: C10_14  and  C11_15
REMARK    9  A    between atoms: C11_15  and  C12_16
REMARK   10  A    between atoms: C12_16  and  O6_18
REMARK   11  A    between atoms: O6_18  and  N1_19
REMARK       I    between atoms: N1_19  and  C13_21
REMARK       I    between atoms: C13_21  and  N3_28
REMARK   12  A    between atoms: N2_22  and  C14_24
REMARK   13  A    between atoms: C14_24  and  C15_25
REMARK   14  A    between atoms: C15_25  and  C16_26
ROOT
HETATM    1  C1  UNL     1      38.649 164.426  58.583  1.00  0.00     0.015 C
HETATM    2  C2  UNL     1      39.581 163.673  58.462  1.00  0.00    -0.079 C
HETATM    3  C3  UNL     1      40.705 162.759  58.290  1.00  0.00     0.125 C
HETATM    4  C4  UNL     1      41.668 162.945  59.412  1.00  0.00     0.061 C
HETATM    5  C5  UNL     1      41.403 163.153  56.998  1.00  0.00     0.061 C
ENDROOT
BRANCH   3   6
HETATM    6  O1  UNL     1      40.267 161.432  58.119  1.00  0.00    -0.296 OA
BRANCH   6   7
HETATM    7  C6  UNL     1      39.358 160.794  58.968  1.00  0.00     0.284 C
HETATM    8  O2  UNL     1      39.855 160.296  60.013  1.00  0.00    -0.263 OA
BRANCH   7   9
HETATM    9  C7  UNL     1      37.914 160.690  58.698  1.00  0.00     0.289 C
BRANCH   9  10
HETATM   10  O3  UNL     1      37.559 160.926  57.375  1.00  0.00    -0.312 OA
BRANCH  10  11
HETATM   11  C8  UNL     1      36.643 161.834  56.931  1.00  0.00     0.259 C
HETATM   12  O4  UNL     1      36.876 162.480  55.881  1.00  0.00    -0.265 OA
BRANCH  11  13
HETATM   13  C9  UNL     1      35.341 162.127  57.624  1.00  0.00     0.111 C
BRANCH  13  14
HETATM   14  C10 UNL     1      34.481 162.822  56.599  1.00  0.00     0.019 C
BRANCH  14  15
HETATM   15  C11 UNL     1      33.103 163.145  57.050  1.00  0.00     0.113 C
BRANCH  15  16
HETATM   16  C12 UNL     1      32.374 162.009  57.669  1.00  0.00     0.281 C
HETATM   17  O5  UNL     1      32.026 161.974  58.877  1.00  0.00    -0.263 OA
BRANCH  16  18
HETATM   18  O6  UNL     1      32.031 160.882  56.902  1.00  0.00    -0.185 OA
BRANCH  18  19
HETATM   19  N1  UNL     1      32.693 159.704  57.128  1.00  0.00    -0.088 N
HETATM   20  C13 UNL     1      31.996 158.474  56.963  1.00  0.00     0.693 C
HETATM   21  N2  UNL     1      31.778 157.714  57.984  1.00  0.00    -0.225 N
HETATM   22  N3  UNL     1      31.562 158.134  55.652  1.00  0.00    -0.229 N
ATOM     23  H2  UNL     1      31.279 156.832  57.865  1.00  0.00     0.177 HD
HETATM   24  C18 UNL     1      30.235 158.423  55.151  1.00  0.00     0.165 C
ATOM     25  H3  UNL     1      32.220 157.661  55.032  1.00  0.00     0.177 HD
ATOM     26  H1  UNL     1      33.673 159.708  57.411  1.00  0.00     0.213 HD
BRANCH  21  27
HETATM   27  C14 UNL     1      32.238 158.107  59.287  1.00  0.00     0.138 C
BRANCH  27  28
HETATM   28  C15 UNL     1      33.435 157.269  59.638  1.00  0.00     0.020 C
BRANCH  28  29
HETATM   29  C16 UNL     1      34.712 158.052  59.712  1.00  0.00    -0.003 C
HETATM   30  C17 UNL     1      34.526 159.491  60.060  1.00  0.00     0.005 C
ENDBRANCH  28  29
ENDBRANCH  27  28
ENDBRANCH  21  27
ENDBRANCH  18  19
ENDBRANCH  16  18
ENDBRANCH  15  16
ENDBRANCH  14  15
ENDBRANCH  13  14
ENDBRANCH  11  13
ENDBRANCH  10  11
ENDBRANCH   9  10
ENDBRANCH   7   9
ENDBRANCH   6   7
ENDBRANCH   3   6
TORSDOF 14
ENDMDL