MODEL 5
REMARK VINA RESULT: -7.542820710      2.304      6.564
REMARK  9 active torsions:
REMARK  status: ('A' for Active; 'I' for Inactive)
REMARK    1  A    between atoms: C2_2  and  C5_5
REMARK    2  A    between atoms: C5_5  and  C6_6
REMARK    3  A    between atoms: C7_7  and  C8_8
REMARK    4  A    between atoms: C8_8  and  N1_9
REMARK       I    between atoms: N1_9  and  C9_11
REMARK    5  A    between atoms: C9_11  and  C10_13
REMARK    6  A    between atoms: C10_13  and  C11_14
REMARK    7  A    between atoms: C11_14  and  C12_15
REMARK    8  A    between atoms: C12_15  and  C14_18
REMARK       I    between atoms: C14_18  and  N3_20
REMARK    9  A    between atoms: N3_20  and  C15_22
ROOT
HETATM    1  C12 UNL     1      32.338 161.318  57.600  1.00  0.00     0.185 C
HETATM    2  C13 UNL     1      31.907 161.639  58.914  1.00  0.00     0.073 C
HETATM    3  N2  UNL     1      31.539 161.855  59.994  1.00  0.00    -0.196 NA
ENDROOT
BRANCH   1   4
HETATM    4  C11 UNL     1      33.093 162.317  56.831  1.00  0.00     0.038 C
BRANCH   4   5
HETATM    5  C10 UNL     1      33.994 163.267  57.486  1.00  0.00     0.104 C
BRANCH   5   6
HETATM    6  C9  UNL     1      35.387 163.389  57.037  1.00  0.00     0.217 C
HETATM    7  N1  UNL     1      36.147 164.530  57.348  1.00  0.00    -0.358 N
ATOM      8  H1  UNL     1      35.657 165.240  57.893  1.00  0.00     0.162 HD
HETATM    9  O1  UNL     1      35.886 162.484  56.387  1.00  0.00    -0.274 OA
BRANCH   7  10
HETATM   10  C8  UNL     1      37.497 164.848  57.020  1.00  0.00     0.149 C
BRANCH  10  11
HETATM   11  C7  UNL     1      38.323 165.049  58.222  1.00  0.00    -0.011 C
HETATM   12  C6  UNL     1      39.527 164.633  58.497  1.00  0.00    -0.028 C
BRANCH  12  13
HETATM   13  C5  UNL     1      40.360 163.818  57.600  1.00  0.00     0.035 C
BRANCH  13  14
HETATM   14  C2  UNL     1      41.021 162.646  58.218  1.00  0.00    -0.048 C
HETATM   15  C1  UNL     1      41.668 163.037  59.554  1.00  0.00     0.014 C
HETATM   16  C3  UNL     1      42.072 161.978  57.417  1.00  0.00     0.014 C
HETATM   17  C4  UNL     1      39.894 161.627  58.513  1.00  0.00     0.014 C
ENDBRANCH  13  14
ENDBRANCH  12  13
ENDBRANCH  10  11
ENDBRANCH   7  10
ENDBRANCH   5   6
ENDBRANCH   4   5
ENDBRANCH   1   4
BRANCH   1  18
HETATM   18  C14 UNL     1      33.163 160.043  57.609  1.00  0.00     0.235 C
HETATM   19  O2  UNL     1      32.680 158.973  57.200  1.00  0.00    -0.272 OA
HETATM   20  N3  UNL     1      34.477 160.101  58.089  1.00  0.00    -0.354 N
ATOM     21  H3  UNL     1      34.830 161.001  58.415  1.00  0.00     0.162 HD
BRANCH  20  22
HETATM   22  C15 UNL     1      35.367 158.957  58.152  1.00  0.00     0.099 C
HETATM   23  C16 UNL     1      35.299 158.409  59.549  1.00  0.00     0.041 C
HETATM   24  C17 UNL     1      36.364 157.347  59.669  1.00  0.00     0.142 C
HETATM   25  S1  UNL     1      37.691 158.071  58.693  1.00  0.00     0.146 S
HETATM   26  O3  UNL     1      38.123 157.060  57.701  1.00  0.00    -0.228 OA
HETATM   27  O4  UNL     1      38.783 158.575  59.568  1.00  0.00    -0.228 OA
HETATM   28  C18 UNL     1      36.792 159.415  57.923  1.00  0.00     0.165 C
ENDBRANCH  20  22
ENDBRANCH   1  18
TORSDOF 9
ENDMDL