MODEL 4
REMARK VINA RESULT: -7.728296293      2.077      6.949
REMARK  11 active torsions:
REMARK  status: ('A' for Active; 'I' for Inactive)
REMARK    1  A    between atoms: C2_2  and  O1_3
REMARK    2  A    between atoms: C2_2  and  C16_23
REMARK    3  A    between atoms: O1_3  and  C3_4
REMARK    4  A    between atoms: C3_4  and  C4_6
REMARK    5  A    between atoms: C4_6  and  C5_7
REMARK    6  A    between atoms: C5_7  and  C6_8
REMARK    7  A    between atoms: C6_8  and  O4_10
REMARK    8  A    between atoms: O4_10  and  C7_11
REMARK    9  A    between atoms: C7_11  and  C8_12
REMARK       I    between atoms: C8_12  and  N1_14
REMARK   10  A    between atoms: N1_14  and  C9_16
REMARK       I    between atoms: C16_23  and  N2_25
REMARK   11  A    between atoms: N2_25  and  C17_27
ROOT
HETATM    1  C6  UNL     1      35.651 162.948  56.593  1.00  0.00     0.259 C
HETATM    2  O3  UNL     1      36.562 162.490  55.854  1.00  0.00    -0.265 OA
ENDROOT
BRANCH   1   3
HETATM    3  C5  UNL     1      34.254 162.568  56.336  1.00  0.00     0.121 C
BRANCH   3   4
HETATM    4  C4  UNL     1      33.269 163.190  57.300  1.00  0.00     0.121 C
BRANCH   4   5
HETATM    5  C3  UNL     1      32.513 162.089  57.947  1.00  0.00     0.260 C
HETATM    6  O2  UNL     1      31.325 162.266  58.372  1.00  0.00    -0.265 OA
BRANCH   5   7
HETATM    7  O1  UNL     1      33.058 160.842  58.116  1.00  0.00    -0.307 OA
BRANCH   7   8
HETATM    8  C2  UNL     1      33.145 160.120  59.311  1.00  0.00     0.219 C
HETATM    9  C1  UNL     1      32.221 158.916  59.199  1.00  0.00     0.050 C
BRANCH   8  10
HETATM   10  C16 UNL     1      34.521 159.625  59.481  1.00  0.00     0.247 C
HETATM   11  O6  UNL     1      34.823 158.927  60.461  1.00  0.00    -0.271 OA
HETATM   12  N2  UNL     1      35.504 159.948  58.519  1.00  0.00    -0.354 N
ATOM     13  H2  UNL     1      35.248 160.523  57.716  1.00  0.00     0.162 HD
BRANCH  12  14
HETATM   14  C17 UNL     1      36.870 159.479  58.651  1.00  0.00     0.084 A
HETATM   15  C18 UNL     1      37.620 159.095  57.402  1.00  0.00     0.027 A
HETATM   16  C19 UNL     1      38.012 160.322  58.158  1.00  0.00     0.027 A
ENDBRANCH  12  14
ENDBRANCH   8  10
ENDBRANCH   7   8
ENDBRANCH   5   7
ENDBRANCH   4   5
ENDBRANCH   3   4
ENDBRANCH   1   3
BRANCH   1  17
HETATM   17  O4  UNL     1      36.013 163.796  57.622  1.00  0.00    -0.312 OA
BRANCH  17  18
HETATM   18  C7  UNL     1      36.577 165.067  57.479  1.00  0.00     0.281 C
BRANCH  18  19
HETATM   19  C8  UNL     1      37.995 165.162  57.879  1.00  0.00     0.242 C
HETATM   20  O5  UNL     1      38.353 166.102  58.625  1.00  0.00    -0.271 OA
HETATM   21  N1  UNL     1      38.926 164.225  57.436  1.00  0.00    -0.345 N
ATOM     22  H1  UNL     1      38.590 163.478  56.829  1.00  0.00     0.163 HD
BRANCH  21  23
HETATM   23  C9  UNL     1      40.347 164.231  57.774  1.00  0.00     0.154 C
HETATM   24  C10 UNL     1      40.420 163.602  59.212  1.00  0.00     0.064 C
HETATM   25  C11 UNL     1      41.011 162.197  59.171  1.00  0.00    -0.028 C
HETATM   26  C12 UNL     1      42.333 161.921  58.683  1.00  0.00    -0.030 C
HETATM   27  C13 UNL     1      42.616 161.562  57.226  1.00  0.00     0.038 C
HETATM   28  C14 UNL     1      42.141 162.691  56.252  1.00  0.00     0.086 C
HETATM   29  C15 UNL     1      41.246 163.496  56.980  1.00  0.00    -0.157 C
ENDBRANCH  21  23
ENDBRANCH  18  19
ENDBRANCH  17  18
ENDBRANCH   1  17
TORSDOF 11
ENDMDL