MODEL 2
REMARK VINA RESULT: -7.131574980      1.774      2.151
REMARK  8 active torsions:
REMARK  status: ('A' for Active; 'I' for Inactive)
REMARK    1  A    between atoms: C2_2  and  C11_21
REMARK       I    between atoms: N1_3  and  C3_5
REMARK    2  A    between atoms: C3_5  and  C4_7
REMARK    3  A    between atoms: C4_7  and  N2_9
REMARK    4  A    between atoms: N2_9  and  S1_11
REMARK    5  A    between atoms: S1_11  and  C6_14
REMARK    6  A    between atoms: C6_14  and  C7_15
REMARK    7  A    between atoms: C7_15  and  C8_16
REMARK    8  A    between atoms: C11_21  and  C13_23
ROOT
HETATM    1  C4  UNL     1      36.974 161.949  57.241  1.00  0.00     0.180 C
HETATM    2  C5  UNL     1      35.545 162.390  56.959  1.00  0.00     0.043 C
ENDROOT
BRANCH   1   3
HETATM    3  C3  UNL     1      37.877 163.111  57.395  1.00  0.00     0.244 C
HETATM    4  N1  UNL     1      39.210 162.986  57.099  1.00  0.00    -0.332 N
HETATM    5  C2  UNL     1      40.291 162.961  57.687  1.00  0.00    -0.000 C
ATOM      6  H1  UNL     1      39.346 162.883  56.094  1.00  0.00     0.168 HD
HETATM    7  C1  UNL     1      41.523 162.790  56.804  1.00  0.00     0.064 C
HETATM    8  O1  UNL     1      37.396 164.195  57.797  1.00  0.00    -0.271 OA
BRANCH   5   9
HETATM    9  C11 UNL     1      40.604 163.073  59.127  1.00  0.00     0.128 C
HETATM   10  C12 UNL     1      42.040 163.312  59.444  1.00  0.00     0.027 C
BRANCH   9  11
HETATM   11  C13 UNL     1      40.152 161.842  59.807  1.00  0.00     0.182 C
HETATM   12  O4  UNL     1      40.782 160.778  59.659  1.00  0.00    -0.647 OA
HETATM   13  O5  UNL     1      39.033 161.871  60.606  1.00  0.00    -0.647 OA
ENDBRANCH   9  11
ENDBRANCH   5   9
ENDBRANCH   1   3
BRANCH   1  14
HETATM   14  N2  UNL     1      36.966 161.182  58.453  1.00  0.00    -0.306 N
ATOM     15  H2  UNL     1      36.845 161.582  59.383  1.00  0.00     0.173 HD
BRANCH  14  16
HETATM   16  S1  UNL     1      37.186 159.519  58.145  1.00  0.00     0.227 S
HETATM   17  O2  UNL     1      38.250 158.940  59.063  1.00  0.00    -0.206 OA
HETATM   18  O3  UNL     1      37.571 159.257  56.721  1.00  0.00    -0.206 OA
BRANCH  16  19
HETATM   19  C6  UNL     1      35.645 158.651  58.442  1.00  0.00     0.164 C
BRANCH  19  20
HETATM   20  C7  UNL     1      34.795 159.554  59.311  1.00  0.00     0.033 C
BRANCH  20  21
HETATM   21  C8  UNL     1      33.464 159.837  58.657  1.00  0.00     0.060 C
HETATM   22  C9  UNL     1      32.513 160.262  59.748  1.00  0.00     0.027 C
HETATM   23  C10 UNL     1      31.122 160.354  59.169  1.00  0.00     0.087 C
HETATM   24  S2  UNL     1      30.752 158.658  58.547  1.00  0.00    -0.097 SA
HETATM   25  S3  UNL     1      32.820 158.213  58.078  1.00  0.00    -0.093 SA
ENDBRANCH  20  21
ENDBRANCH  19  20
ENDBRANCH  16  19
ENDBRANCH  14  16
ENDBRANCH   1  14
TORSDOF 8
ENDMDL