MODEL 1
REMARK VINA RESULT: -7.527284073      0.000      0.000
REMARK  13 active torsions:
REMARK  status: ('A' for Active; 'I' for Inactive)
REMARK    1  A    between atoms: C3_3  and  C4_4
REMARK    2  A    between atoms: C4_4  and  C5_5
REMARK    3  A    between atoms: C5_5  and  C6_6
REMARK    4  A    between atoms: C7_7  and  C8_8
REMARK    5  A    between atoms: C9_9  and  C10_10
REMARK    6  A    between atoms: C10_10  and  O2_12
REMARK    7  A    between atoms: O2_12  and  C11_13
REMARK    8  A    between atoms: C11_13  and  C12_14
REMARK    9  A    between atoms: C11_13  and  C17_19
REMARK   10  A    between atoms: C12_14  and  C13_15
REMARK   11  A    between atoms: C13_15  and  C14_16
REMARK       I    between atoms: C17_19  and  N1_21
REMARK   12  A    between atoms: N1_21  and  C18_23
REMARK   13  A    between atoms: C21_28  and  O6_29
ROOT
HETATM    1  C1  UNL     1      26.752 165.287  57.005  1.00  0.00     0.112 C
HETATM    2  C2  UNL     1      27.199 164.069  57.676  1.00  0.00    -0.110 C
HETATM    3  C3  UNL     1      27.585 163.094  58.231  1.00  0.00    -0.096 C
ENDROOT
BRANCH   3   4
HETATM    4  C4  UNL     1      28.100 161.881  58.959  1.00  0.00     0.178 C
BRANCH   4   5
HETATM    5  C5  UNL     1      29.321 161.841  59.254  1.00  0.00    -0.144 C
BRANCH   5   6
HETATM    6  C6  UNL     1      30.649 161.809  59.585  1.00  0.00     0.051 C
HETATM    7  C7  UNL     1      31.308 160.623  59.374  1.00  0.00     0.008 C
BRANCH   7   8
HETATM    8  C8  UNL     1      32.702 160.520  59.710  1.00  0.00     0.007 C
HETATM    9  C9  UNL     1      33.478 159.787  58.939  1.00  0.00     0.082 C
BRANCH   9  10
HETATM   10  C10 UNL     1      34.879 159.539  59.083  1.00  0.00     0.283 C
HETATM   11  O1  UNL     1      35.295 159.052  60.193  1.00  0.00    -0.260 OA
BRANCH  10  12
HETATM   12  O2  UNL     1      35.873 159.776  58.135  1.00  0.00    -0.303 OA
BRANCH  12  13
HETATM   13  C11 UNL     1      36.541 161.051  58.140  1.00  0.00     0.224 C
BRANCH  13  14
HETATM   14  C12 UNL     1      36.515 161.608  56.717  1.00  0.00     0.043 C
BRANCH  14  15
HETATM   15  C13 UNL     1      36.171 163.066  56.696  1.00  0.00     0.007 C
BRANCH  15  16
HETATM   16  C14 UNL     1      34.804 163.257  57.296  1.00  0.00    -0.023 C
HETATM   17  C15 UNL     1      33.695 162.687  56.472  1.00  0.00     0.009 C
HETATM   18  C16 UNL     1      34.496 164.709  57.590  1.00  0.00     0.009 C
ENDBRANCH  15  16
ENDBRANCH  14  15
ENDBRANCH  13  14
BRANCH  13  19
HETATM   19  C17 UNL     1      37.919 160.895  58.630  1.00  0.00     0.247 C
HETATM   20  O3  UNL     1      38.300 159.781  59.052  1.00  0.00    -0.271 OA
HETATM   21  N1  UNL     1      38.830 161.985  58.639  1.00  0.00    -0.349 N
ATOM     22  H1  UNL     1      38.525 162.899  58.304  1.00  0.00     0.163 HD
BRANCH  21  23
HETATM   23  C18 UNL     1      40.172 161.817  59.114  1.00  0.00     0.149 C
HETATM   24  C19 UNL     1      41.125 161.486  57.982  1.00  0.00     0.141 C
HETATM   25  C20 UNL     1      42.406 161.985  58.518  1.00  0.00     0.263 C
HETATM   26  O4  UNL     1      43.537 161.500  58.302  1.00  0.00    -0.265 OA
HETATM   27  O5  UNL     1      42.115 163.075  59.294  1.00  0.00    -0.288 OA
HETATM   28  C21 UNL     1      40.744 163.165  59.585  1.00  0.00     0.289 C
BRANCH  28  29
HETATM   29  O6  UNL     1      40.202 164.217  58.859  1.00  0.00    -0.369 OA
ATOM     30  H6  UNL     1      40.298 164.071  57.925  1.00  0.00     0.212 HD
ENDBRANCH  28  29
ENDBRANCH  21  23
ENDBRANCH  13  19
ENDBRANCH  12  13
ENDBRANCH  10  12
ENDBRANCH   9  10
ENDBRANCH   7   8
ENDBRANCH   5   6
ENDBRANCH   4   5
ENDBRANCH   3   4
TORSDOF 13
ENDMDL