MODEL 4
REMARK VINA RESULT: -7.012257630      1.291      1.725
REMARK  10 active torsions:
REMARK  status: ('A' for Active; 'I' for Inactive)
REMARK    1  A    between atoms: C2_2  and  C4_4
REMARK    2  A    between atoms: C11_11  and  O1_12
REMARK    3  A    between atoms: O1_12  and  S1_13
REMARK    4  A    between atoms: C12_17  and  C13_18
REMARK    5  A    between atoms: C13_18  and  N1_19
REMARK    6  A    between atoms: N1_19  and  C14_21
REMARK    7  A    between atoms: C14_21  and  C15_22
REMARK    8  A    between atoms: C15_22  and  C16_23
REMARK    9  A    between atoms: C16_23  and  C17_24
REMARK   10  A    between atoms: C17_24  and  O6_26
ROOT
HETATM    1  C4  UNL     1      34.633 160.107  58.601  1.00  0.00    -0.001 C
HETATM    2  C5  UNL     1      34.597 159.538  59.982  1.00  0.00     0.016 C
HETATM    3  C6  UNL     1      33.797 158.263  59.917  1.00  0.00     0.011 C
HETATM    4  C7  UNL     1      33.767 157.871  58.468  1.00  0.00    -0.033 A
HETATM    5  C8  UNL     1      33.555 156.487  58.031  1.00  0.00     0.011 A
HETATM    6  C9  UNL     1      32.464 157.526  57.819  1.00  0.00     0.011 A
HETATM    7  C10 UNL     1      34.626 158.820  57.729  1.00  0.00     0.039 C
HETATM    8  C11 UNL     1      36.109 158.799  57.945  1.00  0.00     0.161 C
HETATM    9  C12 UNL     1      36.002 160.345  58.028  1.00  0.00     0.068 C
ENDROOT
BRANCH   9  10
HETATM   10  C13 UNL     1      37.044 160.959  58.868  1.00  0.00     0.064 C
BRANCH  10  11
HETATM   11  N1  UNL     1      38.319 161.155  58.301  1.00  0.00    -0.402 N
ATOM     12  H1  UNL     1      38.443 161.467  57.338  1.00  0.00     0.158 HD
BRANCH  11  13
HETATM   13  C14 UNL     1      39.457 160.880  59.184  1.00  0.00     0.119 C
BRANCH  13  14
HETATM   14  C15 UNL     1      39.756 162.189  59.869  1.00  0.00     0.029 C
BRANCH  14  15
HETATM   15  C16 UNL     1      40.917 162.910  59.260  1.00  0.00     0.112 C
BRANCH  15  16
HETATM   16  C17 UNL     1      40.553 163.942  58.271  1.00  0.00     0.258 C
HETATM   17  O5  UNL     1      41.416 164.672  57.733  1.00  0.00    -0.265 OA
BRANCH  16  18
HETATM   18  O6  UNL     1      39.247 164.132  57.913  1.00  0.00    -0.326 OA
HETATM   19  C18 UNL     1      38.480 165.244  58.402  1.00  0.00     0.213 C
ENDBRANCH  16  18
ENDBRANCH  15  16
ENDBRANCH  14  15
ENDBRANCH  13  14
ENDBRANCH  11  13
ENDBRANCH  10  11
ENDBRANCH   9  10
BRANCH   1  20
HETATM   20  C2  UNL     1      33.543 161.020  58.203  1.00  0.00    -0.083 C
HETATM   21  C1  UNL     1      33.691 161.780  57.131  1.00  0.00     0.015 C
HETATM   22  C3  UNL     1      32.296 161.123  58.991  1.00  0.00     0.043 C
ENDBRANCH   1  20
BRANCH   8  23
HETATM   23  O1  UNL     1      36.863 158.451  56.822  1.00  0.00    -0.250 OA
BRANCH  23  24
HETATM   24  S1  UNL     1      37.839 157.157  57.257  1.00  0.00     0.252 S
HETATM   25  O2  UNL     1      38.964 157.061  56.236  1.00  0.00    -0.572 OA
HETATM   26  O3  UNL     1      36.982 155.908  57.148  1.00  0.00    -0.572 OA
HETATM   27  O4  UNL     1      38.460 157.328  58.810  1.00  0.00    -0.572 OA
ENDBRANCH  23  24
ENDBRANCH   8  23
TORSDOF 10
ENDMDL