MODEL 3
REMARK VINA RESULT: -7.893042737      2.091      3.217
REMARK  11 active torsions:
REMARK  status: ('A' for Active; 'I' for Inactive)
REMARK    1  A    between atoms: C2_2  and  O1_3
REMARK    2  A    between atoms: O1_3  and  C3_4
REMARK    3  A    between atoms: C3_4  and  C4_6
REMARK    4  A    between atoms: C4_6  and  C5_7
REMARK    5  A    between atoms: C5_7  and  C6_8
REMARK    6  A    between atoms: C6_8  and  N1_9
REMARK    7  A    between atoms: C6_8  and  C19_26
REMARK       I    between atoms: N1_9  and  C7_11
REMARK    8  A    between atoms: C7_11  and  C8_13
REMARK    9  A    between atoms: C8_13  and  O4_15
REMARK   10  A    between atoms: O4_15  and  C10_16
REMARK   11  A    between atoms: C10_16  and  C11_18
ROOT
HETATM    1  N1  UNL     1      38.057 161.785  58.795  1.00  0.00    -0.344 N
ATOM      2  H1  UNL     1      37.372 162.426  59.195  1.00  0.00     0.163 HD
HETATM    3  C7  UNL     1      37.579 160.634  58.130  1.00  0.00     0.247 C
HETATM    4  O3  UNL     1      38.383 159.820  57.624  1.00  0.00    -0.271 OA
ENDROOT
BRANCH   3   5
HETATM    5  C8  UNL     1      36.132 160.375  58.024  1.00  0.00     0.219 C
HETATM    6  C9  UNL     1      35.387 161.656  57.626  1.00  0.00     0.050 C
BRANCH   5   7
HETATM    7  O4  UNL     1      35.617 160.007  59.287  1.00  0.00    -0.306 OA
BRANCH   7   8
HETATM    8  C10 UNL     1      34.993 158.800  59.546  1.00  0.00     0.264 C
HETATM    9  O5  UNL     1      35.524 158.081  60.443  1.00  0.00    -0.265 OA
BRANCH   8  10
HETATM   10  C11 UNL     1      33.772 158.343  58.835  1.00  0.00     0.095 A
HETATM   11  C12 UNL     1      32.713 157.707  59.710  1.00  0.00     0.025 A
HETATM   12  C13 UNL     1      32.502 159.056  59.117  1.00  0.00    -0.027 A
HETATM   13  C14 UNL     1      32.596 160.293  59.930  1.00  0.00     0.010 C
HETATM   14  C18 UNL     1      31.411 159.128  58.093  1.00  0.00     0.010 C
HETATM   15  C15 UNL     1      31.461 161.210  59.627  1.00  0.00     0.001 C
HETATM   16  C16 UNL     1      31.529 161.620  58.167  1.00  0.00     0.000 C
HETATM   17  C17 UNL     1      31.466 160.398  57.270  1.00  0.00     0.001 C
ENDBRANCH   8  10
ENDBRANCH   7   8
ENDBRANCH   5   7
ENDBRANCH   3   5
BRANCH   1  18
HETATM   18  C6  UNL     1      39.452 162.108  58.941  1.00  0.00     0.186 C
BRANCH  18  19
HETATM   19  C5  UNL     1      39.640 163.611  58.969  1.00  0.00     0.046 C
BRANCH  19  20
HETATM   20  C4  UNL     1      39.788 164.160  57.589  1.00  0.00     0.113 C
BRANCH  20  21
HETATM   21  C3  UNL     1      41.160 163.946  57.084  1.00  0.00     0.258 C
HETATM   22  O2  UNL     1      42.056 164.815  57.259  1.00  0.00    -0.265 OA
BRANCH  21  23
HETATM   23  O1  UNL     1      41.461 162.776  56.413  1.00  0.00    -0.322 OA
BRANCH  23  24
HETATM   24  C2  UNL     1      42.445 161.920  56.964  1.00  0.00     0.174 C
HETATM   25  C1  UNL     1      43.088 161.157  55.851  1.00  0.00     0.034 C
ENDBRANCH  23  24
ENDBRANCH  21  23
ENDBRANCH  20  21
ENDBRANCH  19  20
ENDBRANCH  18  19
BRANCH  18  26
HETATM   26  C19 UNL     1      40.031 161.559  60.171  1.00  0.00     0.196 C
HETATM   27  O6  UNL     1      40.205 162.217  61.228  1.00  0.00    -0.646 OA
HETATM   28  O7  UNL     1      40.421 160.226  60.188  1.00  0.00    -0.646 OA
ENDBRANCH  18  26
ENDBRANCH   1  18
TORSDOF 11
ENDMDL