MODEL 4
REMARK VINA RESULT: -4.816592161      2.022      3.977
REMARK  1 active torsions:
REMARK  status: ('A' for Active; 'I' for Inactive)
REMARK    1  A    between atoms: C2_2  and  C3_3
ROOT
HETATM    1  C3  UNL     1       6.831  31.198  21.314  1.00  0.00     0.151 C
HETATM    2  N1  UNL     1       7.417  32.063  20.319  1.00  0.00    -0.372 N
ATOM      3  H1  UNL     1       8.219  32.664  20.506  1.00  0.00     0.161 HD
HETATM    4  C4  UNL     1       6.773  32.001  19.057  1.00  0.00     0.178 C
HETATM    5  N2  UNL     1       6.674  30.676  18.491  1.00  0.00    -0.334 N
ATOM      6  H2  UNL     1       6.176  30.564  17.608  1.00  0.00     0.168 HD
HETATM    7  C5  UNL     1       7.231  29.529  19.094  1.00  0.00     0.140 C
HETATM    8  N3  UNL     1       7.655  28.554  18.414  1.00  0.00    -0.380 N
ATOM      9  H31 UNL     1       8.058  27.724  18.850  1.00  0.00     0.158 HD
ATOM     10  H32 UNL     1       7.606  28.569  17.395  1.00  0.00     0.158 HD
HETATM   11  S1  UNL     1       7.314  29.503  20.865  1.00  0.00    -0.069 SA
ENDROOT
BRANCH   1  12
HETATM   12  C2  UNL     1       7.273  31.516  22.706  1.00  0.00     0.032 C
HETATM   13  C1  UNL     1       8.090  30.392  23.299  1.00  0.00     0.008 C
ENDBRANCH   1  12
TORSDOF 1
ENDMDL