MODEL 5
REMARK VINA RESULT: -3.199135566      1.035      1.097
REMARK  2 active torsions:
REMARK  status: ('A' for Active; 'I' for Inactive)
REMARK    1  A    between atoms: C2_2  and  N1_4
REMARK    2  A    between atoms: N1_4  and  C4_7
ROOT
HETATM    1  C4  UNL     1       6.401  30.359  19.992  1.00  0.00     0.296 C
HETATM    2  C5  UNL     1       7.189  29.750  21.116  1.00  0.00     0.137 C
HETATM    3  S1  UNL     1       7.892  31.245  21.887  1.00  0.00    -0.091 SA
HETATM    4  C6  UNL     1       6.902  32.440  20.974  1.00  0.00     0.135 C
HETATM    5  N2  UNL     1       7.080  33.697  20.860  1.00  0.00    -0.380 N
ATOM      6  H21 UNL     1       6.519  34.374  20.344  1.00  0.00     0.158 HD
ATOM      7  H22 UNL     1       7.816  34.277  21.263  1.00  0.00     0.158 HD
HETATM    8  N3  UNL     1       5.869  31.626  20.410  1.00  0.00    -0.343 N
ATOM      9  H3  UNL     1       4.893  31.905  20.318  1.00  0.00     0.163 HD
ENDROOT
BRANCH   1  10
HETATM   10  N1  UNL     1       7.297  30.506  18.873  1.00  0.00    -0.050 N
ATOM     11  H12 UNL     1       8.254  30.649  19.199  1.00  0.00     0.280 HD
ATOM     12  H11 UNL     1       7.139  31.398  18.404  1.00  0.00     0.280 HD
BRANCH  10  13
HETATM   13  C2  UNL     1       7.243  29.425  17.930  1.00  0.00     0.180 C
HETATM   14  C1  UNL     1       8.133  29.600  16.753  1.00  0.00     0.039 C
HETATM   15  C3  UNL     1       7.415  28.065  18.593  1.00  0.00     0.039 C
ENDBRANCH  10  13
ENDBRANCH   1  10
TORSDOF 2
ENDMDL