MODEL 5
REMARK VINA RESULT: -2.692963144      2.096      3.207
REMARK  3 active torsions:
REMARK  status: ('A' for Active; 'I' for Inactive)
REMARK    1  A    between atoms: C7_7  and  N1_9
REMARK    2  A    between atoms: N1_9  and  N2_10
REMARK    3  A    between atoms: N2_10  and  N3_11
ROOT
HETATM    1  C1  UNL     1       7.045  28.872  19.267  1.00  0.00     0.012 C
HETATM    2  C2  UNL     1       6.845  29.694  20.538  1.00  0.00     0.007 C
HETATM    3  C3  UNL     1       7.919  29.226  21.482  1.00  0.00     0.006 C
HETATM    4  C4  UNL     1       8.018  29.976  22.748  1.00  0.00     0.001 C
HETATM    5  C5  UNL     1       7.411  31.332  22.679  1.00  0.00     0.002 C
HETATM    6  C6  UNL     1       7.544  31.967  21.321  1.00  0.00     0.028 C
HETATM    7  C7  UNL     1       6.884  31.150  20.232  1.00  0.00     0.048 C
HETATM    8  C8  UNL     1       7.665  31.359  18.969  1.00  0.00     0.036 C
ENDROOT
BRANCH   7   9
HETATM    9  N1  UNL     1       5.521  31.663  20.100  1.00  0.00    -0.116 NA
BRANCH   9  10
HETATM   10  N2  UNL     1       5.428  33.012  20.396  1.00  0.00    -0.038 NA
BRANCH  10  11
HETATM   11  N3  UNL     1       5.849  33.833  19.325  1.00  0.00    -0.332 N
ATOM     12  H32 UNL     1       6.798  33.812  18.952  1.00  0.00     0.173 HD
ATOM     13  H31 UNL     1       5.103  34.435  18.978  1.00  0.00     0.173 HD
ENDBRANCH  10  11
ENDBRANCH   9  10
ENDBRANCH   7   9
TORSDOF 3
ENDMDL