MODEL 4
REMARK VINA RESULT: -3.543048925      1.749      3.741
REMARK  2 active torsions:
REMARK  status: ('A' for Active; 'I' for Inactive)
REMARK    1  A    between atoms: N1_2  and  C2_5
REMARK    2  A    between atoms: C5_8  and  C6_9
ROOT
HETATM    1  C2  UNL     1       7.009  29.799  19.978  1.00  0.00     0.230 C
HETATM    2  C3  UNL     1       6.959  30.634  18.731  1.00  0.00     0.040 C
HETATM    3  C4  UNL     1       7.314  32.079  19.023  1.00  0.00     0.013 C
HETATM    4  C5  UNL     1       6.611  32.658  20.206  1.00  0.00     0.029 C
HETATM    5  C7  UNL     1       6.651  31.781  21.442  1.00  0.00     0.064 C
HETATM    6  C8  UNL     1       7.512  30.616  21.097  1.00  0.00     0.011 C
HETATM    7  N3  UNL     1       8.587  30.393  21.744  1.00  0.00    -0.404 N
ATOM      8  H31 UNL     1       8.935  30.959  22.518  1.00  0.00     0.155 HD
ATOM      9  H32 UNL     1       9.178  29.596  21.507  1.00  0.00     0.155 HD
ENDROOT
BRANCH   1  10
HETATM   10  N1  UNL     1       7.673  28.564  19.756  1.00  0.00    -0.070 N
HETATM   11  C1  UNL     1       7.718  28.287  18.338  1.00  0.00     0.267 C
ATOM     12  H12 UNL     1       7.252  27.800  20.285  1.00  0.00     0.277 HD
ATOM     13  H11 UNL     1       8.600  28.543  20.182  1.00  0.00     0.277 HD
ENDBRANCH   1  10
BRANCH   4  14
HETATM   14  C6  UNL     1       5.227  32.982  19.805  1.00  0.00     0.057 C
HETATM   15  N2  UNL     1       4.406  32.064  19.555  1.00  0.00    -0.411 N
ATOM     16  H22 UNL     1       4.714  31.094  19.635  1.00  0.00     0.155 HD
ATOM     17  H21 UNL     1       3.450  32.288  19.278  1.00  0.00     0.155 HD
ENDBRANCH   4  14
TORSDOF 2
ENDMDL