MODEL 2
REMARK VINA RESULT: -3.766570873      1.074      1.303
REMARK  1 active torsions:
REMARK  status: ('A' for Active; 'I' for Inactive)
REMARK    1  A    between atoms: C2_2  and  C3_3
ROOT
HETATM    1  C3  UNL     1       6.785  29.329  19.679  1.00  0.00     0.177 C
HETATM    2  N1  UNL     1       6.612  30.784  19.164  1.00  0.00    -0.359 N
ATOM      3  H1  UNL     1       6.389  31.110  18.223  1.00  0.00     0.162 HD
HETATM    4  C4  UNL     1       6.842  31.534  20.328  1.00  0.00     0.076 C
HETATM    5  N2  UNL     1       6.213  32.367  20.988  1.00  0.00    -0.380 N
ATOM      6  H2  UNL     1       5.298  32.750  20.750  1.00  0.00     0.160 HD
HETATM    7  C5  UNL     1       7.034  32.724  22.209  1.00  0.00     0.123 C
HETATM    8  C6  UNL     1       7.083  31.245  22.806  1.00  0.00     0.045 C
HETATM    9  C7  UNL     1       7.734  30.243  21.855  1.00  0.00     0.087 C
HETATM   10  C8  UNL     1       8.297  31.266  20.791  1.00  0.00     0.100 C
HETATM   11  N3  UNL     1       6.962  29.343  21.100  1.00  0.00    -0.397 N
ATOM     12  H3  UNL     1       6.471  28.618  21.624  1.00  0.00     0.155 HD
ENDROOT
BRANCH   1  13
HETATM   13  C2  UNL     1       7.687  28.638  18.785  1.00  0.00     0.042 C
HETATM   14  C1  UNL     1       7.645  29.157  17.346  1.00  0.00     0.009 C
ENDBRANCH   1  13
TORSDOF 1
ENDMDL