MODEL 4
REMARK VINA RESULT: -3.987726370      1.278      4.322
REMARK  1 active torsions:
REMARK  status: ('A' for Active; 'I' for Inactive)
REMARK    1  A    between atoms: C3_3  and  C4_4
ROOT
HETATM    1  C4  UNL     1       6.598  30.156  20.902  1.00  0.00     0.217 C
HETATM    2  C5  UNL     1       7.659  29.555  21.751  1.00  0.00     0.267 C
HETATM    3  N1  UNL     1       8.220  30.648  22.513  1.00  0.00    -0.049 N
ATOM      4  H11 UNL     1       9.220  30.544  22.689  1.00  0.00     0.279 HD
ATOM      5  H12 UNL     1       7.918  30.655  23.487  1.00  0.00     0.279 HD
HETATM    6  C6  UNL     1       7.890  31.864  21.805  1.00  0.00     0.463 C
HETATM    7  N2  UNL     1       6.759  31.582  20.972  1.00  0.00    -0.045 N
ATOM      8  H21 UNL     1       5.913  32.059  21.284  1.00  0.00     0.279 HD
ATOM      9  H22 UNL     1       6.831  32.016  20.051  1.00  0.00     0.279 HD
ENDROOT
BRANCH   1  10
HETATM   10  C3  UNL     1       6.554  29.630  19.495  1.00  0.00     0.021 C
HETATM   11  C2  UNL     1       6.556  30.676  18.442  1.00  0.00     0.026 C
HETATM   12  C1  UNL     1       7.729  30.672  17.533  1.00  0.00     0.114 C
HETATM   13  N3  UNL     1       8.223  29.398  17.151  1.00  0.00    -0.421 N
HETATM   14  C8  UNL     1       7.676  28.277  17.830  1.00  0.00     0.114 C
ATOM     15  H3  UNL     1       8.932  29.292  16.426  1.00  0.00     0.153 HD
HETATM   16  C7  UNL     1       7.653  28.601  19.318  1.00  0.00     0.026 C
ENDBRANCH   1  10
TORSDOF 1
ENDMDL