MODEL 2
REMARK VINA RESULT: -3.618077200      1.506      2.787
REMARK  1 active torsions:
REMARK  status: ('A' for Active; 'I' for Inactive)
REMARK    1  A    between atoms: C2_2  and  C3_3
ROOT
HETATM    1  C3  UNL     1       6.926  30.946  19.585  1.00  0.00     0.083 C
HETATM    2  C4  UNL     1       7.772  31.582  20.676  1.00  0.00     0.172 C
HETATM    3  N1  UNL     1       7.366  30.732  21.781  1.00  0.00    -0.139 NA
HETATM    4  N2  UNL     1       7.286  29.457  21.214  1.00  0.00    -0.310 N
ATOM      5  H2  UNL     1       7.409  28.585  21.730  1.00  0.00     0.181 HD
HETATM    6  C5  UNL     1       7.035  29.530  19.954  1.00  0.00     0.029 C
HETATM    7  C6  UNL     1       6.871  28.483  18.929  1.00  0.00     0.061 C
HETATM    8  C7  UNL     1       7.760  28.895  17.775  1.00  0.00     0.050 C
HETATM    9  C8  UNL     1       7.617  30.292  17.349  1.00  0.00     0.057 C
HETATM   10  N3  UNL     1       7.399  31.286  18.309  1.00  0.00    -0.387 N
ATOM     11  H3  UNL     1       7.585  32.262  18.080  1.00  0.00     0.159 HD
ENDROOT
BRANCH   1  12
HETATM   12  C2  UNL     1       5.508  31.450  19.864  1.00  0.00     0.034 C
HETATM   13  C1  UNL     1       5.369  32.926  19.784  1.00  0.00     0.008 C
ENDBRANCH   1  12
TORSDOF 1
ENDMDL