MODEL 5
REMARK VINA RESULT: -2.671938020      1.380      1.380
REMARK  1 active torsions:
REMARK  status: ('A' for Active; 'I' for Inactive)
REMARK    1  A    between atoms: C2_2  and  C3_3
ROOT
HETATM    1  C1  UNL     1       5.417  30.905  19.876  1.00  0.00     0.040 C
HETATM    2  C2  UNL     1       6.898  30.721  19.607  1.00  0.00     0.046 C
HETATM    3  C4  UNL     1       7.253  29.317  20.054  1.00  0.00     0.113 C
HETATM    4  S2  UNL     1       7.242  29.577  21.874  1.00  0.00    -0.092 SA
HETATM    5  C5  UNL     1       7.485  31.371  21.823  1.00  0.00     0.134 C
HETATM    6  N1  UNL     1       7.536  32.185  22.822  1.00  0.00    -0.380 N
ATOM      7  H11 UNL     1       7.673  33.196  22.792  1.00  0.00     0.158 HD
ATOM      8  H12 UNL     1       7.451  31.981  23.818  1.00  0.00     0.158 HD
HETATM    9  N2  UNL     1       7.603  31.655  20.439  1.00  0.00    -0.361 N
ATOM     10  H2  UNL     1       8.135  32.444  20.072  1.00  0.00     0.162 HD
ENDROOT
BRANCH   2  11
HETATM   11  C3  UNL     1       7.240  30.941  18.164  1.00  0.00     0.117 C
HETATM   12  S1  UNL     1       7.622  29.361  17.377  1.00  0.00    -0.095 SA
ENDBRANCH   2  11
TORSDOF 1
ENDMDL