MODEL 5
REMARK VINA RESULT: -4.385280011      8.364      9.324
REMARK  1 active torsions:
REMARK  status: ('A' for Active; 'I' for Inactive)
REMARK    1  A    between atoms: N1_2  and  N2_3
REMARK       I    between atoms: N2_3  and  C2_5
ROOT
HETATM    1  N2  UNL     1       9.417  22.167  17.408  1.00  0.00    -0.137 N
ATOM      2  H2  UNL     1      10.331  21.933  17.796  1.00  0.00     0.201 HD
HETATM    3  C2  UNL     1       9.297  22.475  16.022  1.00  0.00     0.685 C
HETATM    4  N3  UNL     1       8.272  21.881  15.519  1.00  0.00    -0.225 N
ATOM      5  H3  UNL     1       7.764  21.320  16.202  1.00  0.00     0.177 HD
HETATM    6  C3  UNL     1       7.679  21.831  14.193  1.00  0.00     0.138 C
HETATM    7  C4  UNL     1       8.815  21.797  13.188  1.00  0.00     0.020 C
HETATM    8  C5  UNL     1       9.081  23.209  12.693  1.00  0.00     0.003 C
HETATM    9  C6  UNL     1      10.473  23.637  13.070  1.00  0.00     0.020 C
HETATM   10  C7  UNL     1      10.436  24.281  14.437  1.00  0.00     0.138 C
HETATM   11  N4  UNL     1      10.302  23.344  15.507  1.00  0.00    -0.225 N
ATOM     12  H4  UNL     1      11.161  23.280  16.053  1.00  0.00     0.177 HD
ENDROOT
BRANCH   1  13
HETATM   13  N1  UNL     1       8.302  22.184  18.238  1.00  0.00    -0.131 NA
HETATM   14  C1  UNL     1       8.688  22.161  19.654  1.00  0.00     0.159 C
ENDBRANCH   1  13
TORSDOF 1
ENDMDL