MODEL 4
REMARK VINA RESULT: -3.163473739      1.686      2.591
REMARK  2 active torsions:
REMARK  status: ('A' for Active; 'I' for Inactive)
REMARK    1  A    between atoms: C2_2  and  C3_3
REMARK    2  A    between atoms: C3_3  and  O1_4
ROOT
HETATM    1  C3  UNL     1       6.675  31.026  19.938  1.00  0.00     0.258 C
HETATM    2  N1  UNL     1       5.349  31.487  19.627  1.00  0.00    -0.017 N
ATOM      3  H11 UNL     1       4.596  31.032  20.142  1.00  0.00     0.282 HD
ATOM      4  H12 UNL     1       5.000  31.225  18.705  1.00  0.00     0.282 HD
HETATM    5  C4  UNL     1       5.487  32.930  19.859  1.00  0.00     0.467 C
HETATM    6  N2  UNL     1       6.365  33.066  20.991  1.00  0.00    -0.038 N
ATOM      7  H21 UNL     1       5.866  33.270  21.857  1.00  0.00     0.280 HD
ATOM      8  H22 UNL     1       6.927  33.916  20.955  1.00  0.00     0.280 HD
HETATM    9  C5  UNL     1       7.164  31.868  21.073  1.00  0.00     0.177 C
HETATM   10  C6  UNL     1       7.049  31.187  22.415  1.00  0.00     0.051 C
HETATM   11  C7  UNL     1       8.608  32.271  20.857  1.00  0.00     0.051 C
ENDROOT
BRANCH   1  12
HETATM   12  C2  UNL     1       6.659  29.552  20.255  1.00  0.00     0.067 C
HETATM   13  C1  UNL     1       7.400  28.818  19.155  1.00  0.00     0.010 C
ENDBRANCH   1  12
BRANCH   1  14
HETATM   14  O1  UNL     1       7.482  31.306  18.821  1.00  0.00    -0.363 OA
ATOM     15  H1  UNL     1       7.908  32.151  18.902  1.00  0.00     0.212 HD
ENDBRANCH   1  14
TORSDOF 2
ENDMDL