MODEL 2
REMARK VINA RESULT: -7.026789778      3.534      6.632
REMARK  17 active torsions:
REMARK  status: ('A' for Active; 'I' for Inactive)
REMARK    1  A    between atoms: C5_11  and  N3_12
REMARK    2  A    between atoms: C6_19  and  O1_20
REMARK    3  A    between atoms: C8_24  and  N6_25
REMARK    4  A    between atoms: C9_29  and  O2_30
REMARK    5  A    between atoms: O2_30  and  C10_31
REMARK    6  A    between atoms: C10_31  and  C11_33
REMARK    7  A    between atoms: C11_33  and  O4_34
REMARK    8  A    between atoms: C11_33  and  C12_36
REMARK    9  A    between atoms: C12_36  and  C13_37
REMARK   10  A    between atoms: C13_37  and  O5_38
REMARK   11  A    between atoms: C13_37  and  C14_40
REMARK   12  A    between atoms: C14_40  and  O6_41
REMARK   13  A    between atoms: C14_40  and  C15_43
REMARK   14  A    between atoms: C15_43  and  O7_44
REMARK   15  A    between atoms: N7_46  and  N8_47
REMARK       I    between atoms: N8_47  and  C16_49
REMARK   16  A    between atoms: C16_49  and  C17_51
REMARK   17  A    between atoms: C17_51  and  N9_53
ROOT
HETATM    1  C1  UNL     1       7.268  16.557  36.040  1.00  0.00     0.146 C
HETATM    2  N1  UNL     1       8.285  16.635  37.054  1.00  0.00    -0.389 N
ATOM      3  H1  UNL     1       9.017  17.344  37.019  1.00  0.00     0.159 HD
HETATM    4  C2  UNL     1       8.232  15.793  37.980  1.00  0.00     0.090 C
HETATM    5  S1  UNL     1       6.965  14.502  38.114  1.00  0.00    -0.109 SA
HETATM    6  C3  UNL     1       7.085  13.887  39.824  1.00  0.00     0.135 C
HETATM    7  C4  UNL     1       7.534  14.965  40.712  1.00  0.00     0.301 C
HETATM    8  N2  UNL     1       7.983  14.489  42.035  1.00  0.00     0.000 N
ATOM      9  H21 UNL     1       8.881  14.005  42.019  1.00  0.00     0.284 HD
ATOM     10  H22 UNL     1       7.438  13.710  42.403  1.00  0.00     0.284 HD
HETATM   11  C5  UNL     1       7.964  15.687  42.886  1.00  0.00     0.584 C
HETATM   12  N4  UNL     1       8.884  16.715  42.383  1.00  0.00     0.023 N
ATOM     13  H41 UNL     1       9.864  16.435  42.423  1.00  0.00     0.287 HD
ATOM     14  H42 UNL     1       8.959  17.526  42.997  1.00  0.00     0.287 HD
HETATM   15  C6  UNL     1       8.429  17.053  41.021  1.00  0.00     0.432 C
HETATM   16  N5  UNL     1       8.526  15.855  40.286  1.00  0.00    -0.306 N
HETATM   17  C7  UNL     1       9.210  15.710  39.133  1.00  0.00     0.191 C
HETATM   18  C8  UNL     1       9.887  14.336  38.995  1.00  0.00     0.280 C
HETATM   19  C9  UNL     1      10.812  15.126  38.053  1.00  0.00     0.263 C
HETATM   20  N7  UNL     1      10.419  16.309  38.809  1.00  0.00    -0.159 NA
ENDROOT
BRANCH  18  21
HETATM   21  N6  UNL     1      10.524  13.841  40.176  1.00  0.00    -0.067 N
ATOM     22  H63 UNL     1      11.471  13.530  39.958  1.00  0.00     0.275 HD
ATOM     23  H62 UNL     1      10.729  14.612  40.811  1.00  0.00     0.275 HD
ATOM     24  H61 UNL     1      10.021  13.104  40.671  1.00  0.00     0.275 HD
ENDBRANCH  18  21
BRANCH  20  25
HETATM   25  N8  UNL     1      11.388  16.599  39.725  1.00  0.00    -0.282 N
HETATM   26  C16 UNL     1      11.923  17.930  39.747  1.00  0.00     0.262 C
HETATM   27  O8  UNL     1      11.525  18.822  38.954  1.00  0.00    -0.270 OA
ATOM     28  H8  UNL     1      11.723  15.888  40.376  1.00  0.00     0.184 HD
BRANCH  26  29
HETATM   29  C17 UNL     1      12.984  18.344  40.706  1.00  0.00     0.272 C
HETATM   30  C18 UNL     1      12.411  18.169  42.120  1.00  0.00     0.050 C
BRANCH  29  31
HETATM   31  N9  UNL     1      14.186  17.552  40.552  1.00  0.00    -0.067 N
ATOM     32  H93 UNL     1      14.740  17.869  39.758  1.00  0.00     0.275 HD
ATOM     33  H92 UNL     1      14.854  17.742  41.300  1.00  0.00     0.275 HD
ATOM     34  H91 UNL     1      13.978  16.556  40.486  1.00  0.00     0.275 HD
ENDBRANCH  29  31
ENDBRANCH  26  29
ENDBRANCH  20  25
BRANCH  15  35
HETATM   35  O1  UNL     1       8.969  18.185  40.521  1.00  0.00    -0.354 OA
ATOM     36  H1  UNL     1       9.877  18.101  40.258  1.00  0.00     0.213 HD
ENDBRANCH  15  35
BRANCH  19  37
HETATM   37  O2  UNL     1      12.136  14.669  38.309  1.00  0.00    -0.295 OA
BRANCH  37  38
HETATM   38  C10 UNL     1      13.086  14.815  37.324  1.00  0.00     0.289 C
HETATM   39  O3  UNL     1      12.833  14.371  36.169  1.00  0.00    -0.262 OA
BRANCH  38  40
HETATM   40  C11 UNL     1      14.378  15.476  37.609  1.00  0.00     0.220 C
BRANCH  40  41
HETATM   41  O4  UNL     1      14.684  15.307  38.965  1.00  0.00    -0.385 OA
ATOM     42  H4  UNL     1      15.627  15.338  39.074  1.00  0.00     0.210 HD
ENDBRANCH  40  41
BRANCH  40  43
HETATM   43  C12 UNL     1      15.488  14.941  36.732  1.00  0.00     0.076 C
BRANCH  43  44
HETATM   44  C13 UNL     1      15.856  13.532  37.110  1.00  0.00     0.151 C
BRANCH  44  45
HETATM   45  O5  UNL     1      16.630  13.591  38.278  1.00  0.00    -0.393 OA
ATOM     46  H5  UNL     1      16.202  14.188  38.881  1.00  0.00     0.210 HD
ENDBRANCH  44  45
BRANCH  44  47
HETATM   47  C14 UNL     1      16.601  12.804  36.012  1.00  0.00     0.170 C
BRANCH  47  48
HETATM   48  O6  UNL     1      17.746  13.535  35.630  1.00  0.00    -0.391 OA
ATOM     49  H6  UNL     1      18.472  12.947  35.464  1.00  0.00     0.210 HD
ENDBRANCH  47  48
BRANCH  47  50
HETATM   50  C15 UNL     1      17.145  11.498  36.577  1.00  0.00     0.198 C
BRANCH  50  51
HETATM   51  O7  UNL     1      18.471  11.640  36.907  1.00  0.00    -0.398 OA
ATOM     52  H7  UNL     1      18.615  11.379  37.809  1.00  0.00     0.209 HD
ENDBRANCH  50  51
ENDBRANCH  47  50
ENDBRANCH  44  47
ENDBRANCH  43  44
ENDBRANCH  40  43
ENDBRANCH  38  40
ENDBRANCH  37  38
ENDBRANCH  19  37
BRANCH  11  53
HETATM   53  N3  UNL     1       8.307  15.280  44.212  1.00  0.00    -0.025 N
ATOM     54  H33 UNL     1       7.948  15.914  44.927  1.00  0.00     0.278 HD
ATOM     55  H32 UNL     1       7.808  14.443  44.513  1.00  0.00     0.278 HD
ATOM     56  H31 UNL     1       9.321  15.173  44.250  1.00  0.00     0.278 HD
ENDBRANCH  11  53
TORSDOF 17
ENDMDL