MODEL 3
REMARK VINA RESULT: -9.140819854      1.337      1.567
REMARK  13 active torsions:
REMARK  status: ('A' for Active; 'I' for Inactive)
REMARK    1  A    between atoms: N5_15  and  C6_16
REMARK    2  A    between atoms: C7_18  and  C8_19
REMARK    3  A    between atoms: C8_19  and  N6_20
REMARK    4  A    between atoms: N6_20  and  S1_22
REMARK    5  A    between atoms: S1_22  and  N7_25
REMARK    6  A    between atoms: N7_25  and  C9_27
REMARK    7  A    between atoms: C9_27  and  C10_28
REMARK    8  A    between atoms: C10_28  and  N8_29
REMARK    9  A    between atoms: C12_34  and  O5_35
REMARK   10  A    between atoms: C13_39  and  N11_40
REMARK   11  A    between atoms: C14_43  and  O6_44
REMARK   12  A    between atoms: C15_46  and  O7_47
REMARK   13  A    between atoms: C16_49  and  O8_50
ROOT
HETATM    1  C6  UNL     1      12.202  15.296  38.918  1.00  0.00     0.262 C
HETATM    2  O1  UNL     1      11.233  15.499  37.961  1.00  0.00    -0.354 OA
HETATM    3  C7  UNL     1      11.714  16.131  36.819  1.00  0.00     0.174 C
HETATM    4  C14 UNL     1      12.655  15.253  36.036  1.00  0.00     0.180 C
HETATM    5  C15 UNL     1      13.536  14.535  37.005  1.00  0.00     0.182 C
HETATM    6  C16 UNL     1      13.587  15.195  38.369  1.00  0.00     0.198 C
ENDROOT
BRANCH   3   7
HETATM    7  C8  UNL     1      10.517  16.410  35.905  1.00  0.00     0.168 C
BRANCH   7   8
HETATM    8  N6  UNL     1       9.459  16.882  36.741  1.00  0.00    -0.300 N
ATOM      9  H6  UNL     1       9.567  17.698  37.343  1.00  0.00     0.173 HD
BRANCH   8  10
HETATM   10  S1  UNL     1       8.013  15.998  36.669  1.00  0.00     0.315 S
HETATM   11  O2  UNL     1       8.379  14.525  36.548  1.00  0.00    -0.183 OA
HETATM   12  O3  UNL     1       7.312  16.345  35.377  1.00  0.00    -0.183 OA
BRANCH  10  13
HETATM   13  N7  UNL     1       6.990  16.167  38.020  1.00  0.00    -0.301 N
ATOM     14  H7  UNL     1       6.130  16.716  38.026  1.00  0.00     0.173 HD
BRANCH  13  15
HETATM   15  C9  UNL     1       7.493  15.442  39.142  1.00  0.00     0.154 C
BRANCH  15  16
HETATM   16  C10 UNL     1       6.656  15.795  40.351  1.00  0.00     0.173 C
BRANCH  16  17
HETATM   17  N8  UNL     1       7.402  15.906  41.558  1.00  0.00    -0.131 N
HETATM   18  C11 UNL     1       7.466  14.893  42.433  1.00  0.00     0.344 A
HETATM   19  O4  UNL     1       6.872  13.795  42.232  1.00  0.00    -0.246 OA
HETATM   20  N9  UNL     1       8.169  14.977  43.585  1.00  0.00    -0.273 N
HETATM   21  C12 UNL     1       8.826  16.096  43.876  1.00  0.00     0.239 A
ATOM     22  H9  UNL     1       8.196  14.186  44.228  1.00  0.00     0.174 HD
HETATM   23  N10 UNL     1       8.784  17.123  43.027  1.00  0.00    -0.155 N
HETATM   24  C13 UNL     1       8.081  17.035  41.879  1.00  0.00     0.685 A
ATOM     25  H10 UNL     1       9.288  17.982  43.247  1.00  0.00     0.188 HD
BRANCH  21  26
HETATM   26  O5  UNL     1       9.563  16.201  45.069  1.00  0.00    -0.332 OA
ATOM     27  H5  UNL     1       9.910  17.040  45.349  1.00  0.00     0.221 HD
ENDBRANCH  21  26
BRANCH  24  28
HETATM   28  N11 UNL     1       8.082  18.064  41.103  1.00  0.00    -0.234 N
ATOM     29 2H11 UNL     1       8.835  18.135  40.420  1.00  0.00     0.174 HD
ATOM     30 1H11 UNL     1       7.359  18.781  41.168  1.00  0.00     0.174 HD
ENDBRANCH  24  28
ENDBRANCH  16  17
ENDBRANCH  15  16
ENDBRANCH  13  15
ENDBRANCH  10  13
ENDBRANCH   8  10
ENDBRANCH   7   8
ENDBRANCH   3   7
BRANCH   4  31
HETATM   31  O6  UNL     1      11.878  14.383  35.258  1.00  0.00    -0.390 OA
ATOM     32  H6  UNL     1      11.502  14.889  34.547  1.00  0.00     0.210 HD
ENDBRANCH   4  31
BRANCH   1  33
HETATM   33  N5  UNL     1      12.066  16.347  39.909  1.00  0.00    -0.297 N
HETATM   34  C3  UNL     1      12.258  16.194  41.239  1.00  0.00     0.142 A
HETATM   35  N3  UNL     1      12.598  15.131  41.976  1.00  0.00    -0.336 N
HETATM   36  C4  UNL     1      12.039  17.404  41.851  1.00  0.00     0.122 A
HETATM   37  C2  UNL     1      12.726  15.247  43.304  1.00  0.00     0.183 A
ATOM     38  H3  UNL     1      12.761  14.231  41.525  1.00  0.00     0.168 HD
HETATM   39  N2  UNL     1      12.519  16.417  43.932  1.00  0.00    -0.337 N
HETATM   40  C1  UNL     1      12.178  17.497  43.223  1.00  0.00     0.131 A
ATOM     41  H2  UNL     1      12.621  16.479  44.945  1.00  0.00     0.168 HD
HETATM   42  N1  UNL     1      11.983  18.611  43.838  1.00  0.00    -0.383 N
ATOM     43  H12 UNL     1      12.085  18.679  44.850  1.00  0.00     0.157 HD
ATOM     44  H11 UNL     1      11.723  19.435  43.297  1.00  0.00     0.157 HD
HETATM   45  N4  UNL     1      11.713  18.298  40.895  1.00  0.00    -0.346 N
HETATM   46  C5  UNL     1      11.736  17.634  39.728  1.00  0.00     0.188 A
ATOM     47  H4  UNL     1      11.492  19.284  41.032  1.00  0.00     0.167 HD
ENDBRANCH   1  33
BRANCH   5  48
HETATM   48  O7  UNL     1      14.849  14.487  36.534  1.00  0.00    -0.390 OA
ATOM     49  H7  UNL     1      15.359  13.853  37.026  1.00  0.00     0.210 HD
ENDBRANCH   5  48
BRANCH   6  50
HETATM   50  O8  UNL     1      14.255  16.394  38.349  1.00  0.00    -0.388 OA
ATOM     51  H8  UNL     1      15.200  16.301  38.392  1.00  0.00     0.210 HD
ENDBRANCH   6  50
TORSDOF 13
ENDMDL