MODEL 4
REMARK VINA RESULT: -6.517365522      2.437      7.414
REMARK  16 active torsions:
REMARK  status: ('A' for Active; 'I' for Inactive)
REMARK    1  A    between atoms: N1_1  and  C1_4
REMARK    2  A    between atoms: C2_7  and  N3_8
REMARK    3  A    between atoms: C3_11  and  C4_12
REMARK       I    between atoms: C4_12  and  N4_14
REMARK    4  A    between atoms: N4_14  and  S1_16
REMARK    5  A    between atoms: S1_16  and  C5_19
REMARK    6  A    between atoms: C6_21  and  C7_22
REMARK    7  A    between atoms: C7_22  and  O7_23
REMARK    8  A    between atoms: C8_25  and  O8_26
REMARK    9  A    between atoms: C8_25  and  C10_36
REMARK   10  A    between atoms: O8_26  and  C9_27
REMARK   11  A    between atoms: C9_27  and  N5_28
REMARK   12  A    between atoms: C9_27  and  N6_32
REMARK   13  A    between atoms: C10_36  and  O9_37
REMARK   14  A    between atoms: C10_36  and  O10_39
REMARK   15  A    between atoms: C11_41  and  N7_42
REMARK       I    between atoms: N7_42  and  C12_44
REMARK   16  A    between atoms: C13_47  and  O12_48
ROOT
HETATM    1  C5  UNL     1      12.617  16.024  39.678  1.00  0.00     0.295 C
HETATM    2  O6  UNL     1      12.586  17.310  40.110  1.00  0.00    -0.355 OA
HETATM    3  C6  UNL     1      11.364  17.864  40.395  1.00  0.00     0.189 C
HETATM    4  C8  UNL     1      10.468  17.005  41.234  1.00  0.00     0.165 C
HETATM    5  C11 UNL     1      10.516  15.533  40.951  1.00  0.00     0.160 C
HETATM    6  C13 UNL     1      11.908  15.063  40.609  1.00  0.00     0.189 C
ENDROOT
BRANCH   1   7
HETATM    7  S1  UNL     1      14.302  15.487  39.598  1.00  0.00     0.263 S
HETATM    8  O4  UNL     1      15.246  16.606  40.016  1.00  0.00    -0.203 OA
HETATM    9  O5  UNL     1      14.572  14.330  40.513  1.00  0.00    -0.203 OA
BRANCH   7  10
HETATM   10  N4  UNL     1      14.785  15.032  38.000  1.00  0.00    -0.248 N
HETATM   11  C4  UNL     1      14.559  15.969  36.969  1.00  0.00     0.270 C
HETATM   12  O3  UNL     1      14.023  17.109  37.234  1.00  0.00    -0.266 OA
ATOM     13  H4  UNL     1      15.214  14.126  37.811  1.00  0.00     0.182 HD
BRANCH  11  14
HETATM   14  C3  UNL     1      14.892  15.790  35.566  1.00  0.00     0.099 A
HETATM   15  C2  UNL     1      15.708  14.830  35.077  1.00  0.00     0.205 A
HETATM   16  N2  UNL     1      16.039  14.890  33.745  1.00  0.00    -0.170 N
HETATM   17  C1  UNL     1      15.559  15.868  32.969  1.00  0.00     0.677 A
ATOM     18  H2  UNL     1      16.656  14.183  33.345  1.00  0.00     0.186 HD
HETATM   19  N9  UNL     1      14.744  16.819  33.453  1.00  0.00    -0.201 N
HETATM   20  C14 UNL     1      14.400  16.805  34.722  1.00  0.00     0.127 A
ATOM     21  H9  UNL     1      14.392  17.552  32.837  1.00  0.00     0.183 HD
BRANCH  15  22
HETATM   22  N3  UNL     1      16.191  13.752  35.844  1.00  0.00    -0.096 N
HETATM   23  O1  UNL     1      17.342  13.809  36.394  1.00  0.00    -0.530 OA
HETATM   24  O2  UNL     1      15.510  12.598  36.064  1.00  0.00    -0.530 OA
ENDBRANCH  15  22
BRANCH  17  25
HETATM   25  N1  UNL     1      15.857  15.949  31.700  1.00  0.00    -0.234 N
ATOM     26  H12 UNL     1      16.434  15.199  31.320  1.00  0.00     0.174 HD
ATOM     27  H11 UNL     1      15.530  16.722  31.118  1.00  0.00     0.174 HD
ENDBRANCH  17  25
ENDBRANCH  11  14
ENDBRANCH   7  10
ENDBRANCH   1   7
BRANCH   6  28
HETATM   28  O12 UNL     1      11.800  13.837  39.957  1.00  0.00    -0.390 OA
ATOM     29  H12 UNL     1      11.472  14.001  39.080  1.00  0.00     0.210 HD
ENDBRANCH   6  28
BRANCH   3  30
HETATM   30  C7  UNL     1      10.802  18.569  39.210  1.00  0.00     0.199 C
BRANCH  30  31
HETATM   31  O7  UNL     1      10.417  17.813  38.141  1.00  0.00    -0.398 OA
ATOM     32  H7  UNL     1       9.895  18.231  37.467  1.00  0.00     0.209 HD
ENDBRANCH  30  31
ENDBRANCH   3  30
BRANCH   5  33
HETATM   33  N7  UNL     1       9.530  15.041  40.026  1.00  0.00    -0.335 N
HETATM   34  C12 UNL     1       8.275  14.493  40.367  1.00  0.00     0.329 C
HETATM   35  N8  UNL     1       7.370  14.035  39.385  1.00  0.00    -0.040 NA
HETATM   36  O11 UNL     1       7.951  14.409  41.571  1.00  0.00    -0.251 OA
ATOM     37  H7  UNL     1       9.758  15.093  39.034  1.00  0.00     0.164 HD
ENDBRANCH   5  33
BRANCH   4  38
HETATM   38  O8  UNL     1      10.978  17.183  42.499  1.00  0.00    -0.318 OA
BRANCH  38  39
HETATM   39  C9  UNL     1      10.958  16.302  43.465  1.00  0.00     0.520 C
BRANCH  39  40
HETATM   40  N5  UNL     1      10.168  16.870  44.589  1.00  0.00    -0.027 N
ATOM     41  H53 UNL     1       9.504  17.582  44.283  1.00  0.00     0.279 HD
ATOM     42  H52 UNL     1       9.491  16.208  44.969  1.00  0.00     0.279 HD
ATOM     43  H51 UNL     1      10.821  17.214  45.292  1.00  0.00     0.279 HD
ENDBRANCH  39  40
BRANCH  39  44
HETATM   44  N6  UNL     1      12.304  16.207  44.046  1.00  0.00    -0.027 N
ATOM     45  H63 UNL     1      13.037  16.220  43.336  1.00  0.00     0.279 HD
ATOM     46  H62 UNL     1      12.575  17.055  44.543  1.00  0.00     0.279 HD
ATOM     47  H61 UNL     1      12.348  15.377  44.637  1.00  0.00     0.279 HD
ENDBRANCH  39  44
ENDBRANCH  38  39
ENDBRANCH   4  38
BRANCH   4  48
HETATM   48  C10 UNL     1       9.075  17.564  41.148  1.00  0.00     0.293 C
BRANCH  48  49
HETATM   49  O9  UNL     1       8.356  17.178  40.049  1.00  0.00    -0.368 OA
ATOM     50  H9  UNL     1       8.204  17.857  39.403  1.00  0.00     0.212 HD
ENDBRANCH  48  49
BRANCH  48  51
HETATM   51  O10 UNL     1       8.271  17.334  42.242  1.00  0.00    -0.368 OA
ATOM     52  H10 UNL     1       8.177  18.063  42.844  1.00  0.00     0.212 HD
ENDBRANCH  48  51
ENDBRANCH   4  48
TORSDOF 16
ENDMDL