MODEL 5
REMARK VINA RESULT: -7.898842370      3.663      5.800
REMARK  16 active torsions:
REMARK  status: ('A' for Active; 'I' for Inactive)
REMARK    1  A    between atoms: N1_1  and  C1_4
REMARK    2  A    between atoms: C3_9  and  C4_10
REMARK       I    between atoms: C4_10  and  N3_12
REMARK    3  A    between atoms: N3_12  and  C5_14
REMARK    4  A    between atoms: C6_16  and  C7_17
REMARK    5  A    between atoms: C7_17  and  O4_18
REMARK    6  A    between atoms: C8_20  and  N4_21
REMARK    7  A    between atoms: C9_22  and  O5_23
REMARK    8  A    between atoms: C13_33  and  N7_34
REMARK    9  A    between atoms: N8_37  and  C14_38
REMARK   10  A    between atoms: C14_38  and  O7_39
REMARK   11  A    between atoms: C15_41  and  O8_42
REMARK   12  A    between atoms: N10_46  and  C16_47
REMARK   13  A    between atoms: C16_47  and  C17_48
REMARK   14  A    between atoms: C17_48  and  O9_49
REMARK   15  A    between atoms: C17_48  and  C18_51
REMARK   16  A    between atoms: C18_51  and  O10_52
ROOT
HETATM    1  C5  UNL     1      14.089  16.198  37.232  1.00  0.00     0.255 C
HETATM    2  O3  UNL     1      14.617  15.065  37.789  1.00  0.00    -0.354 OA
HETATM    3  C6  UNL     1      14.339  15.016  39.123  1.00  0.00     0.173 C
HETATM    4  C8  UNL     1      13.765  16.352  39.553  1.00  0.00     0.158 C
HETATM    5  C15 UNL     1      13.234  16.885  38.238  1.00  0.00     0.192 C
ENDROOT
BRANCH   1   6
HETATM    6  N3  UNL     1      13.371  15.835  36.013  1.00  0.00    -0.327 N
HETATM    7  C4  UNL     1      13.680  16.391  34.762  1.00  0.00     0.277 C
HETATM    8  O2  UNL     1      14.599  17.231  34.664  1.00  0.00    -0.266 OA
ATOM      9  H3  UNL     1      12.616  15.152  36.073  1.00  0.00     0.165 HD
BRANCH   7  10
HETATM   10  C3  UNL     1      12.948  16.011  33.567  1.00  0.00     0.185 A
HETATM   11  C2  UNL     1      12.872  14.683  33.154  1.00  0.00     0.293 A
HETATM   12  N2  UNL     1      12.200  14.310  32.054  1.00  0.00    -0.153 N
HETATM   13  O1  UNL     1      13.462  13.838  33.856  1.00  0.00    -0.265 OA
HETATM   14  C1  UNL     1      11.571  15.266  31.319  1.00  0.00     0.695 A
ATOM     15  H2  UNL     1      12.161  13.330  31.775  1.00  0.00     0.187 HD
HETATM   16  N10 UNL     1      11.635  16.551  31.705  1.00  0.00    -0.121 N
HETATM   17  N9  UNL     1      12.310  16.915  32.808  1.00  0.00    -0.274 N
ATOM     18  H9  UNL     1      12.339  17.900  33.073  1.00  0.00     0.188 HD
BRANCH  14  19
HETATM   19  N1  UNL     1      10.917  14.958  30.245  1.00  0.00    -0.233 N
ATOM     20  H12 UNL     1      11.372  14.393  29.528  1.00  0.00     0.174 HD
ATOM     21  H11 UNL     1       9.955  15.266  30.110  1.00  0.00     0.174 HD
ENDBRANCH  14  19
BRANCH  16  22
HETATM   22  C16 UNL     1      10.949  17.560  30.915  1.00  0.00     0.201 C
BRANCH  22  23
HETATM   23  C17 UNL     1      11.916  18.628  30.498  1.00  0.00     0.162 C
BRANCH  23  24
HETATM   24  O9  UNL     1      12.301  19.476  31.519  1.00  0.00    -0.392 OA
ATOM     25  H9  UNL     1      12.254  20.399  31.298  1.00  0.00     0.210 HD
ENDBRANCH  23  24
BRANCH  23  26
HETATM   26  C18 UNL     1      11.283  19.474  29.407  1.00  0.00     0.197 C
BRANCH  26  27
HETATM   27  O10 UNL     1      12.062  20.619  29.223  1.00  0.00    -0.398 OA
ATOM     28  H10 UNL     1      11.508  21.310  28.879  1.00  0.00     0.209 HD
ENDBRANCH  26  27
ENDBRANCH  23  26
ENDBRANCH  22  23
ENDBRANCH  16  22
ENDBRANCH   7  10
ENDBRANCH   1   6
BRANCH   5  29
HETATM   29  O8  UNL     1      13.514  18.268  38.165  1.00  0.00    -0.389 OA
ATOM     30  H8  UNL     1      12.687  18.724  38.060  1.00  0.00     0.210 HD
ENDBRANCH   5  29
BRANCH   3  31
HETATM   31  C7  UNL     1      15.675  14.814  39.852  1.00  0.00     0.198 C
BRANCH  31  32
HETATM   32  O4  UNL     1      16.610  15.753  39.419  1.00  0.00    -0.398 OA
ATOM     33  H4  UNL     1      16.993  16.205  40.162  1.00  0.00     0.209 HD
ENDBRANCH  31  32
ENDBRANCH   3  31
BRANCH   4  34
HETATM   34  N4  UNL     1      12.723  16.138  40.487  1.00  0.00    -0.295 N
HETATM   35  C9  UNL     1      11.982  15.028  40.550  1.00  0.00     0.226 A
HETATM   36  N5  UNL     1      11.079  15.126  41.538  1.00  0.00    -0.305 N
HETATM   37  C10 UNL     1      11.233  16.338  42.138  1.00  0.00     0.161 A
ATOM     38  H5  UNL     1      10.395  14.415  41.796  1.00  0.00     0.171 HD
HETATM   39  C11 UNL     1      12.272  16.942  41.452  1.00  0.00     0.152 A
HETATM   40  N8  UNL     1      10.589  16.934  43.171  1.00  0.00    -0.144 N
HETATM   41  C12 UNL     1      12.619  18.213  41.892  1.00  0.00     0.290 A
HETATM   42  O6  UNL     1      13.547  18.788  41.301  1.00  0.00    -0.265 OA
HETATM   43  N6  UNL     1      11.951  18.775  42.929  1.00  0.00    -0.154 N
HETATM   44  C13 UNL     1      10.946  18.161  43.574  1.00  0.00     0.684 A
ATOM     45  H6  UNL     1      12.225  19.709  43.234  1.00  0.00     0.187 HD
BRANCH  35  46
HETATM   46  O5  UNL     1      12.049  13.866  39.755  1.00  0.00    -0.332 OA
ATOM     47  H5  UNL     1      11.403  13.511  39.157  1.00  0.00     0.221 HD
ENDBRANCH  35  46
BRANCH  44  48
HETATM   48  N7  UNL     1      10.333  18.752  44.573  1.00  0.00    -0.234 N
ATOM     49  H72 UNL     1       9.444  19.236  44.435  1.00  0.00     0.174 HD
ATOM     50  H71 UNL     1      10.735  18.740  45.510  1.00  0.00     0.174 HD
ENDBRANCH  44  48
BRANCH  40  51
HETATM   51  C14 UNL     1       9.511  16.248  43.848  1.00  0.00     0.316 C
BRANCH  51  52
HETATM   52  O7  UNL     1       9.698  16.155  45.207  1.00  0.00    -0.381 OA
ATOM     53  H7  UNL     1       8.931  15.839  45.670  1.00  0.00     0.211 HD
ENDBRANCH  51  52
ENDBRANCH  40  51
ENDBRANCH   4  34
TORSDOF 16
ENDMDL