MODEL 1
REMARK VINA RESULT: -8.857574774      0.000      0.000
REMARK  14 active torsions:
REMARK  status: ('A' for Active; 'I' for Inactive)
REMARK    1  A    between atoms: C2_2  and  N1_3
REMARK       I    between atoms: N1_3  and  C3_5
REMARK    2  A    between atoms: C3_5  and  C4_7
REMARK    3  A    between atoms: N2_9  and  C6_10
REMARK    4  A    between atoms: C6_10  and  C7_11
REMARK    5  A    between atoms: C8_13  and  N3_14
REMARK    6  A    between atoms: C9_15  and  N4_16
REMARK    7  A    between atoms: N6_21  and  C10_22
REMARK    8  A    between atoms: C10_22  and  C11_23
REMARK    9  A    between atoms: C10_22  and  C13_34
REMARK       I    between atoms: C11_23  and  N7_25
REMARK   10  A    between atoms: N7_25  and  N8_27
REMARK       I    between atoms: N8_27  and  C12_29
REMARK   11  A    between atoms: C13_34  and  O4_36
REMARK   12  A    between atoms: C16_40  and  O6_41
REMARK   13  A    between atoms: C17_43  and  O7_44
REMARK   14  A    between atoms: C18_46  and  O8_47
ROOT
HETATM    1  C7  UNL     1      11.593  17.642  41.506  1.00  0.00     0.175 C
HETATM    2  O2  UNL     1      11.058  16.425  41.121  1.00  0.00    -0.353 OA
HETATM    3  C8  UNL     1       9.827  16.128  41.655  1.00  0.00     0.282 C
HETATM    4  C16 UNL     1       9.368  17.153  42.668  1.00  0.00     0.199 C
HETATM    5  C17 UNL     1      10.498  17.351  43.697  1.00  0.00     0.182 C
HETATM    6  C18 UNL     1      11.763  17.787  43.002  1.00  0.00     0.180 C
ENDROOT
BRANCH   3   7
HETATM    7  N3  UNL     1       8.836  15.776  40.679  1.00  0.00    -0.100 N
HETATM    8  C9  UNL     1       8.838  16.176  39.405  1.00  0.00     0.699 A
HETATM    9  N5  UNL     1       7.759  15.643  38.820  1.00  0.00    -0.125 N
HETATM   10  N6  UNL     1       7.068  14.915  39.675  1.00  0.00    -0.211 N
ATOM     11  H5  UNL     1       7.504  15.782  37.843  1.00  0.00     0.206 HD
HETATM   12  C15 UNL     1       7.759  15.007  40.852  1.00  0.00     0.361 A
HETATM   13  O5  UNL     1       7.345  14.408  41.879  1.00  0.00    -0.244 OA
BRANCH   8  14
HETATM   14  N4  UNL     1       9.726  16.954  38.814  1.00  0.00    -0.233 N
ATOM     15  H42 UNL     1      10.706  17.046  39.081  1.00  0.00     0.174 HD
ATOM     16  H41 UNL     1       9.573  17.569  38.015  1.00  0.00     0.174 HD
ENDBRANCH   8  14
BRANCH  10  17
HETATM   17  C10 UNL     1       5.819  14.165  39.445  1.00  0.00     0.235 C
BRANCH  17  18
HETATM   18  C11 UNL     1       5.852  13.469  38.163  1.00  0.00     0.263 C
HETATM   19  O3  UNL     1       5.794  14.070  37.070  1.00  0.00    -0.269 OA
HETATM   20  N7  UNL     1       5.957  12.057  38.155  1.00  0.00    -0.266 N
ATOM     21  H7  UNL     1       5.996  11.558  39.044  1.00  0.00     0.190 HD
BRANCH  20  22
HETATM   22  N8  UNL     1       6.008  11.317  36.946  1.00  0.00    -0.271 N
HETATM   23  C12 UNL     1       6.787  10.136  36.849  1.00  0.00     0.200 C
HETATM   24  N9  UNL     1       7.648  10.027  35.880  1.00  0.00    -0.372 N
HETATM   25  N10 UNL     1       6.677   9.060  37.760  1.00  0.00    -0.062 NA
ATOM     26  H92 UNL     1       7.728  10.804  35.224  1.00  0.00     0.158 HD
ATOM     27  H91 UNL     1       8.209   9.178  35.810  1.00  0.00     0.158 HD
ATOM     28  H8  UNL     1       5.478  11.637  36.137  1.00  0.00     0.189 HD
ENDBRANCH  20  22
ENDBRANCH  17  18
BRANCH  17  29
HETATM   29  C13 UNL     1       4.674  15.109  39.662  1.00  0.00     0.148 C
HETATM   30  C14 UNL     1       4.000  14.806  40.987  1.00  0.00     0.042 C
BRANCH  29  31
HETATM   31  O4  UNL     1       5.254  16.395  39.813  1.00  0.00    -0.393 OA
ATOM     32  H4  UNL     1       4.645  16.895  40.345  1.00  0.00     0.210 HD
ENDBRANCH  29  31
ENDBRANCH  17  29
ENDBRANCH  10  17
ENDBRANCH   3   7
BRANCH   4  33
HETATM   33  O6  UNL     1       8.271  16.701  43.399  1.00  0.00    -0.388 OA
ATOM     34  H6  UNL     1       7.571  17.342  43.416  1.00  0.00     0.210 HD
ENDBRANCH   4  33
BRANCH   1  35
HETATM   35  C6  UNL     1      12.824  17.961  40.725  1.00  0.00     0.184 C
BRANCH  35  36
HETATM   36  N2  UNL     1      13.603  16.833  40.291  1.00  0.00    -0.284 N
HETATM   37  C5  UNL     1      14.146  16.675  39.063  1.00  0.00     0.148 A
HETATM   38  C4  UNL     1      14.812  15.464  39.015  1.00  0.00     0.134 A
HETATM   39  N12 UNL     1      14.646  14.919  40.248  1.00  0.00    -0.280 N
HETATM   40  N11 UNL     1      13.926  15.753  40.976  1.00  0.00    -0.240 N
ATOM     41  H12 UNL     1      15.013  14.019  40.559  1.00  0.00     0.189 HD
ATOM     42  H11 UNL     1      13.655  15.585  41.945  1.00  0.00     0.208 HD
BRANCH  38  43
HETATM   43  C3  UNL     1      15.537  14.868  37.899  1.00  0.00     0.271 C
HETATM   44  N1  UNL     1      15.296  15.313  36.577  1.00  0.00    -0.356 N
ATOM     45  H1  UNL     1      14.613  16.053  36.417  1.00  0.00     0.162 HD
HETATM   46  O1  UNL     1      16.380  13.956  38.087  1.00  0.00    -0.266 OA
BRANCH  44  47
HETATM   47  C2  UNL     1      16.001  14.737  35.444  1.00  0.00     0.118 C
HETATM   48  C1  UNL     1      15.612  15.405  34.150  1.00  0.00     0.026 C
ENDBRANCH  44  47
ENDBRANCH  38  43
ENDBRANCH  35  36
ENDBRANCH   1  35
BRANCH   5  49
HETATM   49  O7  UNL     1      10.081  18.335  44.586  1.00  0.00    -0.390 OA
ATOM     50  H7  UNL     1       9.738  19.055  44.070  1.00  0.00     0.210 HD
ENDBRANCH   5  49
BRANCH   6  51
HETATM   51  O8  UNL     1      11.979  19.144  43.297  1.00  0.00    -0.390 OA
ATOM     52  H8  UNL     1      12.841  19.234  43.687  1.00  0.00     0.210 HD
ENDBRANCH   6  51
TORSDOF 14
ENDMDL