MODEL 2
REMARK VINA RESULT: -7.721261702      1.227      2.046
REMARK  15 active torsions:
REMARK  status: ('A' for Active; 'I' for Inactive)
REMARK    1  A    between atoms: N1_1  and  C1_4
REMARK    2  A    between atoms: C2_7  and  N3_8
REMARK    3  A    between atoms: N3_8  and  C3_10
REMARK    4  A    between atoms: C4_12  and  C5_13
REMARK    5  A    between atoms: C4_12  and  C6_16
REMARK    6  A    between atoms: C5_13  and  O2_14
REMARK    7  A    between atoms: C7_19  and  O5_20
REMARK    8  A    between atoms: C8_22  and  O6_23
REMARK    9  A    between atoms: N4_28  and  C11_29
REMARK   10  A    between atoms: C11_29  and  O8_30
REMARK   11  A    between atoms: N5_32  and  C12_33
REMARK   12  A    between atoms: C14_36  and  N6_37
REMARK       I    between atoms: N6_37  and  C15_39
REMARK   13  A    between atoms: C15_39  and  C16_41
REMARK   14  A    between atoms: C16_41  and  N7_42
REMARK   15  A    between atoms: C17_46  and  O11_47
ROOT
HETATM    1  C1  UNL     1       8.657  15.334  38.564  1.00  0.00     0.679 A
HETATM    2  N2  UNL     1       7.549  14.716  39.008  1.00  0.00    -0.176 N
ATOM      3  H2  UNL     1       6.868  14.383  38.326  1.00  0.00     0.186 HD
HETATM    4  C2  UNL     1       7.298  14.517  40.334  1.00  0.00     0.138 A
HETATM    5  C9  UNL     1       8.242  14.984  41.222  1.00  0.00     0.124 A
HETATM    6  C10 UNL     1       8.334  14.968  42.578  1.00  0.00     0.282 A
HETATM    7  O7  UNL     1       7.504  14.482  43.395  1.00  0.00    -0.265 OA
HETATM    8  N4  UNL     1       9.500  15.582  42.899  1.00  0.00    -0.226 N
HETATM    9  N5  UNL     1      10.141  15.977  41.847  1.00  0.00    -0.236 N
HETATM   10  C18 UNL     1       9.390  15.623  40.787  1.00  0.00     0.160 A
HETATM   11  N8  UNL     1       9.561  15.778  39.465  1.00  0.00    -0.174 N
ATOM     12  H8  UNL     1      10.402  16.249  39.129  1.00  0.00     0.186 HD
ENDROOT
BRANCH   4  13
HETATM   13  N3  UNL     1       6.136  13.871  40.764  1.00  0.00    -0.346 N
ATOM     14  H3  UNL     1       6.178  12.877  40.991  1.00  0.00     0.163 HD
BRANCH  13  15
HETATM   15  C3  UNL     1       4.865  14.575  40.899  1.00  0.00     0.255 C
HETATM   16  O1  UNL     1       4.447  15.117  39.700  1.00  0.00    -0.337 OA
HETATM   17  C4  UNL     1       3.450  14.332  39.187  1.00  0.00     0.200 C
HETATM   18  C7  UNL     1       2.659  13.914  40.402  1.00  0.00     0.199 C
HETATM   19  C8  UNL     1       3.764  13.721  41.430  1.00  0.00     0.199 C
BRANCH  17  20
HETATM   20  C5  UNL     1       4.013  13.159  38.433  1.00  0.00     0.216 C
BRANCH  20  21
HETATM   21  O2  UNL     1       5.073  13.534  37.616  1.00  0.00    -0.397 OA
ATOM     22  H2  UNL     1       5.868  13.061  37.833  1.00  0.00     0.209 HD
ENDBRANCH  20  21
ENDBRANCH  17  20
BRANCH  17  23
HETATM   23  C6  UNL     1       2.534  15.101  38.300  1.00  0.00     0.214 C
HETATM   24  O3  UNL     1       2.294  16.322  38.468  1.00  0.00    -0.646 OA
HETATM   25  O4  UNL     1       1.911  14.458  37.241  1.00  0.00    -0.646 OA
ENDBRANCH  17  23
BRANCH  18  26
HETATM   26  O5  UNL     1       1.870  15.022  40.791  1.00  0.00    -0.389 OA
ATOM     27  H5  UNL     1       1.969  15.121  41.731  1.00  0.00     0.210 HD
ENDBRANCH  18  26
BRANCH  19  28
HETATM   28  O6  UNL     1       3.345  14.146  42.691  1.00  0.00    -0.388 OA
ATOM     29  H6  UNL     1       3.439  15.085  42.793  1.00  0.00     0.210 HD
ENDBRANCH  19  28
ENDBRANCH  13  15
ENDBRANCH   4  13
BRANCH   1  30
HETATM   30  N1  UNL     1       8.854  15.502  37.288  1.00  0.00    -0.234 N
ATOM     31  H12 UNL     1       8.395  14.896  36.607  1.00  0.00     0.174 HD
ATOM     32  H11 UNL     1       9.471  16.241  36.953  1.00  0.00     0.174 HD
ENDBRANCH   1  30
BRANCH   8  33
HETATM   33  C11 UNL     1       9.938  15.752  44.268  1.00  0.00     0.317 C
BRANCH  33  34
HETATM   34  O8  UNL     1       9.726  17.077  44.688  1.00  0.00    -0.380 OA
ATOM     35  H8  UNL     1      10.478  17.394  45.174  1.00  0.00     0.211 HD
ENDBRANCH  33  34
ENDBRANCH   8  33
BRANCH   9  36
HETATM   36  C12 UNL     1      11.402  16.662  41.745  1.00  0.00     0.277 C
HETATM   37  O9  UNL     1      11.540  17.460  40.637  1.00  0.00    -0.360 OA
HETATM   38  C13 UNL     1      12.878  17.894  40.779  1.00  0.00     0.198 C
HETATM   39  C14 UNL     1      13.600  16.576  40.936  1.00  0.00     0.141 C
HETATM   40  C17 UNL     1      12.581  15.734  41.667  1.00  0.00     0.193 C
BRANCH  39  41
HETATM   41  N6  UNL     1      14.004  16.000  39.684  1.00  0.00    -0.350 N
HETATM   42  C15 UNL     1      15.090  15.107  39.537  1.00  0.00     0.243 C
HETATM   43  O10 UNL     1      15.743  14.795  40.554  1.00  0.00    -0.272 OA
ATOM     44  H6  UNL     1      13.474  16.249  38.849  1.00  0.00     0.163 HD
BRANCH  42  45
HETATM   45  C16 UNL     1      15.476  14.536  38.234  1.00  0.00     0.332 C
BRANCH  45  46
HETATM   46  N7  UNL     1      14.383  13.809  37.646  1.00  0.00    -0.071 N
ATOM     47  H73 UNL     1      14.676  12.888  37.321  1.00  0.00     0.274 HD
ATOM     48  H72 UNL     1      13.704  13.517  38.349  1.00  0.00     0.274 HD
ATOM     49  H71 UNL     1      13.944  14.350  36.900  1.00  0.00     0.274 HD
ENDBRANCH  45  46
ENDBRANCH  42  45
ENDBRANCH  39  41
BRANCH  40  50
HETATM   50  O11 UNL     1      13.080  15.504  42.948  1.00  0.00    -0.389 OA
ATOM     51  H11 UNL     1      13.946  15.118  42.888  1.00  0.00     0.210 HD
ENDBRANCH  40  50
ENDBRANCH   9  36
TORSDOF 15
ENDMDL