MODEL 2
REMARK VINA RESULT: -8.659031612      1.237      1.922
REMARK  14 active torsions:
REMARK  status: ('A' for Active; 'I' for Inactive)
REMARK    1  A    between atoms: N3_7  and  C2_8
REMARK    2  A    between atoms: C5_12  and  O2_13
REMARK    3  A    between atoms: C9_21  and  O3_22
REMARK    4  A    between atoms: C11_25  and  O4_26
REMARK    5  A    between atoms: C12_28  and  O5_29
REMARK    6  A    between atoms: C13_31  and  C14_32
REMARK       I    between atoms: C14_32  and  N6_34
REMARK       I    between atoms: N6_34  and  C15_36
REMARK    7  A    between atoms: C15_36  and  C16_38
REMARK    8  A    between atoms: C16_38  and  N7_39
REMARK    9  A    between atoms: N7_39  and  C17_41
REMARK   10  A    between atoms: C17_41  and  O8_42
REMARK   11  A    between atoms: C17_41  and  C18_44
REMARK   12  A    between atoms: C18_44  and  N8_45
REMARK   13  A    between atoms: C18_44  and  C19_49
REMARK   14  A    between atoms: C19_49  and  O9_50
ROOT
HETATM    1  N1  UNL     1       6.970  14.990  44.702  1.00  0.00    -0.382 N
ATOM      2  H11 UNL     1       5.997  14.693  44.638  1.00  0.00     0.157 HD
ATOM      3  H12 UNL     1       7.209  15.166  45.678  1.00  0.00     0.157 HD
HETATM    4  C1  UNL     1       7.708  15.094  43.630  1.00  0.00     0.145 A
HETATM    5  N2  UNL     1       8.963  15.476  43.712  1.00  0.00    -0.277 N
ATOM      6  H2  UNL     1       9.465  15.719  44.566  1.00  0.00     0.189 HD
HETATM    7  N3  UNL     1       9.449  15.488  42.499  1.00  0.00    -0.235 N
HETATM    8  C6  UNL     1       8.520  15.111  41.572  1.00  0.00     0.194 A
HETATM    9  C7  UNL     1       7.378  14.850  42.280  1.00  0.00     0.131 A
HETATM   10  N4  UNL     1       6.109  14.420  41.910  1.00  0.00    -0.346 N
ATOM     11  H4  UNL     1       5.767  13.913  42.726  1.00  0.00     0.167 HD
HETATM   12  C8  UNL     1       5.203  14.343  41.110  1.00  0.00     0.181 C
HETATM   13  N5  UNL     1       4.913  14.767  39.803  1.00  0.00    -0.337 N
HETATM   14  C9  UNL     1       4.355  15.745  38.821  1.00  0.00     0.247 A
HETATM   15  C10 UNL     1       4.953  14.527  38.460  1.00  0.00     0.167 A
HETATM   16  C11 UNL     1       6.319  14.432  37.734  1.00  0.00     0.177 C
HETATM   17  C12 UNL     1       7.276  14.685  38.751  1.00  0.00     0.187 C
HETATM   18  C13 UNL     1       8.690  14.521  39.029  1.00  0.00     0.254 C
HETATM   19  O10 UNL     1       8.868  15.074  40.282  1.00  0.00    -0.315 OA
ENDROOT
BRANCH  18  20
HETATM   20  C14 UNL     1       9.495  15.378  38.071  1.00  0.00     0.256 C
HETATM   21  O6  UNL     1       9.119  15.631  36.907  1.00  0.00    -0.270 OA
HETATM   22  N6  UNL     1      10.730  15.912  38.518  1.00  0.00    -0.291 N
HETATM   23  C15 UNL     1      11.558  16.703  37.650  1.00  0.00     0.263 C
ATOM     24  H6  UNL     1      11.036  15.732  39.475  1.00  0.00     0.172 HD
HETATM   25  O7  UNL     1      11.166  16.930  36.503  1.00  0.00    -0.267 OA
BRANCH  23  26
HETATM   26  C16 UNL     1      12.844  17.215  38.152  1.00  0.00     0.160 C
BRANCH  26  27
HETATM   27  N7  UNL     1      13.293  16.833  39.400  1.00  0.00    -0.367 N
ATOM     28  H7  UNL     1      13.025  17.387  40.214  1.00  0.00     0.161 HD
BRANCH  27  29
HETATM   29  C17 UNL     1      14.100  15.716  39.580  1.00  0.00     0.250 C
BRANCH  29  30
HETATM   30  O8  UNL     1      13.568  14.526  39.152  1.00  0.00    -0.375 OA
ATOM     31  H8  UNL     1      13.986  13.744  39.493  1.00  0.00     0.212 HD
ENDBRANCH  29  30
BRANCH  29  32
HETATM   32  C18 UNL     1      15.502  15.809  39.002  1.00  0.00     0.255 C
BRANCH  32  33
HETATM   33  N8  UNL     1      16.535  15.691  39.974  1.00  0.00    -0.069 N
ATOM     34  H83 UNL     1      16.566  16.520  40.567  1.00  0.00     0.275 HD
ATOM     35  H82 UNL     1      16.292  14.988  40.672  1.00  0.00     0.275 HD
ATOM     36  H81 UNL     1      17.456  15.499  39.577  1.00  0.00     0.275 HD
ENDBRANCH  32  33
BRANCH  32  37
HETATM   37  C19 UNL     1      15.685  14.863  37.826  1.00  0.00     0.201 C
BRANCH  37  38
HETATM   38  O9  UNL     1      16.408  13.734  38.196  1.00  0.00    -0.399 OA
ATOM     39  H9  UNL     1      15.892  13.163  38.753  1.00  0.00     0.209 HD
ENDBRANCH  37  38
ENDBRANCH  32  37
ENDBRANCH  29  32
ENDBRANCH  27  29
ENDBRANCH  26  27
ENDBRANCH  23  26
ENDBRANCH  18  20
BRANCH  17  40
HETATM   40  O5  UNL     1       7.094  16.008  39.080  1.00  0.00    -0.390 OA
ATOM     41  H5  UNL     1       6.892  16.000  40.008  1.00  0.00     0.210 HD
ENDBRANCH  17  40
BRANCH  16  42
HETATM   42  O4  UNL     1       6.333  15.403  36.705  1.00  0.00    -0.391 OA
ATOM     43  H4  UNL     1       6.477  16.252  37.107  1.00  0.00     0.210 HD
ENDBRANCH  16  42
BRANCH   7  44
HETATM   44  C2  UNL     1      10.872  15.886  42.291  1.00  0.00     0.275 C
HETATM   45  O1  UNL     1      11.589  15.471  43.409  1.00  0.00    -0.362 OA
HETATM   46  C3  UNL     1      12.665  16.294  43.589  1.00  0.00     0.173 C
HETATM   47  C4  UNL     1      12.508  17.486  42.701  1.00  0.00     0.062 C
HETATM   48  C5  UNL     1      11.029  17.352  42.298  1.00  0.00     0.170 C
BRANCH  48  49
HETATM   49  O2  UNL     1      10.855  17.949  41.048  1.00  0.00    -0.391 OA
ATOM     50  H2  UNL     1      10.057  18.457  40.970  1.00  0.00     0.210 HD
ENDBRANCH  48  49
ENDBRANCH   7  44
BRANCH  14  51
HETATM   51  O3  UNL     1       2.977  15.877  38.674  1.00  0.00    -0.374 OA
ATOM     52  H3  UNL     1       2.559  15.629  37.859  1.00  0.00     0.212 HD
ENDBRANCH  14  51
TORSDOF 14
ENDMDL