MODEL 5
REMARK VINA RESULT: -7.490372067      4.004      6.354
REMARK  14 active torsions:
REMARK  status: ('A' for Active; 'I' for Inactive)
REMARK    1  A    between atoms: C2_2  and  O1_3
REMARK       I    between atoms: N1_7  and  C4_8
REMARK       I    between atoms: C4_8  and  N3_12
REMARK    2  A    between atoms: N3_12  and  N4_14
REMARK    3  A    between atoms: C5_17  and  N5_18
REMARK    4  A    between atoms: C6_22  and  C7_23
REMARK    5  A    between atoms: C7_23  and  S1_24
REMARK    6  A    between atoms: C8_28  and  N6_29
REMARK    7  A    between atoms: N7_31  and  C9_33
REMARK    8  A    between atoms: N8_35  and  N9_36
REMARK       I    between atoms: N9_36  and  C11_38
REMARK    9  A    between atoms: C11_38  and  C12_40
REMARK   10  A    between atoms: C12_40  and  N10_41
REMARK   11  A    between atoms: C12_40  and  C13_45
REMARK   12  A    between atoms: C13_45  and  O7_46
REMARK   13  A    between atoms: C13_45  and  C14_48
REMARK   14  A    between atoms: C14_48  and  O8_49
ROOT
HETATM    1  C1  UNL     1      10.651  17.171  37.968  1.00  0.00     0.063 C
HETATM    2  C2  UNL     1      11.485  17.386  39.214  1.00  0.00     0.179 C
HETATM    3  C3  UNL     1      10.956  16.575  40.339  1.00  0.00     0.280 C
HETATM    4  O2  UNL     1       9.870  15.963  40.328  1.00  0.00    -0.269 OA
HETATM    5  N1  UNL     1      11.769  16.514  41.495  1.00  0.00    -0.113 N
HETATM    6  C4  UNL     1      11.197  16.199  42.741  1.00  0.00     0.697 C
HETATM    7  N2  UNL     1      10.588  15.078  42.940  1.00  0.00    -0.233 N
ATOM      8  H21 UNL     1      10.173  14.849  43.843  1.00  0.00     0.174 HD
ATOM      9  H22 UNL     1      10.545  14.439  42.146  1.00  0.00     0.174 HD
HETATM   10  N3  UNL     1      11.257  17.102  43.863  1.00  0.00    -0.139 N
ATOM     11  H3  UNL     1      11.551  16.771  44.782  1.00  0.00     0.205 HD
HETATM   12  C5  UNL     1      13.170  16.770  41.404  1.00  0.00     0.341 C
HETATM   13  C6  UNL     1      13.676  16.777  40.015  1.00  0.00     0.014 C
HETATM   14  C8  UNL     1      12.902  17.061  39.006  1.00  0.00     0.076 C
ENDROOT
BRANCH  14  15
HETATM   15  N6  UNL     1      13.362  17.074  37.657  1.00  0.00    -0.299 N
HETATM   16  N7  UNL     1      13.639  16.026  37.008  1.00  0.00    -0.284 N
ATOM     17  H7  UNL     1      13.533  15.116  37.457  1.00  0.00     0.188 HD
ATOM     18  H6  UNL     1      13.474  17.975  37.193  1.00  0.00     0.186 HD
BRANCH  16  19
HETATM   19  C9  UNL     1      14.099  16.091  35.651  1.00  0.00     0.141 A
HETATM   20  C10 UNL     1      13.502  16.791  34.597  1.00  0.00     0.171 A
HETATM   21  N8  UNL     1      14.215  16.618  33.474  1.00  0.00    -0.210 N
HETATM   22  C15 UNL     1      15.242  15.821  33.830  1.00  0.00     0.347 A
HETATM   23  O9  UNL     1      16.134  15.444  32.999  1.00  0.00    -0.245 OA
HETATM   24  N11 UNL     1      15.168  15.512  35.119  1.00  0.00    -0.291 N
ATOM     25  H11 UNL     1      15.830  14.921  35.621  1.00  0.00     0.172 HD
BRANCH  21  26
HETATM   26  N9  UNL     1      13.989  17.131  32.182  1.00  0.00    -0.258 N
HETATM   27  C11 UNL     1      14.308  18.440  31.767  1.00  0.00     0.270 C
HETATM   28  O6  UNL     1      14.840  19.307  32.520  1.00  0.00    -0.269 OA
ATOM     29  H9  UNL     1      13.564  16.508  31.495  1.00  0.00     0.190 HD
BRANCH  27  30
HETATM   30  C12 UNL     1      14.018  18.864  30.371  1.00  0.00     0.306 C
BRANCH  30  31
HETATM   31  N10 UNL     1      14.588  20.179  30.142  1.00  0.00    -0.064 N
ATOM     32 3H10 UNL     1      13.891  20.920  30.215  1.00  0.00     0.275 HD
ATOM     33 2H10 UNL     1      15.195  20.476  30.906  1.00  0.00     0.275 HD
ATOM     34 1H10 UNL     1      15.067  20.186  29.242  1.00  0.00     0.275 HD
ENDBRANCH  30  31
BRANCH  30  35
HETATM   35  C13 UNL     1      12.535  19.005  30.095  1.00  0.00     0.181 C
BRANCH  35  36
HETATM   36  O7  UNL     1      11.809  19.502  31.153  1.00  0.00    -0.391 OA
ATOM     37  H7  UNL     1      10.938  19.801  30.921  1.00  0.00     0.210 HD
ENDBRANCH  35  36
BRANCH  35  38
HETATM   38  C14 UNL     1      12.288  19.782  28.816  1.00  0.00     0.198 C
BRANCH  38  39
HETATM   39  O8  UNL     1      11.782  21.048  29.067  1.00  0.00    -0.398 OA
ATOM     40  H8  UNL     1      10.860  21.112  28.846  1.00  0.00     0.209 HD
ENDBRANCH  38  39
ENDBRANCH  35  38
ENDBRANCH  30  35
ENDBRANCH  27  30
ENDBRANCH  21  26
ENDBRANCH  16  19
ENDBRANCH  14  15
BRANCH   2  41
HETATM   41  O1  UNL     1      11.340  18.731  39.614  1.00  0.00    -0.374 OA
ATOM     42  H1  UNL     1      12.193  19.148  39.566  1.00  0.00     0.211 HD
ENDBRANCH   2  41
BRANCH  13  43
HETATM   43  C7  UNL     1      15.101  16.450  39.791  1.00  0.00     0.205 C
BRANCH  43  44
HETATM   44  S1  UNL     1      15.422  14.785  39.352  1.00  0.00     0.105 S
HETATM   45  O3  UNL     1      16.249  14.657  38.129  1.00  0.00    -0.595 OA
HETATM   46  O4  UNL     1      16.225  14.184  40.500  1.00  0.00    -0.595 OA
HETATM   47  O5  UNL     1      14.054  13.855  39.195  1.00  0.00    -0.595 OA
ENDBRANCH  43  44
ENDBRANCH  13  43
BRANCH  12  48
HETATM   48  N5  UNL     1      13.827  15.668  42.135  1.00  0.00    -0.053 N
ATOM     49  H53 UNL     1      13.701  15.716  43.146  1.00  0.00     0.277 HD
ATOM     50  H52 UNL     1      13.378  14.762  41.999  1.00  0.00     0.277 HD
ATOM     51  H51 UNL     1      14.805  15.686  41.844  1.00  0.00     0.277 HD
ENDBRANCH  12  48
BRANCH  10  52
HETATM   52  N4  UNL     1      10.905  18.447  43.667  1.00  0.00    -0.331 N
ATOM     53  H42 UNL     1      10.299  18.701  42.887  1.00  0.00     0.177 HD
ATOM     54  H41 UNL     1      11.265  19.148  44.314  1.00  0.00     0.177 HD
ENDBRANCH  10  52
TORSDOF 14
ENDMDL