MODEL 3
REMARK VINA RESULT: -7.353755992      1.686      3.192
REMARK  14 active torsions:
REMARK  status: ('A' for Active; 'I' for Inactive)
REMARK    1  A    between atoms: C3_4  and  O2_5
REMARK    2  A    between atoms: C3_4  and  C4_7
REMARK    3  A    between atoms: C4_7  and  O3_8
REMARK    4  A    between atoms: C4_7  and  C5_10
REMARK    5  A    between atoms: C5_10  and  O4_11
REMARK    6  A    between atoms: C5_10  and  C6_13
REMARK    7  A    between atoms: C6_13  and  O5_14
REMARK    8  A    between atoms: C7_16  and  O6_17
REMARK    9  A    between atoms: O6_17  and  C8_18
REMARK   10  A    between atoms: C9_22  and  N2_23
REMARK   11  A    between atoms: C9_22  and  C10_27
REMARK   12  A    between atoms: C11_30  and  C12_31
REMARK   13  A    between atoms: C16_38  and  O12_39
REMARK   14  A    between atoms: C16_38  and  C17_41
ROOT
HETATM    1  C8  UNL     1      10.721  16.342  40.504  1.00  0.00     0.338 C
HETATM    2  N1  UNL     1      10.471  16.933  41.808  1.00  0.00     0.000 N
ATOM      3  H11 UNL     1       9.875  16.362  42.407  1.00  0.00     0.284 HD
ATOM      4  H12 UNL     1       9.864  17.753  41.776  1.00  0.00     0.284 HD
HETATM    5  C9  UNL     1      11.773  17.200  42.375  1.00  0.00     0.414 C
HETATM    6  C11 UNL     1      12.633  16.052  41.920  1.00  0.00     0.231 C
HETATM    7  O11 UNL     1      13.881  16.458  41.524  1.00  0.00    -0.350 OA
HETATM    8  C13 UNL     1      14.237  15.835  40.356  1.00  0.00     0.097 C
HETATM    9  C14 UNL     1      15.036  14.562  40.544  1.00  0.00     0.049 C
HETATM   10  C15 UNL     1      15.112  16.743  39.502  1.00  0.00     0.049 C
HETATM   11  C16 UNL     1      12.946  15.495  39.622  1.00  0.00     0.187 C
HETATM   12  C18 UNL     1      11.933  15.512  40.706  1.00  0.00     0.141 C
ENDROOT
BRANCH   1  13
HETATM   13  O6  UNL     1       9.635  15.491  40.179  1.00  0.00    -0.328 OA
BRANCH  13  14
HETATM   14  C7  UNL     1       8.696  16.110  39.386  1.00  0.00     0.290 C
HETATM   15  C3  UNL     1       7.313  15.490  39.475  1.00  0.00     0.237 C
HETATM   16  O1  UNL     1       7.311  14.184  39.056  1.00  0.00    -0.337 OA
HETATM   17  C2  UNL     1       7.858  13.960  37.821  1.00  0.00     0.185 C
HETATM   18  C1  UNL     1       6.713  13.584  36.880  1.00  0.00     0.047 C
HETATM   19  C19 UNL     1       8.689  15.032  37.274  1.00  0.00     0.120 C
HETATM   20  N3  UNL     1       9.079  16.020  37.972  1.00  0.00    -0.349 N
HETATM   21  N4  UNL     1       9.072  14.956  35.883  1.00  0.00    -0.085 NA
ATOM     22  H3  UNL     1       9.658  16.747  37.552  1.00  0.00     0.163 HD
BRANCH  15  23
HETATM   23  O2  UNL     1       6.504  16.268  38.612  1.00  0.00    -0.360 OA
ATOM     24  H2  UNL     1       6.680  16.029  37.709  1.00  0.00     0.213 HD
ENDBRANCH  15  23
BRANCH  15  25
HETATM   25  C4  UNL     1       6.716  15.606  40.838  1.00  0.00     0.215 C
BRANCH  25  26
HETATM   26  O3  UNL     1       5.322  15.505  40.804  1.00  0.00    -0.387 OA
ATOM     27  H3  UNL     1       4.994  14.927  41.483  1.00  0.00     0.210 HD
ENDBRANCH  25  26
BRANCH  25  28
HETATM   28  C5  UNL     1       7.205  14.475  41.721  1.00  0.00     0.176 C
BRANCH  28  29
HETATM   29  O4  UNL     1       6.207  13.504  41.861  1.00  0.00    -0.391 OA
ATOM     30  H4  UNL     1       6.457  12.709  41.406  1.00  0.00     0.210 HD
ENDBRANCH  28  29
BRANCH  28  31
HETATM   31  C6  UNL     1       7.518  14.985  43.112  1.00  0.00     0.198 C
BRANCH  31  32
HETATM   32  O5  UNL     1       8.900  15.100  43.222  1.00  0.00    -0.398 OA
ATOM     33  H5  UNL     1       9.174  15.837  42.689  1.00  0.00     0.209 HD
ENDBRANCH  31  32
ENDBRANCH  28  31
ENDBRANCH  25  28
ENDBRANCH  15  25
ENDBRANCH  13  14
ENDBRANCH   1  13
BRANCH   5  34
HETATM   34  N2  UNL     1      11.602  17.139  43.817  1.00  0.00    -0.031 N
ATOM     35  H23 UNL     1      10.690  16.783  44.105  1.00  0.00     0.278 HD
ATOM     36  H22 UNL     1      12.163  16.414  44.264  1.00  0.00     0.278 HD
ATOM     37  H21 UNL     1      11.799  18.078  44.163  1.00  0.00     0.278 HD
ENDBRANCH   5  34
BRANCH   5  38
HETATM   38  C10 UNL     1      12.266  18.525  41.950  1.00  0.00     0.244 C
HETATM   39  O7  UNL     1      12.375  18.795  40.737  1.00  0.00    -0.645 OA
HETATM   40  O8  UNL     1      12.608  19.475  42.887  1.00  0.00    -0.645 OA
ENDBRANCH   5  38
BRANCH   6  41
HETATM   41  C12 UNL     1      12.766  15.052  43.009  1.00  0.00     0.215 C
HETATM   42  O9  UNL     1      11.837  14.238  43.209  1.00  0.00    -0.646 OA
HETATM   43  O10 UNL     1      13.881  14.973  43.827  1.00  0.00    -0.646 OA
ENDBRANCH   6  41
BRANCH  11  44
HETATM   44  O12 UNL     1      13.013  14.148  39.174  1.00  0.00    -0.376 OA
ATOM     45  H12 UNL     1      12.231  13.690  39.459  1.00  0.00     0.211 HD
ENDBRANCH  11  44
BRANCH  11  46
HETATM   46  C17 UNL     1      12.718  16.355  38.469  1.00  0.00     0.212 C
HETATM   47  O13 UNL     1      12.977  17.585  38.378  1.00  0.00    -0.646 OA
HETATM   48  O14 UNL     1      12.147  15.810  37.298  1.00  0.00    -0.646 OA
ENDBRANCH  11  46
TORSDOF 14
ENDMDL