MODEL 3
REMARK VINA RESULT: -8.010926204      2.465      6.739
REMARK  15 active torsions:
REMARK  status: ('A' for Active; 'I' for Inactive)
REMARK    1  A    between atoms: C3_8  and  C4_9
REMARK    2  A    between atoms: C3_8  and  C5_12
REMARK    3  A    between atoms: C4_9  and  O1_10
REMARK    4  A    between atoms: C5_12  and  N3_13
REMARK    5  A    between atoms: C12_29  and  C13_30
REMARK    6  A    between atoms: C13_30  and  O6_31
REMARK    7  A    between atoms: C13_30  and  C14_33
REMARK    8  A    between atoms: C14_33  and  O7_34
REMARK    9  A    between atoms: C14_33  and  C15_36
REMARK   10  A    between atoms: C15_36  and  O8_37
REMARK   11  A    between atoms: C15_36  and  C16_39
REMARK   12  A    between atoms: C16_39  and  O9_40
REMARK   13  A    between atoms: C16_39  and  C17_42
REMARK   14  A    between atoms: C17_42  and  O10_43
REMARK   15  A    between atoms: C19_47  and  N7_48
ROOT
HETATM    1  N3  UNL     1       8.615  15.469  37.612  1.00  0.00    -0.262 N
HETATM    2  C6  UNL     1       8.348  14.535  36.706  1.00  0.00     0.334 A
HETATM    3  O2  UNL     1       8.792  14.513  35.518  1.00  0.00    -0.246 OA
HETATM    4  N4  UNL     1       7.538  13.462  36.982  1.00  0.00    -0.274 N
ATOM      5  H4  UNL     1       7.362  12.770  36.253  1.00  0.00     0.173 HD
HETATM    6  C7  UNL     1       6.975  13.302  38.183  1.00  0.00     0.269 A
HETATM    7  O3  UNL     1       6.228  12.336  38.478  1.00  0.00    -0.267 OA
HETATM    8  C8  UNL     1       7.221  14.243  39.166  1.00  0.00     0.145 A
HETATM    9  C9  UNL     1       6.666  14.068  40.417  1.00  0.00     0.272 A
HETATM   10  O4  UNL     1       5.919  13.095  40.695  1.00  0.00    -0.267 OA
HETATM   11  N5  UNL     1       6.942  14.973  41.354  1.00  0.00    -0.256 N
HETATM   12  C10 UNL     1       7.741  16.024  41.073  1.00  0.00     0.234 A
HETATM   13  N6  UNL     1       8.269  16.179  39.859  1.00  0.00    -0.306 N
ATOM     14  H6  UNL     1       8.868  16.987  39.688  1.00  0.00     0.171 HD
HETATM   15  C11 UNL     1       8.048  15.321  38.854  1.00  0.00     0.140 A
HETATM   16  O5  UNL     1       7.962  16.905  42.124  1.00  0.00    -0.287 OA
HETATM   17  C12 UNL     1       8.104  16.351  43.428  1.00  0.00     0.303 C
HETATM   18  O11 UNL     1       7.495  15.143  43.573  1.00  0.00    -0.338 OA
HETATM   19  C18 UNL     1       6.432  14.922  42.712  1.00  0.00     0.309 C
ENDROOT
BRANCH   1  20
HETATM   20  C5  UNL     1       9.469  16.572  37.387  1.00  0.00     0.092 C
BRANCH  20  21
HETATM   21  C3  UNL     1      10.858  16.588  37.834  1.00  0.00     0.065 C
HETATM   22  C2  UNL     1      11.253  15.177  38.348  1.00  0.00     0.140 C
HETATM   23  N2  UNL     1      12.716  15.230  38.337  1.00  0.00    -0.377 N
HETATM   24  C1  UNL     1      13.131  16.240  37.430  1.00  0.00     0.103 C
ATOM     25  H2  UNL     1      13.336  14.639  38.891  1.00  0.00     0.160 HD
HETATM   26  N1  UNL     1      14.272  16.765  37.247  1.00  0.00    -0.387 N
HETATM   27  C19 UNL     1      11.876  16.603  36.657  1.00  0.00     0.266 C
ATOM     28  H12 UNL     1      15.115  16.521  37.767  1.00  0.00     0.157 HD
ATOM     29  H11 UNL     1      14.570  17.491  36.595  1.00  0.00     0.157 HD
BRANCH  27  30
HETATM   30  N7  UNL     1      11.653  15.421  35.837  1.00  0.00    -0.067 N
ATOM     31  H73 UNL     1      12.482  14.851  35.674  1.00  0.00     0.275 HD
ATOM     32  H72 UNL     1      11.111  14.684  36.288  1.00  0.00     0.275 HD
ATOM     33  H71 UNL     1      11.228  15.810  34.995  1.00  0.00     0.275 HD
ENDBRANCH  27  30
BRANCH  21  34
HETATM   34  C4  UNL     1      11.351  17.547  38.821  1.00  0.00     0.183 C
BRANCH  34  35
HETATM   35  O1  UNL     1      10.385  18.371  39.428  1.00  0.00    -0.400 OA
ATOM     36  H1  UNL     1      10.713  19.121  39.911  1.00  0.00     0.209 HD
ENDBRANCH  34  35
ENDBRANCH  21  34
ENDBRANCH  20  21
ENDBRANCH   1  20
BRANCH  17  37
HETATM   37  C13 UNL     1       9.597  16.330  43.798  1.00  0.00     0.209 C
BRANCH  37  38
HETATM   38  O6  UNL     1       9.819  15.910  45.079  1.00  0.00    -0.388 OA
ATOM     39  H6  UNL     1       9.697  14.973  45.186  1.00  0.00     0.210 HD
ENDBRANCH  37  38
BRANCH  37  40
HETATM   40  C14 UNL     1      10.373  17.470  43.290  1.00  0.00     0.210 C
BRANCH  40  41
HETATM   41  O7  UNL     1      10.447  18.424  44.363  1.00  0.00    -0.386 OA
ATOM     42  H7  UNL     1      11.073  18.078  44.989  1.00  0.00     0.210 HD
ENDBRANCH  40  41
BRANCH  40  43
HETATM   43  C15 UNL     1      11.717  17.278  42.712  1.00  0.00     0.105 C
BRANCH  43  44
HETATM   44  O8  UNL     1      12.591  18.338  42.764  1.00  0.00    -0.360 OA
ATOM     45  H8  UNL     1      13.284  18.305  43.413  1.00  0.00     0.217 HD
ENDBRANCH  43  44
BRANCH  43  46
HETATM   46  C16 UNL     1      12.432  16.005  42.942  1.00  0.00     0.098 C
BRANCH  46  47
HETATM   47  O9  UNL     1      12.970  15.839  44.214  1.00  0.00    -0.360 OA
ATOM     48  H9  UNL     1      12.557  15.174  44.752  1.00  0.00     0.217 HD
ENDBRANCH  46  47
BRANCH  46  49
HETATM   49  C17 UNL     1      13.362  15.538  41.860  1.00  0.00     0.231 C
BRANCH  49  50
HETATM   50  O10 UNL     1      13.655  16.583  40.977  1.00  0.00    -0.394 OA
ATOM     51  H10 UNL     1      13.902  16.242  40.125  1.00  0.00     0.209 HD
ENDBRANCH  49  50
ENDBRANCH  46  49
ENDBRANCH  43  46
ENDBRANCH  40  43
ENDBRANCH  37  40
ENDBRANCH  17  37
TORSDOF 15
ENDMDL