MODEL 3
REMARK VINA RESULT: -7.861867119      4.574      6.528
REMARK  12 active torsions:
REMARK  status: ('A' for Active; 'I' for Inactive)
REMARK    1  A    between atoms: S1_2  and  S2_3
REMARK    2  A    between atoms: S2_3  and  C2_4
REMARK    3  A    between atoms: C3_7  and  C4_8
REMARK    4  A    between atoms: C4_8  and  O1_9
REMARK    5  A    between atoms: C4_8  and  N2_11
REMARK       I    between atoms: N2_11  and  C5_13
REMARK    6  A    between atoms: C5_13  and  C6_15
REMARK    7  A    between atoms: C6_15  and  C7_16
REMARK       I    between atoms: C7_16  and  N3_18
REMARK    8  A    between atoms: N3_18  and  C8_20
REMARK    9  A    between atoms: C11_25  and  N5_26
REMARK   10  A    between atoms: C14_37  and  C15_38
REMARK   11  A    between atoms: C15_38  and  O6_39
REMARK   12  A    between atoms: C15_38  and  O7_41
ROOT
HETATM    1  C6  UNL     1      61.559  -3.546  72.862  1.00  0.00     0.206 C
ENDROOT
BRANCH   1   2
HETATM    2  C5  UNL     1      62.947  -3.551  72.326  1.00  0.00     0.228 C
HETATM    3  N2  UNL     1      63.955  -4.206  73.054  1.00  0.00    -0.329 N
ATOM      4  H2  UNL     1      63.725  -4.659  73.938  1.00  0.00     0.165 HD
HETATM    5  O2  UNL     1      63.177  -2.963  71.224  1.00  0.00    -0.273 OA
BRANCH   3   6
HETATM    6  C4  UNL     1      65.312  -4.244  72.565  1.00  0.00     0.272 C
BRANCH   6   7
HETATM    7  C3  UNL     1      65.393  -5.260  71.419  1.00  0.00     0.077 A
HETATM    8  N1  UNL     1      65.585  -4.849  70.189  1.00  0.00    -0.343 N
HETATM    9  C2  UNL     1      65.639  -5.704  69.197  1.00  0.00     0.123 A
ATOM     10  H1  UNL     1      65.694  -3.853  70.001  1.00  0.00     0.167 HD
HETATM   11  S3  UNL     1      65.413  -7.190  69.980  1.00  0.00    -0.062 SA
HETATM   12  C14 UNL     1      65.254  -6.600  71.618  1.00  0.00     0.066 A
BRANCH   9  13
HETATM   13  S2  UNL     1      65.892  -5.357  67.432  1.00  0.00    -0.033 SA
BRANCH  13  14
HETATM   14  S1  UNL     1      64.546  -3.766  66.905  1.00  0.00    -0.095 SA
HETATM   15  C1  UNL     1      63.750  -4.141  65.320  1.00  0.00     0.103 C
ENDBRANCH  13  14
ENDBRANCH   9  13
BRANCH  12  16
HETATM   16  C15 UNL     1      65.035  -7.451  72.819  1.00  0.00     0.297 C
BRANCH  16  17
HETATM   17  O6  UNL     1      65.137  -8.788  72.666  1.00  0.00    -0.367 OA
ATOM     18  H6  UNL     1      66.010  -9.159  72.600  1.00  0.00     0.213 HD
ENDBRANCH  16  17
BRANCH  16  19
HETATM   19  O7  UNL     1      63.716  -7.188  73.262  1.00  0.00    -0.367 OA
ATOM     20  H7  UNL     1      63.796  -6.718  74.085  1.00  0.00     0.213 HD
ENDBRANCH  16  19
ENDBRANCH  12  16
ENDBRANCH   6   7
BRANCH   6  21
HETATM   21  O1  UNL     1      66.217  -4.457  73.549  1.00  0.00    -0.371 OA
ATOM     22  H1  UNL     1      67.120  -4.394  73.261  1.00  0.00     0.212 HD
ENDBRANCH   6  21
ENDBRANCH   3   6
ENDBRANCH   1   2
BRANCH   1  23
HETATM   23  C7  UNL     1      61.053  -2.163  72.847  1.00  0.00     0.244 C
HETATM   24  O3  UNL     1      61.347  -1.416  73.808  1.00  0.00    -0.272 OA
HETATM   25  N3  UNL     1      60.271  -1.758  71.747  1.00  0.00    -0.159 N
ATOM     26  H3  UNL     1      60.728  -1.217  71.013  1.00  0.00     0.187 HD
BRANCH  25  27
HETATM   27  C8  UNL     1      59.038  -2.020  71.605  1.00  0.00     0.687 A
HETATM   28  N4  UNL     1      58.463  -2.291  70.421  1.00  0.00    -0.185 N
HETATM   29  C9  UNL     1      57.152  -2.555  70.262  1.00  0.00     0.136 A
ATOM     30  H4  UNL     1      59.056  -2.297  69.592  1.00  0.00     0.184 HD
HETATM   31  C10 UNL     1      56.324  -2.552  71.388  1.00  0.00     0.109 A
HETATM   32  C13 UNL     1      56.321  -2.872  69.102  1.00  0.00     0.276 A
HETATM   33  C11 UNL     1      56.921  -2.274  72.598  1.00  0.00     0.133 A
HETATM   34  C12 UNL     1      54.968  -2.865  70.958  1.00  0.00     0.264 A
HETATM   35  N6  UNL     1      58.229  -2.018  72.699  1.00  0.00    -0.176 N
ATOM     36  H6  UNL     1      58.629  -1.818  73.616  1.00  0.00     0.186 HD
HETATM   37  O4  UNL     1      53.980  -2.943  71.710  1.00  0.00    -0.267 OA
HETATM   38  N7  UNL     1      54.983  -3.058  69.556  1.00  0.00    -0.288 N
ATOM     39  H7  UNL     1      54.178  -3.288  68.974  1.00  0.00     0.172 HD
HETATM   40  O5  UNL     1      56.773  -2.951  67.938  1.00  0.00    -0.266 OA
BRANCH  33  41
HETATM   41  N5  UNL     1      56.143  -2.271  73.642  1.00  0.00    -0.384 N
ATOM     42  H52 UNL     1      56.038  -3.096  74.231  1.00  0.00     0.157 HD
ATOM     43  H51 UNL     1      55.648  -1.402  73.837  1.00  0.00     0.157 HD
ENDBRANCH  33  41
ENDBRANCH  25  27
ENDBRANCH   1  23
TORSDOF 12
ENDMDL