MODEL 4
REMARK VINA RESULT: -8.595371310      3.048      8.202
REMARK  14 active torsions:
REMARK  status: ('A' for Active; 'I' for Inactive)
REMARK    1  A    between atoms: N1_1  and  C1_4
REMARK    2  A    between atoms: C2_7  and  N3_8
REMARK    3  A    between atoms: C3_11  and  C4_12
REMARK    4  A    between atoms: C7_15  and  O1_16
REMARK    5  A    between atoms: C8_18  and  N4_19
REMARK    6  A    between atoms: C14_25  and  O2_26
REMARK    7  A    between atoms: C15_28  and  C16_29
REMARK    8  A    between atoms: C16_29  and  O3_30
REMARK    9  A    between atoms: C17_32  and  C18_33
REMARK   10  A    between atoms: C18_33  and  N5_34
REMARK   11  A    between atoms: N8_39  and  C19_40
REMARK   12  A    between atoms: C19_40  and  C20_41
REMARK   13  A    between atoms: C20_41  and  O4_42
REMARK   14  A    between atoms: C20_41  and  C21_44
ROOT
HETATM    1  C1  UNL     1      63.485  -5.542  73.173  1.00  0.00     0.109 C
HETATM    2  N2  UNL     1      62.191  -5.154  73.072  1.00  0.00    -0.328 N
ATOM      3  H2  UNL     1      61.501  -5.845  73.367  1.00  0.00     0.169 HD
HETATM    4  C2  UNL     1      61.683  -3.974  72.632  1.00  0.00     0.114 C
HETATM    5  C3  UNL     1      62.340  -2.828  72.273  1.00  0.00     0.052 C
HETATM    6  C14 UNL     1      63.695  -2.603  72.334  1.00  0.00     0.089 C
HETATM    7  C15 UNL     1      64.711  -3.456  72.802  1.00  0.00     0.011 C
HETATM    8  C17 UNL     1      64.637  -4.830  72.808  1.00  0.00     0.017 C
ENDROOT
BRANCH   8   9
HETATM    9  C18 UNL     1      65.746  -5.671  72.416  1.00  0.00     0.199 C
BRANCH   9  10
HETATM   10  N5  UNL     1      65.688  -6.001  70.981  1.00  0.00    -0.221 N
HETATM   11  N6  UNL     1      65.384  -7.171  70.498  1.00  0.00    -0.221 N
HETATM   12  N7  UNL     1      65.431  -7.085  69.160  1.00  0.00    -0.222 N
ATOM     13  H6  UNL     1      65.152  -8.004  71.040  1.00  0.00     0.210 HD
HETATM   14  N8  UNL     1      65.764  -5.863  68.789  1.00  0.00    -0.223 N
ATOM     15  H7  UNL     1      65.237  -7.855  68.520  1.00  0.00     0.210 HD
HETATM   16  C22 UNL     1      65.926  -5.179  69.962  1.00  0.00     0.360 A
HETATM   17  O6  UNL     1      66.249  -3.966  69.992  1.00  0.00    -0.243 OA
BRANCH  14  18
HETATM   18  C19 UNL     1      65.923  -5.356  67.448  1.00  0.00     0.196 C
BRANCH  18  19
HETATM   19  C20 UNL     1      64.775  -4.460  67.037  1.00  0.00     0.227 C
BRANCH  19  20
HETATM   20  O4  UNL     1      64.126  -4.900  65.901  1.00  0.00    -0.385 OA
ATOM     21  H4  UNL     1      64.651  -4.809  65.115  1.00  0.00     0.210 HD
ENDBRANCH  19  20
BRANCH  19  22
HETATM   22  C21 UNL     1      65.166  -3.058  66.903  1.00  0.00     0.261 C
HETATM   23  N9  UNL     1      65.913  -2.652  65.772  1.00  0.00    -0.060 NA
HETATM   24  O5  UNL     1      64.862  -2.192  67.763  1.00  0.00    -0.274 OA
ENDBRANCH  19  22
ENDBRANCH  18  19
ENDBRANCH  14  18
ENDBRANCH   9  10
ENDBRANCH   8   9
BRANCH   1  25
HETATM   25  N1  UNL     1      63.625  -6.716  73.666  1.00  0.00    -0.385 N
ATOM     26  H12 UNL     1      64.411  -6.887  74.292  1.00  0.00     0.157 HD
ATOM     27  H11 UNL     1      62.906  -7.371  73.359  1.00  0.00     0.157 HD
ENDBRANCH   1  25
BRANCH   7  28
HETATM   28  C16 UNL     1      65.914  -2.813  73.303  1.00  0.00     0.206 C
BRANCH  28  29
HETATM   29  O3  UNL     1      66.799  -2.297  72.378  1.00  0.00    -0.396 OA
ATOM     30  H3  UNL     1      67.241  -1.486  72.596  1.00  0.00     0.209 HD
ENDBRANCH  28  29
ENDBRANCH   7  28
BRANCH   6  31
HETATM   31  O2  UNL     1      64.116  -1.382  71.878  1.00  0.00    -0.359 OA
ATOM     32  H2  UNL     1      64.648  -0.878  72.482  1.00  0.00     0.217 HD
ENDBRANCH   6  31
BRANCH   4  33
HETATM   33  N3  UNL     1      60.402  -3.900  72.529  1.00  0.00    -0.385 N
ATOM     34  H32 UNL     1      60.078  -3.331  71.747  1.00  0.00     0.157 HD
ATOM     35  H31 UNL     1      59.857  -4.408  73.226  1.00  0.00     0.157 HD
ENDBRANCH   4  33
BRANCH   5  36
HETATM   36  C4  UNL     1      61.546  -1.749  71.774  1.00  0.00    -0.017 A
HETATM   37  C5  UNL     1      61.213  -0.729  72.672  1.00  0.00     0.015 A
HETATM   38  C6  UNL     1      60.458   0.320  72.224  1.00  0.00     0.040 A
HETATM   39  C7  UNL     1      60.028   0.392  70.930  1.00  0.00     0.092 A
HETATM   40  C8  UNL     1      60.351  -0.607  70.036  1.00  0.00     0.072 A
HETATM   41  C13 UNL     1      61.104  -1.660  70.471  1.00  0.00     0.045 A
BRANCH  39  42
HETATM   42  O1  UNL     1      59.265   1.460  70.494  1.00  0.00    -0.358 OA
ATOM     43  H1  UNL     1      58.371   1.333  70.202  1.00  0.00     0.217 HD
ENDBRANCH  39  42
BRANCH  40  44
HETATM   44  N4  UNL     1      59.917  -0.556  68.675  1.00  0.00    -0.330 N
HETATM   45  C9  UNL     1      60.593   0.086  67.701  1.00  0.00     0.097 A
HETATM   46  C10 UNL     1      59.886  -0.071  66.520  1.00  0.00     0.019 A
HETATM   47  C11 UNL     1      58.780  -0.817  66.812  1.00  0.00     0.019 A
HETATM   48  C12 UNL     1      58.818  -1.112  68.172  1.00  0.00     0.097 A
ENDBRANCH  40  44
ENDBRANCH   5  36
TORSDOF 14
ENDMDL