MODEL 3
REMARK VINA RESULT: -9.870912216      3.203      4.669
REMARK  10 active torsions:
REMARK  status: ('A' for Active; 'I' for Inactive)
REMARK    1  A    between atoms: C2_9  and  S1_10
REMARK    2  A    between atoms: S1_10  and  C3_11
REMARK    3  A    between atoms: C3_11  and  C4_12
REMARK       I    between atoms: C4_12  and  N5_14
REMARK    4  A    between atoms: N5_14  and  C5_15
REMARK    5  A    between atoms: C7_17  and  N6_18
REMARK    6  A    between atoms: N6_18  and  C8_20
REMARK    7  A    between atoms: C11_26  and  N8_27
REMARK    8  A    between atoms: N8_27  and  C12_29
REMARK    9  A    between atoms: C12_29  and  C13_30
REMARK   10  A    between atoms: C16_43  and  O5_44
ROOT
HETATM    1  N6  UNL     1      59.213   0.712  68.773  1.00  0.00    -0.338 N
ATOM      2  H6  UNL     1      58.470   1.409  68.714  1.00  0.00     0.167 HD
ENDROOT
BRANCH   1   3
HETATM    3  C7  UNL     1      59.348  -0.106  67.646  1.00  0.00     0.089 A
HETATM    4  C6  UNL     1      59.725   0.128  66.353  1.00  0.00     0.098 A
HETATM    5  C5  UNL     1      59.810  -1.022  65.584  1.00  0.00     0.187 A
HETATM    6  N13 UNL     1      59.448  -2.026  66.514  1.00  0.00    -0.310 N
HETATM    7  C16 UNL     1      59.188  -1.504  67.675  1.00  0.00     0.170 A
ATOM      8  H13 UNL     1      59.397  -3.022  66.301  1.00  0.00     0.170 HD
BRANCH   5   9
HETATM    9  N5  UNL     1      60.126  -1.351  64.319  1.00  0.00    -0.351 NA
HETATM   10  C4  UNL     1      60.441  -1.687  63.033  1.00  0.00     0.303 C
HETATM   11  O1  UNL     1      59.920  -2.498  62.275  1.00  0.00    -0.256 OA
BRANCH  10  12
HETATM   12  C3  UNL     1      61.633  -0.936  62.453  1.00  0.00     0.201 C
BRANCH  12  13
HETATM   13  S1  UNL     1      61.001   0.179  61.193  1.00  0.00    -0.081 SA
BRANCH  13  14
HETATM   14  C2  UNL     1      60.464   1.680  61.989  1.00  0.00     0.178 A
HETATM   15  N1  UNL     1      60.165   2.823  61.386  1.00  0.00    -0.259 N
HETATM   16  C1  UNL     1      60.239   3.057  59.942  1.00  0.00     0.181 C
HETATM   17  N2  UNL     1      59.811   3.652  62.343  1.00  0.00    -0.224 N
HETATM   18  N3  UNL     1      59.874   3.079  63.529  1.00  0.00    -0.226 N
ATOM     19  H2  UNL     1      59.523   4.618  62.187  1.00  0.00     0.210 HD
HETATM   20  N4  UNL     1      60.287   1.827  63.314  1.00  0.00    -0.263 N
ATOM     21  H3  UNL     1      59.654   3.506  64.429  1.00  0.00     0.210 HD
ATOM     22  H4  UNL     1      60.441   1.113  64.026  1.00  0.00     0.190 HD
ENDBRANCH  13  14
ENDBRANCH  12  13
ENDBRANCH  10  12
ENDBRANCH   5   9
BRANCH   7  23
HETATM   23  O5  UNL     1      58.793  -2.200  68.842  1.00  0.00    -0.344 OA
ATOM     24  H5  UNL     1      59.401  -2.409  69.541  1.00  0.00     0.219 HD
ENDBRANCH   7  23
ENDBRANCH   1   3
BRANCH   1  25
HETATM   25  C8  UNL     1      59.936   0.724  69.962  1.00  0.00     0.126 A
HETATM   26  C9  UNL     1      61.150   1.310  70.219  1.00  0.00     0.123 A
HETATM   27  C10 UNL     1      61.803   1.203  71.456  1.00  0.00     0.263 A
HETATM   28  O2  UNL     1      62.901   1.738  71.674  1.00  0.00    -0.268 OA
HETATM   29  N7  UNL     1      61.204   0.496  72.418  1.00  0.00    -0.156 N
HETATM   30  C11 UNL     1      60.018  -0.094  72.216  1.00  0.00     0.682 A
ATOM     31  H7  UNL     1      61.658   0.405  73.327  1.00  0.00     0.187 HD
HETATM   32  N12 UNL     1      59.423   0.026  71.033  1.00  0.00    -0.176 N
ATOM     33  H12 UNL     1      58.520  -0.432  70.910  1.00  0.00     0.186 HD
BRANCH  30  34
HETATM   34  N8  UNL     1      59.499  -0.772  73.190  1.00  0.00    -0.219 N
ATOM     35  H8  UNL     1      59.329  -0.307  74.081  1.00  0.00     0.178 HD
BRANCH  34  36
HETATM   36  C12 UNL     1      59.154  -2.175  73.050  1.00  0.00     0.216 C
BRANCH  36  37
HETATM   37  C13 UNL     1      57.738  -2.232  72.569  1.00  0.00     0.117 A
HETATM   38  N9  UNL     1      57.393  -3.069  71.558  1.00  0.00    -0.306 N
HETATM   39  C14 UNL     1      56.106  -3.071  71.182  1.00  0.00     0.316 A
ATOM     40  H9  UNL     1      58.082  -3.669  71.104  1.00  0.00     0.170 HD
HETATM   41  O3  UNL     1      55.700  -3.824  70.245  1.00  0.00    -0.262 OA
HETATM   42  C15 UNL     1      55.148  -2.266  71.782  1.00  0.00     0.328 A
HETATM   43  O4  UNL     1      53.941  -2.295  71.402  1.00  0.00    -0.261 OA
HETATM   44  N10 UNL     1      55.554  -1.471  72.766  1.00  0.00    -0.260 N
HETATM   45  N11 UNL     1      56.812  -1.456  73.146  1.00  0.00    -0.284 N
ATOM     46  H10 UNL     1      54.881  -0.864  73.233  1.00  0.00     0.190 HD
ATOM     47  H11 UNL     1      57.091  -0.834  73.904  1.00  0.00     0.188 HD
ENDBRANCH  36  37
ENDBRANCH  34  36
ENDBRANCH  30  34
ENDBRANCH   1  25
TORSDOF 10
ENDMDL