MODEL 3
REMARK VINA RESULT: -7.837239002      1.944      2.513
REMARK  11 active torsions:
REMARK  status: ('A' for Active; 'I' for Inactive)
REMARK    1  A    between atoms: O1_2  and  C2_3
REMARK    2  A    between atoms: C3_4  and  N1_5
REMARK       I    between atoms: N1_5  and  C4_7
REMARK    3  A    between atoms: C4_7  and  C5_9
REMARK    4  A    between atoms: C5_9  and  N2_10
REMARK    5  A    between atoms: C8_17  and  C9_18
REMARK       I    between atoms: C9_18  and  N4_20
REMARK    6  A    between atoms: N4_20  and  N5_22
REMARK       I    between atoms: N5_22  and  C10_24
REMARK    7  A    between atoms: C10_24  and  C11_26
REMARK    8  A    between atoms: C11_26  and  S1_27
REMARK    9  A    between atoms: S1_27  and  C12_28
REMARK   10  A    between atoms: C15_40  and  O6_41
REMARK   11  A    between atoms: C16_43  and  O7_44
ROOT
HETATM    1  C5  UNL     1      61.232  -4.240  62.718  1.00  0.00     0.380 C
HETATM    2  C6  UNL     1      62.329  -4.393  63.679  1.00  0.00     0.102 C
HETATM    3  N3  UNL     1      63.195  -4.523  64.467  1.00  0.00    -0.195 NA
ENDROOT
BRANCH   1   4
HETATM    4  C4  UNL     1      60.451  -2.980  63.014  1.00  0.00     0.267 C
HETATM    5  N1  UNL     1      61.123  -1.867  63.481  1.00  0.00    -0.322 N
ATOM      6  H1  UNL     1      62.129  -2.003  63.584  1.00  0.00     0.169 HD
HETATM    7  O2  UNL     1      59.233  -3.049  62.807  1.00  0.00    -0.270 OA
BRANCH   5   8
HETATM    8  C3  UNL     1      60.683  -0.588  63.839  1.00  0.00     0.072 C
HETATM    9  C2  UNL     1      61.118   0.455  63.019  1.00  0.00     0.131 C
HETATM   10  C16 UNL     1      60.869   1.817  63.052  1.00  0.00     0.141 C
HETATM   11  C15 UNL     1      59.959   2.499  63.812  1.00  0.00     0.153 C
HETATM   12  C14 UNL     1      59.430   2.066  65.031  1.00  0.00     0.223 C
HETATM   13  C8  UNL     1      59.529   0.813  65.580  1.00  0.00     0.088 C
HETATM   14  O5  UNL     1      58.796   2.927  65.690  1.00  0.00    -0.284 OA
HETATM   15  C7  UNL     1      59.887  -0.391  64.962  1.00  0.00     0.054 C
BRANCH   9  16
HETATM   16  O1  UNL     1      61.946   0.066  61.985  1.00  0.00    -0.351 OA
HETATM   17  C1  UNL     1      61.308  -0.297  60.748  1.00  0.00     0.210 C
ENDBRANCH   9  16
BRANCH  10  18
HETATM   18  O7  UNL     1      61.640   2.597  62.208  1.00  0.00    -0.350 OA
HETATM   19  C17 UNL     1      60.992   3.167  61.084  1.00  0.00     0.210 C
ENDBRANCH  10  18
BRANCH  11  20
HETATM   20  O6  UNL     1      59.497   3.725  63.368  1.00  0.00    -0.355 OA
ATOM     21  H6  UNL     1      60.163   4.392  63.250  1.00  0.00     0.218 HD
ENDBRANCH  11  20
BRANCH  13  22
HETATM   22  C9  UNL     1      59.233   0.665  67.000  1.00  0.00     0.274 C
HETATM   23  O3  UNL     1      58.316  -0.073  67.421  1.00  0.00    -0.266 OA
HETATM   24  N4  UNL     1      60.052   1.407  67.887  1.00  0.00    -0.263 N
ATOM     25  H4  UNL     1      60.797   2.001  67.523  1.00  0.00     0.190 HD
BRANCH  24  26
HETATM   26  N5  UNL     1      59.832   1.318  69.256  1.00  0.00    -0.267 N
HETATM   27  C10 UNL     1      60.745   0.519  70.024  1.00  0.00     0.245 C
HETATM   28  O4  UNL     1      61.682  -0.056  69.457  1.00  0.00    -0.271 OA
ATOM     29  H5  UNL     1      59.051   1.802  69.699  1.00  0.00     0.190 HD
BRANCH  27  30
HETATM   30  C11 UNL     1      60.589   0.371  71.492  1.00  0.00     0.186 C
BRANCH  30  31
HETATM   31  S1  UNL     1      60.415  -1.364  71.898  1.00  0.00    -0.094 SA
BRANCH  31  32
HETATM   32  C12 UNL     1      59.095  -2.051  70.864  1.00  0.00     0.130 A
HETATM   33  N6  UNL     1      59.103  -2.189  69.542  1.00  0.00    -0.286 N
HETATM   34  N7  UNL     1      58.103  -2.695  68.952  1.00  0.00    -0.279 N
ATOM     35  H6  UNL     1      59.915  -1.887  69.002  1.00  0.00     0.188 HD
HETATM   36  C13 UNL     1      57.054  -3.082  69.688  1.00  0.00     0.159 A
ATOM     37  H7  UNL     1      58.097  -2.806  67.937  1.00  0.00     0.189 HD
HETATM   38  N8  UNL     1      55.943  -3.622  69.233  1.00  0.00    -0.379 N
HETATM   39  S2  UNL     1      57.568  -2.685  71.265  1.00  0.00    -0.027 SA
ATOM     40  H82 UNL     1      55.636  -3.860  68.290  1.00  0.00     0.158 HD
ATOM     41  H81 UNL     1      55.144  -3.917  69.794  1.00  0.00     0.158 HD
ENDBRANCH  31  32
ENDBRANCH  30  31
ENDBRANCH  27  30
ENDBRANCH  24  26
ENDBRANCH  13  22
ENDBRANCH   5   8
ENDBRANCH   1   4
BRANCH   1  42
HETATM   42  N2  UNL     1      60.377  -5.395  62.716  1.00  0.00    -0.054 N
ATOM     43  H23 UNL     1      60.894  -6.245  62.938  1.00  0.00     0.276 HD
ATOM     44  H22 UNL     1      59.738  -5.389  63.510  1.00  0.00     0.276 HD
ATOM     45  H21 UNL     1      59.875  -5.482  61.832  1.00  0.00     0.276 HD
ENDBRANCH   1  42
TORSDOF 11
ENDMDL