MODEL 5
REMARK VINA RESULT: -7.697281598      2.142      2.995
REMARK  11 active torsions:
REMARK  status: ('A' for Active; 'I' for Inactive)
REMARK    1  A    between atoms: C2_2  and  O1_4
REMARK    2  A    between atoms: O1_4  and  N2_5
REMARK    3  A    between atoms: N2_5  and  C3_6
REMARK    4  A    between atoms: C3_6  and  C4_7
REMARK    5  A    between atoms: C3_6  and  C14_33
REMARK       I    between atoms: C4_7  and  N3_9
REMARK    6  A    between atoms: N4_16  and  O3_18
REMARK    7  A    between atoms: C9_21  and  C10_22
REMARK    8  A    between atoms: C10_22  and  O4_23
REMARK    9  A    between atoms: C10_22  and  O5_25
REMARK   10  A    between atoms: C11_27  and  C12_28
REMARK   11  A    between atoms: C16_36  and  N8_37
ROOT
HETATM    1  C4  UNL     1      60.487  -1.169  70.483  1.00  0.00     0.250 C
HETATM    2  O2  UNL     1      60.754  -0.037  71.008  1.00  0.00    -0.271 OA
HETATM    3  N3  UNL     1      61.195  -1.579  69.409  1.00  0.00    -0.313 N
ATOM      4  H3  UNL     1      60.548  -1.670  68.626  1.00  0.00     0.170 HD
HETATM    5  C5  UNL     1      62.328  -1.888  69.002  1.00  0.00     0.111 C
HETATM    6  C6  UNL     1      63.612  -1.923  69.748  1.00  0.00     0.169 C
HETATM    7  C7  UNL     1      63.331  -1.795  71.196  1.00  0.00     0.116 C
HETATM    8  S1  UNL     1      64.840  -2.674  71.858  1.00  0.00    -0.089 SA
HETATM    9  C8  UNL     1      64.802  -3.869  70.481  1.00  0.00     0.168 C
HETATM   10  N4  UNL     1      65.189  -5.062  70.642  1.00  0.00    -0.230 N
ATOM     11  H4  UNL     1      65.137  -5.673  69.826  1.00  0.00     0.198 HD
HETATM   12  N5  UNL     1      64.278  -3.122  69.401  1.00  0.00    -0.310 N
HETATM   13  C9  UNL     1      64.369  -3.461  67.984  1.00  0.00     0.101 C
HETATM   14  C11 UNL     1      63.467  -3.033  67.110  1.00  0.00     0.129 C
HETATM   15  N7  UNL     1      62.405  -2.223  67.598  1.00  0.00    -0.333 N
HETATM   16  C13 UNL     1      61.367  -1.705  66.718  1.00  0.00     0.158 C
ENDROOT
BRANCH   1  17
HETATM   17  C3  UNL     1      59.403  -2.023  71.056  1.00  0.00     0.249 C
BRANCH  17  18
HETATM   18  N2  UNL     1      58.821  -1.477  72.250  1.00  0.00    -0.072 NA
BRANCH  18  19
HETATM   19  O1  UNL     1      57.526  -1.126  72.113  1.00  0.00    -0.229 OA
BRANCH  19  20
HETATM   20  C2  UNL     1      56.465  -1.724  72.751  1.00  0.00     0.166 C
HETATM   21  C1  UNL     1      56.683  -2.448  73.807  1.00  0.00     0.070 C
HETATM   22  N1  UNL     1      55.138  -1.560  72.271  1.00  0.00    -0.074 NA
ENDBRANCH  19  20
ENDBRANCH  18  19
ENDBRANCH  17  18
BRANCH  17  23
HETATM   23  C14 UNL     1      58.323  -2.288  70.025  1.00  0.00     0.049 A
HETATM   24  C15 UNL     1      58.331  -1.641  68.819  1.00  0.00     0.080 A
HETATM   25  S3  UNL     1      56.945  -2.276  68.054  1.00  0.00    -0.064 SA
HETATM   26  C16 UNL     1      56.433  -3.323  69.295  1.00  0.00     0.142 A
HETATM   27  N9  UNL     1      57.347  -3.140  70.244  1.00  0.00    -0.338 N
ATOM     28  H9  UNL     1      57.290  -3.651  71.124  1.00  0.00     0.168 HD
BRANCH  26  29
HETATM   29  N8  UNL     1      55.389  -4.123  69.319  1.00  0.00    -0.380 N
ATOM     30  H82 UNL     1      55.351  -5.098  69.617  1.00  0.00     0.158 HD
ATOM     31  H81 UNL     1      54.426  -3.925  69.047  1.00  0.00     0.158 HD
ENDBRANCH  26  29
ENDBRANCH  17  23
ENDBRANCH   1  17
BRANCH  14  32
HETATM   32  C12 UNL     1      63.483  -3.334  65.678  1.00  0.00     0.283 C
HETATM   33  N6  UNL     1      63.223  -4.588  65.117  1.00  0.00    -0.056 NA
HETATM   34  O6  UNL     1      63.751  -2.403  64.837  1.00  0.00    -0.269 OA
ENDBRANCH  14  32
BRANCH  13  35
HETATM   35  C10 UNL     1      65.530  -4.307  67.591  1.00  0.00     0.308 C
BRANCH  35  36
HETATM   36  O4  UNL     1      65.100  -5.689  67.511  1.00  0.00    -0.366 OA
ATOM     37  H4  UNL     1      65.815  -6.251  67.785  1.00  0.00     0.213 HD
ENDBRANCH  35  36
BRANCH  35  38
HETATM   38  O5  UNL     1      66.139  -3.942  66.423  1.00  0.00    -0.366 OA
ATOM     39  H5  UNL     1      67.053  -4.191  66.354  1.00  0.00     0.213 HD
ENDBRANCH  35  38
ENDBRANCH  13  35
BRANCH  10  40
HETATM   40  O3  UNL     1      65.663  -5.611  71.782  1.00  0.00    -0.188 OA
HETATM   41  S2  UNL     1      65.161  -7.162  72.380  1.00  0.00     0.125 SA
ENDBRANCH  10  40
TORSDOF 11
ENDMDL