MODEL 2
REMARK VINA RESULT: -9.549842615      1.636      2.294
REMARK  12 active torsions:
REMARK  status: ('A' for Active; 'I' for Inactive)
REMARK    1  A    between atoms: S1_2  and  C2_3
REMARK    2  A    between atoms: C3_6  and  N2_7
REMARK    3  A    between atoms: N2_7  and  C4_9
REMARK    4  A    between atoms: C4_9  and  C9_25
REMARK    5  A    between atoms: N3_10  and  N4_12
REMARK    6  A    between atoms: C5_14  and  C6_15
REMARK    7  A    between atoms: C8_22  and  O2_23
REMARK    8  A    between atoms: C12_28  and  O3_29
REMARK    9  A    between atoms: O3_29  and  C13_30
REMARK   10  A    between atoms: C13_30  and  C14_31
REMARK   11  A    between atoms: C15_40  and  O4_41
REMARK   12  A    between atoms: C17_46  and  N12_47
ROOT
HETATM    1  C4  UNL     1      61.539  -1.383  69.534  1.00  0.00     0.145 C
HETATM    2  N3  UNL     1      60.893  -2.060  70.376  1.00  0.00    -0.285 N
ATOM      3  H3  UNL     1      61.483  -2.594  71.015  1.00  0.00     0.188 HD
ENDROOT
BRANCH   1   4
HETATM    4  N2  UNL     1      62.945  -1.407  69.534  1.00  0.00    -0.174 N
ATOM      5  H2  UNL     1      63.433  -0.598  69.918  1.00  0.00     0.186 HD
BRANCH   4   6
HETATM    6  C3  UNL     1      63.660  -2.375  69.083  1.00  0.00     0.700 A
HETATM    7  N1  UNL     1      63.633  -2.625  67.763  1.00  0.00    -0.169 N
HETATM    8  C2  UNL     1      64.369  -3.639  67.215  1.00  0.00     0.176 A
ATOM      9  H1  UNL     1      63.052  -2.047  67.156  1.00  0.00     0.186 HD
HETATM   10  N13 UNL     1      65.140  -4.412  67.999  1.00  0.00    -0.166 N
HETATM   11  C17 UNL     1      65.169  -4.166  69.322  1.00  0.00     0.694 A
HETATM   12  C18 UNL     1      65.914  -5.486  67.395  1.00  0.00     0.177 C
HETATM   13  N11 UNL     1      64.437  -3.160  69.853  1.00  0.00    -0.022 N
ATOM     14  H11 UNL     1      64.475  -2.991  70.858  1.00  0.00     0.203 HD
BRANCH   8  15
HETATM   15  S1  UNL     1      64.338  -3.973  65.467  1.00  0.00    -0.097 SA
HETATM   16  C1  UNL     1      65.065  -2.595  64.525  1.00  0.00     0.099 C
ENDBRANCH   8  15
BRANCH  11  17
HETATM   17  N12 UNL     1      65.910  -4.911  70.071  1.00  0.00    -0.234 N
ATOM     18 2H12 UNL     1      66.585  -4.460  70.688  1.00  0.00     0.174 HD
ATOM     19 1H12 UNL     1      65.824  -5.926  70.047  1.00  0.00     0.174 HD
ENDBRANCH  11  17
ENDBRANCH   4   6
ENDBRANCH   1   4
BRANCH   1  20
HETATM   20  C9  UNL     1      60.865  -0.573  68.536  1.00  0.00     0.013 A
HETATM   21  C10 UNL     1      60.497   0.723  68.930  1.00  0.00     0.018 A
HETATM   22  C11 UNL     1      59.862   1.556  68.029  1.00  0.00     0.040 A
HETATM   23  C12 UNL     1      59.568   1.174  66.745  1.00  0.00     0.102 A
HETATM   24  C15 UNL     1      59.952  -0.118  66.403  1.00  0.00     0.100 A
HETATM   25  C16 UNL     1      60.583  -0.966  67.276  1.00  0.00     0.054 A
BRANCH  23  26
HETATM   26  O3  UNL     1      58.942   2.016  65.872  1.00  0.00    -0.341 OA
BRANCH  26  27
HETATM   27  C13 UNL     1      59.345   3.217  65.340  1.00  0.00     0.255 C
BRANCH  27  28
HETATM   28  C14 UNL     1      59.671   3.081  63.909  1.00  0.00     0.137 A
HETATM   29  N7  UNL     1      60.244   2.008  63.355  1.00  0.00    -0.270 N
HETATM   30  N8  UNL     1      60.379   2.244  62.068  1.00  0.00    -0.227 N
ATOM     31  H7  UNL     1      60.526   1.158  63.842  1.00  0.00     0.190 HD
HETATM   32  N9  UNL     1      59.900   3.447  61.808  1.00  0.00    -0.227 N
ATOM     33  H8  UNL     1      60.786   1.605  61.385  1.00  0.00     0.210 HD
HETATM   34  N10 UNL     1      59.454   3.993  62.920  1.00  0.00    -0.270 N
ATOM     35  H9  UNL     1      59.878   3.886  60.888  1.00  0.00     0.210 HD
ATOM     36  H10 UNL     1      59.031   4.915  63.021  1.00  0.00     0.190 HD
ENDBRANCH  27  28
ENDBRANCH  26  27
ENDBRANCH  23  26
BRANCH  24  37
HETATM   37  O4  UNL     1      59.648  -0.502  65.086  1.00  0.00    -0.358 OA
ATOM     38  H4  UNL     1      59.886  -1.393  64.860  1.00  0.00     0.217 HD
ENDBRANCH  24  37
ENDBRANCH   1  20
BRANCH   2  39
HETATM   39  N4  UNL     1      59.562  -2.218  70.598  1.00  0.00    -0.308 N
HETATM   40  C5  UNL     1      58.842  -1.743  71.527  1.00  0.00     0.141 C
ATOM     41  H4  UNL     1      59.072  -2.804  69.922  1.00  0.00     0.186 HD
BRANCH  40  42
HETATM   42  C6  UNL     1      57.415  -2.063  71.548  1.00  0.00     0.104 A
HETATM   43  N5  UNL     1      56.726  -2.674  70.557  1.00  0.00    -0.304 N
HETATM   44  C7  UNL     1      55.434  -2.816  70.902  1.00  0.00     0.326 A
ATOM     45  H5  UNL     1      57.129  -2.984  69.673  1.00  0.00     0.171 HD
HETATM   46  O1  UNL     1      54.550  -3.348  70.185  1.00  0.00    -0.247 OA
HETATM   47  N6  UNL     1      55.307  -2.283  72.138  1.00  0.00    -0.287 N
HETATM   48  C8  UNL     1      56.494  -1.827  72.535  1.00  0.00     0.173 A
ATOM     49  H6  UNL     1      54.443  -2.238  72.678  1.00  0.00     0.172 HD
BRANCH  48  50
HETATM   50  O2  UNL     1      56.761  -1.213  73.748  1.00  0.00    -0.344 OA
ATOM     51  H2  UNL     1      56.477  -1.531  74.597  1.00  0.00     0.219 HD
ENDBRANCH  48  50
ENDBRANCH  40  42
ENDBRANCH   2  39
TORSDOF 12
ENDMDL