MODEL 3
REMARK VINA RESULT: -8.017493839      1.821      2.189
REMARK  15 active torsions:
REMARK  status: ('A' for Active; 'I' for Inactive)
REMARK    1  A    between atoms: C2_2  and  C4_4
REMARK    2  A    between atoms: C2_2  and  C8_13
REMARK    3  A    between atoms: C4_4  and  S1_5
REMARK    4  A    between atoms: S1_5  and  C5_6
REMARK       I    between atoms: C8_13  and  N3_15
REMARK    5  A    between atoms: N3_15  and  C9_17
REMARK    6  A    between atoms: C11_19  and  O2_20
REMARK    7  A    between atoms: C11_19  and  C17_33
REMARK    8  A    between atoms: O2_20  and  C12_21
REMARK    9  A    between atoms: C12_21  and  C13_23
REMARK   10  A    between atoms: C13_23  and  C14_24
REMARK   11  A    between atoms: C14_24  and  O4_25
REMARK   12  A    between atoms: C14_24  and  C15_28
REMARK   13  A    between atoms: C16_29  and  N4_30
REMARK   14  A    between atoms: C19_37  and  N5_38
REMARK   15  A    between atoms: N5_38  and  N6_39
ROOT
HETATM    1  C9  UNL     1      62.090  -0.774  69.982  1.00  0.00     0.291 C
HETATM    2  C10 UNL     1      61.567  -1.861  70.845  1.00  0.00     0.104 C
HETATM    3  C11 UNL     1      61.543  -1.612  72.314  1.00  0.00     0.165 C
HETATM    4  C18 UNL     1      62.241  -0.383  72.783  1.00  0.00     0.102 C
HETATM    5  C19 UNL     1      62.671   0.593  71.755  1.00  0.00     0.303 C
HETATM    6  N7  UNL     1      61.945   0.553  70.532  1.00  0.00    -0.035 N
ATOM      7  H71 UNL     1      60.971   0.834  70.639  1.00  0.00     0.281 HD
ATOM      8  H72 UNL     1      62.225   1.286  69.880  1.00  0.00     0.281 HD
ENDROOT
BRANCH   1   9
HETATM    9  N3  UNL     1      61.408  -0.775  68.704  1.00  0.00    -0.333 N
HETATM   10  C8  UNL     1      60.213  -0.044  68.480  1.00  0.00     0.228 C
HETATM   11  O1  UNL     1      59.735   0.627  69.430  1.00  0.00    -0.273 OA
ATOM     12  H3  UNL     1      61.801  -1.322  67.938  1.00  0.00     0.164 HD
BRANCH  10  13
HETATM   13  C2  UNL     1      59.509  -0.036  67.185  1.00  0.00     0.042 C
HETATM   14  C1  UNL     1      59.462   1.353  66.581  1.00  0.00     0.026 C
HETATM   15  C3  UNL     1      60.202  -0.961  66.180  1.00  0.00     0.026 C
BRANCH  13  16
HETATM   16  C4  UNL     1      58.088  -0.541  67.317  1.00  0.00     0.100 C
BRANCH  16  17
HETATM   17  S1  UNL     1      58.166  -2.301  67.711  1.00  0.00    -0.093 SA
BRANCH  17  18
HETATM   18  C5  UNL     1      57.210  -2.679  69.178  1.00  0.00     0.136 C
HETATM   19  N1  UNL     1      56.079  -3.315  69.155  1.00  0.00    -0.369 N
HETATM   20  C6  UNL     1      55.543  -3.474  70.482  1.00  0.00     0.141 C
ATOM     21  H1  UNL     1      55.628  -3.657  68.307  1.00  0.00     0.161 HD
HETATM   22  C7  UNL     1      56.703  -3.135  71.402  1.00  0.00     0.141 C
HETATM   23  N2  UNL     1      57.544  -2.351  70.519  1.00  0.00    -0.369 N
ATOM     24  H2  UNL     1      58.254  -1.679  70.811  1.00  0.00     0.161 HD
ENDBRANCH  17  18
ENDBRANCH  16  17
ENDBRANCH  13  16
ENDBRANCH  10  13
ENDBRANCH   1   9
BRANCH   3  25
HETATM   25  O2  UNL     1      62.152  -2.723  72.949  1.00  0.00    -0.298 OA
BRANCH  25  26
HETATM   26  C12 UNL     1      63.489  -3.025  72.912  1.00  0.00     0.264 C
HETATM   27  O3  UNL     1      64.260  -2.455  73.726  1.00  0.00    -0.265 OA
BRANCH  26  28
HETATM   28  C13 UNL     1      64.072  -3.998  71.950  1.00  0.00     0.175 C
BRANCH  28  29
HETATM   29  C14 UNL     1      65.132  -3.342  71.082  1.00  0.00     0.191 C
HETATM   30  S2  UNL     1      66.782  -3.946  71.497  1.00  0.00    -0.041 SA
BRANCH  29  31
HETATM   31  O4  UNL     1      65.030  -1.964  71.205  1.00  0.00    -0.367 OA
ATOM     32  H4  UNL     1      65.671  -1.553  70.637  1.00  0.00     0.212 HD
ENDBRANCH  29  31
BRANCH  29  33
HETATM   33  C15 UNL     1      64.870  -3.669  69.681  1.00  0.00    -0.033 C
HETATM   34  C16 UNL     1      64.637  -3.929  68.524  1.00  0.00     0.007 C
BRANCH  34  35
HETATM   35  N4  UNL     1      64.351  -4.213  67.184  1.00  0.00    -0.359 N
ATOM     36  H42 UNL     1      64.061  -3.568  67.919  1.00  0.00     0.166 HD
ATOM     37  H41 UNL     1      64.154  -4.433  66.208  1.00  0.00     0.166 HD
ENDBRANCH  34  35
ENDBRANCH  29  33
ENDBRANCH  28  29
ENDBRANCH  26  28
ENDBRANCH  25  26
ENDBRANCH   3  25
BRANCH   3  38
HETATM   38  C17 UNL     1      60.143  -1.555  72.772  1.00  0.00     0.210 C
HETATM   39  O5  UNL     1      59.381  -0.685  72.308  1.00  0.00    -0.646 OA
HETATM   40  O6  UNL     1      59.678  -2.451  73.701  1.00  0.00    -0.646 OA
ENDBRANCH   3  38
BRANCH   5  41
HETATM   41  N5  UNL     1      62.679   1.960  72.287  1.00  0.00    -0.115 NA
BRANCH  41  42
HETATM   42  N6  UNL     1      61.711   2.762  71.723  1.00  0.00    -0.346 N
ATOM     43  H62 UNL     1      61.579   2.839  70.715  1.00  0.00     0.172 HD
ATOM     44  H61 UNL     1      61.153   3.259  72.417  1.00  0.00     0.172 HD
ENDBRANCH  41  42
ENDBRANCH   5  41
TORSDOF 15
ENDMDL