MODEL 2
REMARK VINA RESULT: -8.521590168      2.314      3.639
REMARK  12 active torsions:
REMARK  status: ('A' for Active; 'I' for Inactive)
REMARK    1  A    between atoms: C2_2  and  O1_3
REMARK    2  A    between atoms: O1_3  and  C3_4
REMARK    3  A    between atoms: C3_4  and  C4_6
REMARK    4  A    between atoms: C4_6  and  N1_7
REMARK    5  A    between atoms: C5_8  and  S1_9
REMARK    6  A    between atoms: S1_9  and  C6_10
REMARK    7  A    between atoms: C6_10  and  C7_11
REMARK       I    between atoms: C7_11  and  N2_13
REMARK    8  A    between atoms: N2_13  and  N3_15
REMARK    9  A    between atoms: N3_15  and  C8_17
REMARK   10  A    between atoms: C8_17  and  N4_19
REMARK   11  A    between atoms: N5_21  and  N6_23
REMARK       I    between atoms: N6_23  and  C9_25
REMARK       I    between atoms: C9_25  and  N7_27
REMARK   12  A    between atoms: C11_32  and  N9_33
ROOT
HETATM    1  N1  UNL     1      58.988  -1.721  69.824  1.00  0.00    -0.303 N
HETATM    2  C5  UNL     1      59.864  -1.049  70.590  1.00  0.00     0.150 A
HETATM    3  N8  UNL     1      59.701  -0.879  71.901  1.00  0.00    -0.322 N
ATOM      4  H8  UNL     1      60.406  -0.356  72.420  1.00  0.00     0.169 HD
HETATM    5  C11 UNL     1      58.608  -1.387  72.584  1.00  0.00     0.118 A
HETATM    6  C12 UNL     1      57.697  -2.088  71.792  1.00  0.00     0.094 A
HETATM    7  C13 UNL     1      56.576  -2.649  72.362  1.00  0.00     0.149 A
HETATM    8  N10 UNL     1      56.258  -2.568  73.735  1.00  0.00    -0.081 NA
HETATM    9  N11 UNL     1      55.737  -3.326  71.527  1.00  0.00    -0.178 N
ATOM     10  H11 UNL     1      54.899  -3.752  71.923  1.00  0.00     0.185 HD
HETATM   11  C14 UNL     1      55.958  -3.460  70.212  1.00  0.00     0.678 A
HETATM   12  N12 UNL     1      55.133  -4.117  69.448  1.00  0.00    -0.234 N
ATOM     13 1H12 UNL     1      55.301  -4.219  68.446  1.00  0.00     0.174 HD
ATOM     14 2H12 UNL     1      54.304  -4.530  69.873  1.00  0.00     0.174 HD
HETATM   15  N13 UNL     1      57.049  -2.915  69.652  1.00  0.00    -0.176 N
ATOM     16  H13 UNL     1      57.226  -3.012  68.653  1.00  0.00     0.186 HD
HETATM   17  C15 UNL     1      57.909  -2.236  70.442  1.00  0.00     0.143 A
ENDROOT
BRANCH   2  18
HETATM   18  S1  UNL     1      61.345  -0.434  69.742  1.00  0.00    -0.084 SA
BRANCH  18  19
HETATM   19  C6  UNL     1      62.701  -1.483  70.387  1.00  0.00     0.186 C
BRANCH  19  20
HETATM   20  C7  UNL     1      63.839  -1.586  69.465  1.00  0.00     0.245 C
HETATM   21  O3  UNL     1      64.818  -0.827  69.606  1.00  0.00    -0.271 OA
HETATM   22  N2  UNL     1      63.826  -2.534  68.427  1.00  0.00    -0.267 N
ATOM     23  H2  UNL     1      63.022  -3.154  68.327  1.00  0.00     0.190 HD
BRANCH  22  24
HETATM   24  N3  UNL     1      64.893  -2.644  67.530  1.00  0.00    -0.272 N
ATOM     25  H3  UNL     1      65.539  -1.859  67.445  1.00  0.00     0.189 HD
BRANCH  24  26
HETATM   26  C8  UNL     1      65.119  -3.788  66.737  1.00  0.00     0.206 C
HETATM   27  S2  UNL     1      64.107  -4.102  65.447  1.00  0.00    -0.038 SA
BRANCH  26  28
HETATM   28  N4  UNL     1      66.181  -4.650  66.998  1.00  0.00    -0.260 N
HETATM   29  N5  UNL     1      66.336  -5.390  67.939  1.00  0.00    -0.237 N
ATOM     30  H5  UNL     1      67.208  -5.915  67.880  1.00  0.00     0.208 HD
ATOM     31  H4  UNL     1      66.927  -4.657  66.303  1.00  0.00     0.191 HD
BRANCH  29  32
HETATM   32  N6  UNL     1      65.631  -5.689  69.046  1.00  0.00    -0.237 N
HETATM   33  C9  UNL     1      65.665  -4.824  70.194  1.00  0.00     0.335 C
HETATM   34  O4  UNL     1      66.359  -3.798  70.141  1.00  0.00    -0.246 OA
HETATM   35  N7  UNL     1      64.918  -5.150  71.349  1.00  0.00    -0.346 N
HETATM   36  C10 UNL     1      64.888  -4.339  72.542  1.00  0.00     0.151 C
ATOM     37  H7  UNL     1      64.367  -6.009  71.338  1.00  0.00     0.163 HD
ATOM     38  H6  UNL     1      65.066  -6.538  69.071  1.00  0.00     0.193 HD
ENDBRANCH  29  32
ENDBRANCH  26  28
ENDBRANCH  24  26
ENDBRANCH  22  24
ENDBRANCH  19  20
ENDBRANCH  18  19
ENDBRANCH   2  18
BRANCH   1  39
HETATM   39  C4  UNL     1      59.188  -1.853  68.409  1.00  0.00     0.243 C
BRANCH  39  40
HETATM   40  C3  UNL     1      58.268  -0.917  67.715  1.00  0.00     0.277 C
HETATM   41  O2  UNL     1      57.307  -1.367  67.058  1.00  0.00    -0.263 OA
BRANCH  40  42
HETATM   42  O1  UNL     1      58.453   0.444  67.782  1.00  0.00    -0.321 OA
BRANCH  42  43
HETATM   43  C2  UNL     1      59.224   1.228  66.939  1.00  0.00     0.174 C
HETATM   44  C1  UNL     1      59.541   0.516  65.646  1.00  0.00     0.034 C
ENDBRANCH  42  43
ENDBRANCH  40  42
ENDBRANCH  39  40
ENDBRANCH   1  39
BRANCH   5  45
HETATM   45  N9  UNL     1      58.512  -1.190  73.808  1.00  0.00    -0.385 N
ATOM     46  H92 UNL     1      58.853  -0.372  74.312  1.00  0.00     0.157 HD
ATOM     47  H91 UNL     1      58.058  -1.893  74.391  1.00  0.00     0.157 HD
ENDBRANCH   5  45
TORSDOF 12
ENDMDL