MODEL 4
REMARK VINA RESULT: -10.470975341      1.173      1.837
REMARK  11 active torsions:
REMARK  status: ('A' for Active; 'I' for Inactive)
REMARK    1  A    between atoms: C3_3  and  C4_4
REMARK    2  A    between atoms: C4_4  and  N1_5
REMARK    3  A    between atoms: C4_4  and  C9_23
REMARK       I    between atoms: N1_5  and  C5_7
REMARK    4  A    between atoms: C5_7  and  C6_9
REMARK    5  A    between atoms: C6_9  and  O2_10
REMARK    6  A    between atoms: C6_9  and  C7_12
REMARK    7  A    between atoms: C7_12  and  N2_13
REMARK    8  A    between atoms: C8_19  and  N6_20
REMARK    9  A    between atoms: N9_37  and  N10_38
REMARK   10  A    between atoms: N10_38  and  C19_40
REMARK   11  A    between atoms: N12_45  and  O3_46
ROOT
HETATM    1  C4  UNL     1      60.317  -1.404  65.955  1.00  0.00     0.186 C
ENDROOT
BRANCH   1   2
HETATM    2  C3  UNL     1      59.966  -1.622  67.382  1.00  0.00     0.058 C
HETATM    3  C2  UNL     1      58.757  -2.042  67.780  1.00  0.00     0.050 C
HETATM    4  C1  UNL     1      57.744  -2.293  66.757  1.00  0.00     0.072 C
HETATM    5  N9  UNL     1      58.434  -2.251  69.135  1.00  0.00    -0.279 N
HETATM    6  C18 UNL     1      59.125  -1.480  70.168  1.00  0.00     0.169 C
HETATM    7  C17 UNL     1      60.508  -1.052  69.769  1.00  0.00     0.141 C
HETATM    8  N8  UNL     1      60.895  -1.397  68.438  1.00  0.00    -0.388 N
ATOM      9  H8  UNL     1      61.890  -1.487  68.233  1.00  0.00     0.159 HD
BRANCH   5  10
HETATM   10  N10 UNL     1      57.494  -3.162  69.549  1.00  0.00    -0.128 N
ATOM     11  H10 UNL     1      57.642  -4.114  69.217  1.00  0.00     0.206 HD
BRANCH  10  12
HETATM   12  C19 UNL     1      56.367  -2.986  70.354  1.00  0.00     0.714 C
HETATM   13  N11 UNL     1      55.145  -3.121  69.890  1.00  0.00    -0.221 N
HETATM   14  C20 UNL     1      54.172  -2.887  70.928  1.00  0.00     0.161 C
ATOM     15  H11 UNL     1      54.916  -3.358  68.925  1.00  0.00     0.177 HD
HETATM   16  C21 UNL     1      54.952  -2.155  72.004  1.00  0.00     0.195 C
HETATM   17  N12 UNL     1      56.297  -2.660  71.733  1.00  0.00    -0.088 N
BRANCH  17  18
HETATM   18  O3  UNL     1      57.276  -2.789  72.650  1.00  0.00    -0.274 OA
ATOM     19  H3  UNL     1      57.745  -2.089  73.090  1.00  0.00     0.245 HD
ENDBRANCH  17  18
ENDBRANCH  10  12
ENDBRANCH   5  10
ENDBRANCH   1   2
BRANCH   1  20
HETATM   20  N1  UNL     1      61.702  -1.771  65.690  1.00  0.00    -0.343 N
HETATM   21  C5  UNL     1      62.062  -2.904  64.917  1.00  0.00     0.249 C
HETATM   22  O1  UNL     1      61.143  -3.619  64.440  1.00  0.00    -0.271 OA
ATOM     23  H1  UNL     1      62.445  -1.188  66.078  1.00  0.00     0.163 HD
BRANCH  21  24
HETATM   24  C6  UNL     1      63.453  -3.288  64.642  1.00  0.00     0.230 C
BRANCH  24  25
HETATM   25  O2  UNL     1      64.306  -2.193  64.569  1.00  0.00    -0.384 OA
ATOM     26  H2  UNL     1      64.809  -2.175  63.763  1.00  0.00     0.210 HD
ENDBRANCH  24  25
BRANCH  24  27
HETATM   27  C7  UNL     1      63.985  -4.339  65.581  1.00  0.00     0.207 C
BRANCH  27  28
HETATM   28  N2  UNL     1      64.285  -3.869  66.897  1.00  0.00    -0.103 N
HETATM   29  N3  UNL     1      63.590  -2.977  67.581  1.00  0.00     0.011 NA
HETATM   30  N4  UNL     1      64.181  -2.793  68.773  1.00  0.00    -0.211 N
HETATM   31  N5  UNL     1      65.237  -3.573  68.823  1.00  0.00    -0.118 N
ATOM     32  H4  UNL     1      63.865  -2.162  69.509  1.00  0.00     0.206 HD
HETATM   33  C8  UNL     1      65.322  -4.261  67.651  1.00  0.00     0.706 A
ATOM     34  H5  UNL     1      65.884  -3.650  69.607  1.00  0.00     0.207 HD
BRANCH  33  35
HETATM   35  N6  UNL     1      66.264  -5.102  67.423  1.00  0.00    -0.232 N
ATOM     36  H62 UNL     1      66.189  -6.082  67.693  1.00  0.00     0.174 HD
ATOM     37  H61 UNL     1      67.175  -4.988  66.980  1.00  0.00     0.174 HD
ENDBRANCH  33  35
ENDBRANCH  27  28
ENDBRANCH  24  27
ENDBRANCH  21  24
ENDBRANCH   1  20
BRANCH   1  38
HETATM   38  C9  UNL     1      60.021  -0.026  65.508  1.00  0.00     0.039 A
HETATM   39  C10 UNL     1      60.330   0.508  64.275  1.00  0.00     0.041 A
HETATM   40  C11 UNL     1      59.908   1.818  64.202  1.00  0.00    -0.007 A
HETATM   41  C12 UNL     1      59.963   2.787  63.227  1.00  0.00     0.014 A
HETATM   42  C16 UNL     1      59.329   2.079  65.429  1.00  0.00     0.042 A
HETATM   43  C13 UNL     1      59.438   4.039  63.461  1.00  0.00     0.001 A
HETATM   44  C14 UNL     1      58.867   4.287  64.680  1.00  0.00     0.002 A
HETATM   45  C15 UNL     1      58.810   3.329  65.650  1.00  0.00     0.030 A
HETATM   46  N7  UNL     1      59.410   0.977  66.178  1.00  0.00    -0.357 N
ATOM     47  H7  UNL     1      59.056   0.902  67.132  1.00  0.00     0.166 HD
ENDBRANCH   1  38
TORSDOF 11
ENDMDL