MODEL 3
REMARK VINA RESULT: -7.501275822      1.016      1.045
REMARK  2 active torsions:
REMARK  status: ('A' for Active; 'I' for Inactive)
REMARK    1  A    between atoms: N1_1  and  C1_4
REMARK    2  A    between atoms: C3_11  and  C4_12
ROOT
HETATM    1  C1  UNL     1      25.553  36.410  40.352  1.00  0.00     0.141 A
HETATM    2  N2  UNL     1      25.228  37.190  39.324  1.00  0.00    -0.242 N
ATOM      3  H2  UNL     1      24.384  37.761  39.275  1.00  0.00     0.196 HD
HETATM    4  O1  UNL     1      26.130  37.128  38.395  1.00  0.00    -0.216 OA
HETATM    5  C2  UNL     1      27.119  36.292  38.755  1.00  0.00     0.192 A
HETATM    6  N3  UNL     1      28.246  35.852  38.245  1.00  0.00    -0.331 N
ATOM      7  H3  UNL     1      28.548  36.171  37.324  1.00  0.00     0.168 HD
HETATM    8  C3  UNL     1      28.985  35.002  38.919  1.00  0.00     0.058 A
HETATM    9  S1  UNL     1      28.080  34.789  40.350  1.00  0.00    -0.068 SA
HETATM   10  C14 UNL     1      26.767  35.830  39.993  1.00  0.00     0.105 A
ENDROOT
BRANCH   8  11
HETATM   11  C4  UNL     1      30.299  34.369  38.540  1.00  0.00     0.043 C
HETATM   12  C5  UNL     1      31.357  34.986  39.388  1.00  0.00     0.011 C
HETATM   13  C6  UNL     1      32.700  34.315  39.207  1.00  0.00     0.001 C
HETATM   14  C7  UNL     1      33.837  35.332  39.240  1.00  0.00     0.000 C
HETATM   15  C8  UNL     1      34.402  35.526  37.826  1.00  0.00     0.000 C
HETATM   16  C9  UNL     1      33.841  36.777  37.270  1.00  0.00     0.000 C
HETATM   17  C10 UNL     1      33.219  36.678  35.924  1.00  0.00     0.000 C
HETATM   18  C11 UNL     1      32.255  35.554  35.738  1.00  0.00     0.000 C
HETATM   19  C12 UNL     1      30.979  35.745  36.552  1.00  0.00     0.001 C
HETATM   20  C13 UNL     1      30.555  34.413  37.078  1.00  0.00     0.011 C
ENDBRANCH   8  11
BRANCH   1  21
HETATM   21  N1  UNL     1      24.948  36.190  41.446  1.00  0.00    -0.383 N
ATOM     22  H12 UNL     1      24.367  36.874  41.931  1.00  0.00     0.157 HD
ATOM     23  H11 UNL     1      24.912  35.353  42.027  1.00  0.00     0.157 HD
ENDBRANCH   1  21
TORSDOF 2
ENDMDL