MODEL 4
REMARK VINA RESULT: -8.167585044      1.175      1.560
REMARK  5 active torsions:
REMARK  status: ('A' for Active; 'I' for Inactive)
REMARK    1  A    between atoms: N1_1  and  N2_4
REMARK    2  A    between atoms: N2_4  and  N3_5
REMARK    3  A    between atoms: N3_5  and  C1_7
REMARK    4  A    between atoms: C3_9  and  C4_10
REMARK    5  A    between atoms: C15_21  and  O1_22
ROOT
HETATM    1  C1  UNL     1      26.119  36.230  39.692  1.00  0.00     0.178 A
HETATM    2  C2  UNL     1      26.879  36.922  38.784  1.00  0.00     0.075 A
HETATM    3  C3  UNL     1      27.991  36.121  38.488  1.00  0.00     0.029 A
HETATM    4  C15 UNL     1      27.794  34.983  39.279  1.00  0.00     0.196 A
HETATM    5  O2  UNL     1      26.710  35.126  39.948  1.00  0.00    -0.268 OA
ENDROOT
BRANCH   3   6
HETATM    6  C4  UNL     1      29.152  36.509  37.693  1.00  0.00    -0.060 C
HETATM    7  C5  UNL     1      30.246  37.032  38.584  1.00  0.00     0.040 C
HETATM    8  C6  UNL     1      31.407  37.615  37.857  1.00  0.00    -0.010 C
HETATM    9  C7  UNL     1      31.181  39.065  37.473  1.00  0.00     0.009 C
HETATM   10  C11 UNL     1      31.905  36.775  36.731  1.00  0.00     0.009 C
HETATM   11  C8  UNL     1      30.437  39.162  36.166  1.00  0.00    -0.013 C
HETATM   12  C9  UNL     1      31.201  38.509  35.063  1.00  0.00     0.009 C
HETATM   13  C14 UNL     1      29.063  38.635  36.382  1.00  0.00     0.013 C
HETATM   14  C10 UNL     1      31.259  37.016  35.415  1.00  0.00    -0.013 C
HETATM   15  C12 UNL     1      29.861  36.527  35.309  1.00  0.00     0.013 C
HETATM   16  C13 UNL     1      28.954  37.142  36.389  1.00  0.00     0.016 C
ENDBRANCH   3   6
BRANCH   4  17
HETATM   17  O1  UNL     1      28.658  33.959  39.264  1.00  0.00    -0.340 OA
ATOM     18  H1  UNL     1      29.546  34.052  39.589  1.00  0.00     0.220 HD
ENDBRANCH   4  17
BRANCH   1  19
HETATM   19  N3  UNL     1      24.850  36.665  40.277  1.00  0.00    -0.193 N
ATOM     20  H3  UNL     1      23.999  36.772  39.725  1.00  0.00     0.206 HD
BRANCH  19  21
HETATM   21  N2  UNL     1      24.889  36.898  41.518  1.00  0.00    -0.242 NA
BRANCH  21  22
HETATM   22  N1  UNL     1      25.206  37.079  42.693  1.00  0.00    -0.260 N
ATOM     23  H12 UNL     1      25.853  37.824  42.436  1.00  0.00     0.193 HD
ATOM     24  H11 UNL     1      25.315  37.056  43.707  1.00  0.00     0.193 HD
ENDBRANCH  21  22
ENDBRANCH  19  21
ENDBRANCH   1  19
TORSDOF 5
ENDMDL