MODEL 2
REMARK VINA RESULT: -7.272608073      1.672      3.249
REMARK  1 active torsions:
REMARK  status: ('A' for Active; 'I' for Inactive)
REMARK    1  A    between atoms: C5_6  and  C6_7
ROOT
HETATM    1  C6  UNL     1      29.354  35.993  38.020  1.00  0.00     0.032 C
HETATM    2  C7  UNL     1      29.116  36.270  36.530  1.00  0.00     0.072 C
HETATM    3  C8  UNL     1      30.326  36.353  35.733  1.00  0.00    -0.015 C
HETATM    4  N1  UNL     1      30.156  36.869  34.565  1.00  0.00    -0.405 N
ATOM      5  H11 UNL     1      31.007  36.927  34.005  1.00  0.00     0.155 HD
ATOM      6  H12 UNL     1      29.196  37.146  34.362  1.00  0.00     0.155 HD
HETATM    7  C9  UNL     1      31.708  35.955  36.025  1.00  0.00     0.032 C
HETATM    8  C10 UNL     1      31.743  34.535  36.534  1.00  0.00     0.015 C
HETATM    9  C11 UNL     1      31.327  34.441  37.986  1.00  0.00    -0.012 C
HETATM   10  C12 UNL     1      32.166  35.391  38.767  1.00  0.00     0.015 C
HETATM   11  C13 UNL     1      31.812  36.798  38.372  1.00  0.00     0.033 C
HETATM   12  C14 UNL     1      32.301  36.969  36.943  1.00  0.00     0.021 C
HETATM   13  C15 UNL     1      30.352  37.019  38.433  1.00  0.00    -0.002 C
HETATM   14  N2  UNL     1      29.921  38.146  38.858  1.00  0.00    -0.404 N
ATOM     15  H21 UNL     1      30.604  38.848  39.140  1.00  0.00     0.155 HD
ATOM     16  H22 UNL     1      28.913  38.298  38.900  1.00  0.00     0.155 HD
HETATM   17  C16 UNL     1      29.854  34.585  38.114  1.00  0.00     0.025 C
ENDROOT
BRANCH   1  18
HETATM   18  C5  UNL     1      28.034  36.187  38.752  1.00  0.00    -0.030 A
HETATM   19  C2  UNL     1      27.955  35.913  40.083  1.00  0.00    -0.014 A
HETATM   20  C1  UNL     1      28.915  35.444  41.102  1.00  0.00     0.057 C
HETATM   21  S1  UNL     1      26.326  36.259  40.460  1.00  0.00    -0.106 SA
HETATM   22  C3  UNL     1      25.775  36.744  38.919  1.00  0.00     0.051 A
HETATM   23  C4  UNL     1      26.901  36.618  38.150  1.00  0.00     0.016 A
ENDBRANCH   1  18
TORSDOF 1
ENDMDL