MODEL 2
REMARK VINA RESULT: -7.334108421      0.102      1.017
REMARK  3 active torsions:
REMARK  status: ('A' for Active; 'I' for Inactive)
REMARK    1  A    between atoms: C4_4  and  N1_5
REMARK    2  A    between atoms: N1_5  and  C5_7
REMARK    3  A    between atoms: C7_16  and  C8_17
ROOT
HETATM    1  C1  UNL     1      25.218  36.840  39.192  1.00  0.00     0.049 C
HETATM    2  C2  UNL     1      26.717  36.745  38.921  1.00  0.00    -0.045 A
HETATM    3  C3  UNL     1      27.232  37.111  37.728  1.00  0.00     0.045 A
HETATM    4  C4  UNL     1      28.587  36.999  37.568  1.00  0.00     0.076 A
HETATM    5  S3  UNL     1      29.101  36.394  39.070  1.00  0.00    -0.076 SA
HETATM    6  C7  UNL     1      27.596  36.295  39.867  1.00  0.00    -0.002 A
ENDROOT
BRANCH   4   7
HETATM    7  N1  UNL     1      29.391  37.309  36.429  1.00  0.00    -0.330 N
ATOM      8  H1  UNL     1      29.032  37.935  35.708  1.00  0.00     0.168 HD
BRANCH   7   9
HETATM    9  C5  UNL     1      30.593  36.789  36.309  1.00  0.00     0.167 A
HETATM   10  N2  UNL     1      30.950  35.704  35.619  1.00  0.00    -0.278 N
HETATM   11  N3  UNL     1      32.180  35.354  35.624  1.00  0.00    -0.282 N
ATOM     12  H2  UNL     1      30.258  35.165  35.099  1.00  0.00     0.189 HD
HETATM   13  C6  UNL     1      33.058  36.079  36.314  1.00  0.00     0.160 A
ATOM     14  H3  UNL     1      32.485  34.530  35.106  1.00  0.00     0.188 HD
HETATM   15  S1  UNL     1      34.689  35.820  36.466  1.00  0.00    -0.051 SA
HETATM   16  S2  UNL     1      32.072  37.307  36.977  1.00  0.00    -0.022 SA
ENDBRANCH   7   9
ENDBRANCH   4   7
BRANCH   6  17
HETATM   17  C8  UNL     1      27.346  35.820  41.257  1.00  0.00    -0.017 C
HETATM   18  C9  UNL     1      28.670  35.954  42.003  1.00  0.00     0.020 C
HETATM   19  C10 UNL     1      26.987  34.355  41.328  1.00  0.00     0.020 C
HETATM   20  C11 UNL     1      26.356  36.724  41.901  1.00  0.00     0.020 C
ENDBRANCH   6  17
TORSDOF 3
ENDMDL