MODEL 5
REMARK VINA RESULT: -7.459619476      1.978      5.903
REMARK  2 active torsions:
REMARK  status: ('A' for Active; 'I' for Inactive)
REMARK    1  A    between atoms: C4_7  and  N2_8
REMARK    2  A    between atoms: N2_8  and  C5_10
ROOT
HETATM    1  C1  UNL     1      26.263  36.314  41.159  1.00  0.00     0.056 C
HETATM    2  C2  UNL     1      27.563  35.982  40.489  1.00  0.00     0.025 A
HETATM    3  C3  UNL     1      28.544  35.305  41.177  1.00  0.00     0.254 A
HETATM    4  O1  UNL     1      28.291  34.982  42.389  1.00  0.00    -0.268 OA
HETATM    5  N1  UNL     1      29.730  34.976  40.636  1.00  0.00    -0.308 N
ATOM      6  H1  UNL     1      30.427  34.473  41.185  1.00  0.00     0.170 HD
HETATM    7  C4  UNL     1      29.987  35.324  39.350  1.00  0.00     0.123 A
HETATM    8  C11 UNL     1      29.045  36.012  38.584  1.00  0.00     0.074 A
HETATM    9  S1  UNL     1      28.851  36.664  36.999  1.00  0.00    -0.047 SA
HETATM   10  S2  UNL     1      27.084  37.136  37.852  1.00  0.00    -0.050 SA
HETATM   11  C12 UNL     1      27.835  36.330  39.180  1.00  0.00     0.044 A
ENDROOT
BRANCH   7  12
HETATM   12  N2  UNL     1      31.246  34.917  38.837  1.00  0.00    -0.370 N
ATOM     13  H2  UNL     1      31.551  33.969  39.058  1.00  0.00     0.161 HD
BRANCH  12  14
HETATM   14  C5  UNL     1      32.136  35.719  38.030  1.00  0.00     0.083 C
HETATM   15  C6  UNL     1      33.529  35.546  38.611  1.00  0.00     0.025 C
HETATM   16  C7  UNL     1      34.576  35.367  37.551  1.00  0.00     0.002 C
HETATM   17  C8  UNL     1      34.283  36.371  36.465  1.00  0.00     0.000 C
HETATM   18  C9  UNL     1      33.087  35.804  35.703  1.00  0.00     0.002 C
HETATM   19  C10 UNL     1      32.075  35.204  36.622  1.00  0.00     0.025 C
ENDBRANCH  12  14
ENDBRANCH   7  12
TORSDOF 2
ENDMDL