MODEL 2
REMARK VINA RESULT: -7.610538714      1.939      3.894
REMARK  2 active torsions:
REMARK  status: ('A' for Active; 'I' for Inactive)
REMARK    1  A    between atoms: C6_7  and  O1_8
REMARK    2  A    between atoms: O1_8  and  O2_9
ROOT
HETATM    1  C1  UNL     1      34.525  35.523  39.194  1.00  0.00     0.010 C
HETATM    2  C2  UNL     1      33.861  35.113  37.905  1.00  0.00    -0.013 C
HETATM    3  C3  UNL     1      33.580  36.372  37.120  1.00  0.00     0.029 C
HETATM    4  C4  UNL     1      32.504  36.058  36.128  1.00  0.00     0.159 C
HETATM    5  C5  UNL     1      32.464  37.102  35.092  1.00  0.00     0.069 C
HETATM    6  N1  UNL     1      32.442  37.941  34.280  1.00  0.00    -0.197 NA
HETATM    7  C6  UNL     1      31.132  36.049  36.832  1.00  0.00     0.221 C
HETATM    8  O3  UNL     1      30.789  37.332  36.948  1.00  0.00    -0.341 OA
HETATM    9  C7  UNL     1      29.659  37.793  37.443  1.00  0.00     0.058 C
HETATM   10  C8  UNL     1      29.819  38.279  38.892  1.00  0.00     0.045 C
HETATM   11  C9  UNL     1      29.429  39.134  36.693  1.00  0.00     0.045 C
HETATM   12  C10 UNL     1      28.400  37.054  37.352  1.00  0.00     0.041 C
HETATM   13  C11 UNL     1      28.053  36.134  38.500  1.00  0.00     0.030 C
HETATM   14  C12 UNL     1      28.883  34.929  38.591  1.00  0.00    -0.030 C
HETATM   15  C13 UNL     1      30.156  34.585  38.464  1.00  0.00    -0.020 C
HETATM   16  C14 UNL     1      31.372  35.339  38.148  1.00  0.00     0.079 C
HETATM   17  C15 UNL     1      32.546  34.398  38.132  1.00  0.00    -0.002 C
HETATM   18  C16 UNL     1      32.553  33.713  39.508  1.00  0.00     0.011 C
ENDROOT
BRANCH   7  19
HETATM   19  O1  UNL     1      30.312  35.295  35.977  1.00  0.00    -0.201 OA
BRANCH  19  20
HETATM   20  O2  UNL     1      29.891  35.934  34.941  1.00  0.00    -0.247 OA
ATOM     21  H2  UNL     1      30.101  35.521  34.112  1.00  0.00     0.253 HD
ENDBRANCH  19  20
ENDBRANCH   7  19
TORSDOF 2
ENDMDL