MODEL 3
REMARK VINA RESULT: -7.455959580      1.135      3.070
REMARK  4 active torsions:
REMARK  status: ('A' for Active; 'I' for Inactive)
REMARK    1  A    between atoms: C2_2  and  C5_5
REMARK    2  A    between atoms: C5_5  and  N2_8
REMARK    3  A    between atoms: C7_9  and  O1_10
REMARK    4  A    between atoms: C10_14  and  O2_15
ROOT
HETATM    1  C5  UNL     1      27.470  35.475  39.539  1.00  0.00     0.208 C
HETATM    2  C6  UNL     1      26.606  36.512  38.924  1.00  0.00     0.086 C
HETATM    3  N1  UNL     1      25.934  37.328  38.453  1.00  0.00    -0.195 NA
ENDROOT
BRANCH   1   4
HETATM    4  C2  UNL     1      27.413  35.692  41.016  1.00  0.00    -0.017 C
HETATM    5  C1  UNL     1      28.728  36.164  41.591  1.00  0.00     0.018 C
HETATM    6  C3  UNL     1      27.138  34.324  41.656  1.00  0.00     0.018 C
HETATM    7  C4  UNL     1      26.323  36.608  41.466  1.00  0.00     0.018 C
ENDBRANCH   1   4
BRANCH   1   8
HETATM    8  N2  UNL     1      28.788  35.482  38.990  1.00  0.00    -0.289 N
HETATM    9  C7  UNL     1      29.537  34.376  38.766  1.00  0.00     0.152 A
HETATM   10  C8  UNL     1      30.750  34.728  38.233  1.00  0.00     0.008 A
HETATM   11  C9  UNL     1      30.709  36.127  38.140  1.00  0.00     0.008 A
HETATM   12  C14 UNL     1      32.005  34.106  37.761  1.00  0.00     0.024 C
HETATM   13  C10 UNL     1      29.501  36.557  38.608  1.00  0.00     0.152 A
HETATM   14  C11 UNL     1      31.963  36.710  37.570  1.00  0.00     0.024 C
HETATM   15  C12 UNL     1      33.153  36.214  38.369  1.00  0.00     0.010 C
HETATM   16  C16 UNL     1      32.102  36.060  36.187  1.00  0.00     0.010 C
HETATM   17  C13 UNL     1      33.119  34.735  38.608  1.00  0.00     0.010 C
HETATM   18  C15 UNL     1      32.274  34.583  36.339  1.00  0.00     0.010 C
BRANCH   9  19
HETATM   19  O1  UNL     1      29.196  33.034  39.014  1.00  0.00    -0.345 OA
ATOM     20  H1  UNL     1      29.476  32.262  38.537  1.00  0.00     0.219 HD
ENDBRANCH   9  19
BRANCH  13  21
HETATM   21  O2  UNL     1      29.138  37.903  38.652  1.00  0.00    -0.345 OA
ATOM     22  H2  UNL     1      28.273  38.281  38.756  1.00  0.00     0.219 HD
ENDBRANCH  13  21
ENDBRANCH   1   8
TORSDOF 4
ENDMDL