MODEL 5
REMARK VINA RESULT: -6.230378925      1.873      6.382
REMARK  1 active torsions:
REMARK  status: ('A' for Active; 'I' for Inactive)
REMARK    1  A    between atoms: C4_8  and  C5_9
ROOT
HETATM    1  C5  UNL     1      29.249  36.184  39.019  1.00  0.00     0.135 A
HETATM    2  N2  UNL     1      29.987  36.982  38.191  1.00  0.00    -0.334 N
ATOM      3  H2  UNL     1      29.651  37.788  37.664  1.00  0.00     0.168 HD
HETATM    4  C6  UNL     1      31.227  36.504  38.205  1.00  0.00     0.094 A
HETATM    5  C7  UNL     1      31.301  35.408  39.032  1.00  0.00     0.044 A
HETATM    6  N3  UNL     1      30.034  35.257  39.511  1.00  0.00    -0.342 N
ATOM      7  H3  UNL     1      29.739  34.528  40.160  1.00  0.00     0.167 HD
HETATM    8  C8  UNL     1      32.601  34.740  39.176  1.00  0.00     0.061 C
HETATM    9  C9  UNL     1      33.184  34.269  37.875  1.00  0.00     0.021 C
HETATM   10  C10 UNL     1      33.585  35.393  36.959  1.00  0.00     0.050 C
HETATM   11  C11 UNL     1      35.086  35.627  37.002  1.00  0.00     0.021 C
HETATM   12  S3  UNL     1      32.786  36.957  37.409  1.00  0.00    -0.106 SA
ENDROOT
BRANCH   1  13
HETATM   13  C4  UNL     1      27.784  36.442  39.240  1.00  0.00     0.091 A
HETATM   14  C2  UNL     1      27.043  37.141  38.328  1.00  0.00     0.012 A
HETATM   15  C1  UNL     1      27.387  37.783  37.010  1.00  0.00     0.059 C
HETATM   16  S1  UNL     1      25.468  37.141  39.065  1.00  0.00    -0.063 SA
HETATM   17  C3  UNL     1      25.865  36.268  40.453  1.00  0.00     0.143 A
HETATM   18  S2  UNL     1      24.881  35.826  41.709  1.00  0.00    -0.052 SA
HETATM   19  N1  UNL     1      27.154  36.011  40.310  1.00  0.00    -0.338 N
ATOM     20  H1  UNL     1      27.655  35.483  41.025  1.00  0.00     0.167 HD
ENDBRANCH   1  13
TORSDOF 1
ENDMDL