MODEL 4
REMARK VINA RESULT: -6.864266414      1.345      1.647
REMARK  3 active torsions:
REMARK  status: ('A' for Active; 'I' for Inactive)
REMARK    1  A    between atoms: O1_1  and  N1_3
REMARK    2  A    between atoms: N1_3  and  C1_5
REMARK    3  A    between atoms: C2_6  and  O2_7
ROOT
HETATM    1  C1  UNL     1      28.711  35.955  39.708  1.00  0.00     0.113 A
HETATM    2  C2  UNL     1      29.308  35.434  40.832  1.00  0.00     0.170 A
HETATM    3  N2  UNL     1      30.118  34.469  40.428  1.00  0.00    -0.338 N
ATOM      4  H2  UNL     1      30.693  33.907  41.057  1.00  0.00     0.168 HD
HETATM    5  C3  UNL     1      30.096  34.312  39.070  1.00  0.00     0.020 A
HETATM    6  C4  UNL     1      29.215  35.241  38.620  1.00  0.00    -0.003 A
HETATM    7  C5  UNL     1      28.830  35.480  37.198  1.00  0.00     0.043 C
HETATM    8  C6  UNL     1      28.974  36.940  36.824  1.00  0.00     0.005 C
HETATM    9  C7  UNL     1      29.877  37.060  35.653  1.00  0.00     0.000 C
HETATM   10  C8  UNL     1      30.871  38.190  35.744  1.00  0.00     0.000 C
HETATM   11  C9  UNL     1      31.888  37.910  36.827  1.00  0.00     0.000 C
HETATM   12  C10 UNL     1      33.250  37.606  36.313  1.00  0.00     0.000 C
HETATM   13  C11 UNL     1      33.568  36.146  36.152  1.00  0.00     0.007 C
HETATM   14  C12 UNL     1      33.971  35.459  37.404  1.00  0.00     0.078 C
HETATM   15  C13 UNL     1      32.924  34.774  38.166  1.00  0.00     0.127 C
HETATM   16  O3  UNL     1      32.851  35.019  39.357  1.00  0.00    -0.298 OA
HETATM   17  C14 UNL     1      32.013  33.845  37.520  1.00  0.00     0.084 C
HETATM   18  C15 UNL     1      30.857  33.342  38.278  1.00  0.00     0.065 C
ENDROOT
BRANCH   1  19
HETATM   19  N1  UNL     1      27.753  37.028  39.687  1.00  0.00    -0.265 N
ATOM     20  H1  UNL     1      28.058  38.000  39.742  1.00  0.00     0.194 HD
BRANCH  19  21
HETATM   21  O1  UNL     1      26.540  36.743  39.601  1.00  0.00    -0.289 OA
ATOM     22  H1  UNL     1      26.299  35.870  39.311  1.00  0.00     0.244 HD
ENDBRANCH  19  21
ENDBRANCH   1  19
BRANCH   2  23
HETATM   23  O2  UNL     1      29.049  35.899  42.126  1.00  0.00    -0.344 OA
ATOM     24  H2  UNL     1      28.178  36.118  42.438  1.00  0.00     0.219 HD
ENDBRANCH   2  23
TORSDOF 3
ENDMDL