MODEL 2
REMARK VINA RESULT: -6.995812895      2.188      3.516
REMARK  1 active torsions:
REMARK  status: ('A' for Active; 'I' for Inactive)
REMARK    1  A    between atoms: C5_6  and  C6_7
ROOT
HETATM    1  C1  UNL     1      33.205  35.088  37.303  1.00  0.00     0.052 C
HETATM    2  C2  UNL     1      31.788  35.569  37.464  1.00  0.00    -0.015 A
HETATM    3  C3  UNL     1      30.960  34.994  38.433  1.00  0.00     0.075 A
HETATM    4  C4  UNL     1      31.508  33.919  39.191  1.00  0.00     0.102 C
HETATM    5  N1  UNL     1      31.959  33.027  39.781  1.00  0.00    -0.191 NA
HETATM    6  C5  UNL     1      29.644  35.418  38.618  1.00  0.00     0.041 A
HETATM    7  N3  UNL     1      29.235  36.401  37.809  1.00  0.00    -0.347 N
ATOM      8  H3  UNL     1      28.278  36.741  37.910  1.00  0.00     0.166 HD
HETATM    9  C12 UNL     1      30.030  36.975  36.853  1.00  0.00     0.122 A
HETATM   10  S1  UNL     1      29.441  38.170  35.913  1.00  0.00    -0.059 SA
HETATM   11  C13 UNL     1      31.320  36.574  36.660  1.00  0.00     0.090 A
HETATM   12  C14 UNL     1      32.201  37.146  35.671  1.00  0.00     0.103 C
HETATM   13  N4  UNL     1      32.906  37.609  34.887  1.00  0.00    -0.191 NA
ENDROOT
BRANCH   6  14
HETATM   14  C6  UNL     1      28.792  34.849  39.667  1.00  0.00     0.082 C
HETATM   15  C7  UNL     1      27.349  34.589  39.235  1.00  0.00     0.016 C
HETATM   16  C8  UNL     1      26.402  34.960  40.386  1.00  0.00     0.001 C
HETATM   17  C9  UNL     1      26.409  36.485  40.508  1.00  0.00     0.006 C
HETATM   18  C10 UNL     1      27.840  36.947  40.798  1.00  0.00     0.053 C
HETATM   19  C11 UNL     1      28.718  35.732  40.897  1.00  0.00    -0.010 C
HETATM   20  N2  UNL     1      29.309  35.502  41.976  1.00  0.00    -0.405 N
ATOM     21  H22 UNL     1      29.905  34.677  42.044  1.00  0.00     0.155 HD
ATOM     22  H21 UNL     1      29.258  36.096  42.804  1.00  0.00     0.155 HD
ENDBRANCH   6  14
TORSDOF 1
ENDMDL