MODEL 2
REMARK VINA RESULT: -4.860538342      1.114      1.878
REMARK  4 active torsions:
REMARK  status: ('A' for Active; 'I' for Inactive)
REMARK    1  A    between atoms: N1_1  and  C1_5
REMARK    2  A    between atoms: C1_5  and  C2_6
REMARK    3  A    between atoms: C2_6  and  C3_7
REMARK    4  A    between atoms: C3_7  and  N2_8
ROOT
HETATM    1  C3  UNL     1       4.852  -3.846 -17.471  1.00  0.00     0.123 C
ENDROOT
BRANCH   1   2
HETATM    2  C2  UNL     1       3.898  -4.967 -17.906  1.00  0.00     0.047 C
BRANCH   2   3
HETATM    3  C1  UNL     1       3.656  -5.913 -16.736  1.00  0.00     0.231 C
BRANCH   3   4
HETATM    4  N1  UNL     1       2.360  -5.652 -16.197  1.00  0.00    -0.079 N
ATOM      5  H13 UNL     1       2.384  -5.473 -15.193  1.00  0.00     0.274 HD
ATOM      6  H12 UNL     1       1.989  -4.749 -16.493  1.00  0.00     0.274 HD
ATOM      7  H11 UNL     1       1.742  -6.426 -16.440  1.00  0.00     0.274 HD
ENDBRANCH   3   4
ENDBRANCH   2   3
ENDBRANCH   1   2
BRANCH   1   8
HETATM    8  N2  UNL     1       4.143  -2.627 -17.618  1.00  0.00    -0.393 N
HETATM    9  C4  UNL     1       3.303  -2.450 -18.718  1.00  0.00     0.058 C
HETATM   10  C5  UNL     1       1.945  -1.893 -18.482  1.00  0.00     0.044 C
HETATM   11  C6  UNL     1       1.709  -1.287 -17.148  1.00  0.00     0.007 C
HETATM   12  C7  UNL     1       2.477  -2.007 -16.058  1.00  0.00     0.020 C
HETATM   13  C8  UNL     1       3.942  -1.827 -16.476  1.00  0.00     0.122 C
ENDBRANCH   1   8
TORSDOF 4
ENDMDL