MODEL 2
REMARK VINA RESULT: -4.778780247      5.714      7.667
REMARK  4 active torsions:
REMARK  status: ('A' for Active; 'I' for Inactive)
REMARK    1  A    between atoms: N1_1  and  C1_5
REMARK    2  A    between atoms: C1_5  and  C2_6
REMARK    3  A    between atoms: C2_6  and  C3_7
REMARK    4  A    between atoms: C3_7  and  C4_8
ROOT
HETATM    1  C3  UNL     1       0.684  -0.264 -17.785  1.00  0.00     0.008 C
ENDROOT
BRANCH   1   2
HETATM    2  C2  UNL     1       0.993  -1.099 -18.994  1.00  0.00     0.028 C
BRANCH   2   3
HETATM    3  C1  UNL     1       2.279  -1.871 -18.849  1.00  0.00     0.229 C
BRANCH   3   4
HETATM    4  N1  UNL     1       2.934  -2.117 -20.099  1.00  0.00    -0.079 N
ATOM      5  H13 UNL     1       2.257  -2.166 -20.861  1.00  0.00     0.274 HD
ATOM      6  H12 UNL     1       3.464  -1.299 -20.399  1.00  0.00     0.274 HD
ATOM      7  H11 UNL     1       3.525  -2.948 -20.087  1.00  0.00     0.274 HD
ENDBRANCH   3   4
ENDBRANCH   2   3
ENDBRANCH   1   2
BRANCH   1   8
HETATM    8  C4  UNL     1      -0.676   0.351 -17.968  1.00  0.00     0.022 C
HETATM    9  C5  UNL     1      -1.595   0.156 -16.809  1.00  0.00     0.037 C
HETATM   10  C6  UNL     1      -2.691  -0.744 -17.301  1.00  0.00     0.273 C
HETATM   11  N2  UNL     1      -2.622  -0.778 -18.733  1.00  0.00     0.097 N
HETATM   12  C7  UNL     1      -2.681   0.417 -19.515  1.00  0.00     0.309 A
HETATM   13  C8  UNL     1      -1.380  -0.238 -19.156  1.00  0.00     0.255 A
ENDBRANCH   1   8
TORSDOF 4
ENDMDL