MODEL 5
REMARK VINA RESULT: -5.565000842      2.162      2.808
REMARK  3 active torsions:
REMARK  status: ('A' for Active; 'I' for Inactive)
REMARK    1  A    between atoms: C3_3  and  C4_4
REMARK    2  A    between atoms: C4_4  and  C5_5
REMARK    3  A    between atoms: C5_5  and  C6_6
ROOT
HETATM    1  C1  UNL     1      -2.658   0.218 -19.857  1.00  0.00     0.012 C
HETATM    2  C2  UNL     1      -1.464   0.054 -19.705  1.00  0.00    -0.117 C
HETATM    3  C3  UNL     1      -0.022  -0.151 -19.547  1.00  0.00     0.093 C
ENDROOT
BRANCH   3   4
HETATM    4  C4  UNL     1       0.356  -0.229 -18.060  1.00  0.00     0.012 C
BRANCH   4   5
HETATM    5  C5  UNL     1       1.427  -1.255 -17.940  1.00  0.00     0.007 C
BRANCH   5   6
HETATM    6  C6  UNL     1       2.209  -1.211 -16.674  1.00  0.00     0.013 C
HETATM    7  C7  UNL     1       3.443  -2.048 -16.660  1.00  0.00     0.034 C
HETATM    8  C8  UNL     1       3.776  -1.982 -15.182  1.00  0.00     0.232 C
HETATM    9  N1  UNL     1       2.534  -1.860 -14.484  1.00  0.00    -0.075 N
HETATM   10  C9  UNL     1       1.475  -1.739 -15.473  1.00  0.00     0.237 C
ATOM     11  H12 UNL     1       2.374  -2.623 -13.827  1.00  0.00     0.277 HD
ATOM     12  H11 UNL     1       2.534  -1.095 -13.809  1.00  0.00     0.277 HD
ENDBRANCH   5   6
ENDBRANCH   4   5
ENDBRANCH   3   4
TORSDOF 3
ENDMDL