MODEL 3
REMARK VINA RESULT: -5.406275420      1.404      2.074
REMARK  4 active torsions:
REMARK  status: ('A' for Active; 'I' for Inactive)
REMARK    1  A    between atoms: C3_3  and  O1_4
REMARK    2  A    between atoms: O1_4  and  C4_5
REMARK    3  A    between atoms: C4_5  and  C5_6
REMARK    4  A    between atoms: C5_6  and  C6_7
ROOT
HETATM    1  C1  UNL     1       0.667  -0.758 -19.505  1.00  0.00     0.014 C
HETATM    2  C2  UNL     1       1.707  -1.251 -19.890  1.00  0.00    -0.091 C
HETATM    3  C3  UNL     1       2.969  -1.830 -20.336  1.00  0.00     0.260 C
ENDROOT
BRANCH   3   4
HETATM    4  O1  UNL     1       3.350  -2.932 -19.612  1.00  0.00    -0.379 OA
BRANCH   4   5
HETATM    5  C4  UNL     1       3.645  -2.669 -18.296  1.00  0.00     0.169 C
BRANCH   5   6
HETATM    6  C5  UNL     1       4.524  -3.794 -17.768  1.00  0.00     0.035 C
BRANCH   6   7
HETATM    7  C6  UNL     1       3.891  -4.525 -16.620  1.00  0.00     0.051 A
HETATM    8  C7  UNL     1       2.426  -4.805 -16.728  1.00  0.00     0.280 A
HETATM    9  N1  UNL     1       2.634  -6.237 -16.804  1.00  0.00     0.097 N
HETATM   10  C8  UNL     1       3.513  -6.706 -17.852  1.00  0.00     0.309 A
HETATM   11  C9  UNL     1       4.076  -6.020 -16.693  1.00  0.00     0.257 A
ENDBRANCH   6   7
ENDBRANCH   5   6
ENDBRANCH   4   5
ENDBRANCH   3   4
TORSDOF 4
ENDMDL