MODEL 1
REMARK VINA RESULT: -5.106871751      0.000      0.000
REMARK  2 active torsions:
REMARK  status: ('A' for Active; 'I' for Inactive)
REMARK    1  A    between atoms: N1_2  and  C4_5
REMARK    2  A    between atoms: C4_5  and  C5_6
ROOT
HETATM    1  C5  UNL     1       2.932  -2.899 -17.632  1.00  0.00     0.211 C
HETATM    2  C6  UNL     1       2.990  -1.769 -16.665  1.00  0.00     0.034 C
HETATM    3  C7  UNL     1       1.548  -1.477 -16.225  1.00  0.00     0.004 C
HETATM    4  C8  UNL     1       0.939  -0.692 -17.369  1.00  0.00     0.027 C
HETATM    5  C9  UNL     1       1.484  -1.272 -18.652  1.00  0.00     0.233 C
HETATM    6  N2  UNL     1       1.819  -2.672 -18.531  1.00  0.00    -0.069 N
ATOM      7  H21 UNL     1       1.005  -3.222 -18.254  1.00  0.00     0.277 HD
ATOM      8  H22 UNL     1       1.994  -3.088 -19.445  1.00  0.00     0.277 HD
ENDROOT
BRANCH   1   9
HETATM    9  C4  UNL     1       2.817  -4.258 -17.044  1.00  0.00     0.268 C
BRANCH   9  10
HETATM   10  N1  UNL     1       3.870  -5.172 -17.296  1.00  0.00    -0.077 N
HETATM   11  C1  UNL     1       3.493  -6.298 -18.123  1.00  0.00     0.271 C
HETATM   12  C2  UNL     1       4.241  -5.746 -15.988  1.00  0.00     0.271 C
HETATM   13  C3  UNL     1       5.078  -4.598 -17.829  1.00  0.00     0.271 C
ENDBRANCH   9  10
ENDBRANCH   1   9
TORSDOF 2
ENDMDL