MODEL 4
REMARK VINA RESULT: -4.762031929      2.573      3.066
REMARK  3 active torsions:
REMARK  status: ('A' for Active; 'I' for Inactive)
REMARK    1  A    between atoms: N1_1  and  C1_5
REMARK    2  A    between atoms: C1_5  and  C2_6
REMARK    3  A    between atoms: C2_6  and  C3_7
ROOT
HETATM    1  C3  UNL     1      -0.289  -0.960 -18.693  1.00  0.00     0.225 C
HETATM    2  C4  UNL     1      -1.494  -1.662 -19.274  1.00  0.00     0.042 C
HETATM    3  C5  UNL     1      -2.613  -0.804 -18.695  1.00  0.00     0.018 C
HETATM    4  C6  UNL     1      -2.663  -0.824 -17.203  1.00  0.00     0.036 C
HETATM    5  C7  UNL     1      -1.360  -0.175 -16.809  1.00  0.00     0.273 C
HETATM    6  N2  UNL     1      -0.750   0.276 -18.078  1.00  0.00     0.093 N
HETATM    7  C8  UNL     1      -1.928   0.566 -18.888  1.00  0.00     0.277 C
ENDROOT
BRANCH   1   8
HETATM    8  C2  UNL     1       0.849  -0.786 -19.630  1.00  0.00     0.063 C
BRANCH   8   9
HETATM    9  C1  UNL     1       2.015  -1.653 -19.260  1.00  0.00     0.231 C
BRANCH   9  10
HETATM   10  N1  UNL     1       2.914  -1.972 -20.332  1.00  0.00    -0.079 N
ATOM     11  H13 UNL     1       2.466  -1.787 -21.230  1.00  0.00     0.274 HD
ATOM     12  H12 UNL     1       3.673  -1.291 -20.365  1.00  0.00     0.274 HD
ATOM     13  H11 UNL     1       3.294  -2.918 -20.321  1.00  0.00     0.274 HD
ENDBRANCH   9  10
ENDBRANCH   8   9
ENDBRANCH   1   8
TORSDOF 3
ENDMDL