MODEL 2
REMARK VINA RESULT: -4.721265876      1.115      1.875
REMARK  4 active torsions:
REMARK  status: ('A' for Active; 'I' for Inactive)
REMARK    1  A    between atoms: N1_1  and  C1_5
REMARK    2  A    between atoms: C1_5  and  C2_6
REMARK    3  A    between atoms: C2_6  and  C3_7
REMARK    4  A    between atoms: C3_7  and  N2_8
ROOT
HETATM    1  C3  UNL     1       2.779  -3.404 -16.725  1.00  0.00     0.123 C
ENDROOT
BRANCH   1   2
HETATM    2  C2  UNL     1       3.980  -4.277 -17.116  1.00  0.00     0.047 C
BRANCH   2   3
HETATM    3  C1  UNL     1       3.891  -5.618 -16.398  1.00  0.00     0.231 C
BRANCH   3   4
HETATM    4  N1  UNL     1       2.515  -5.933 -16.186  1.00  0.00    -0.079 N
ATOM      5  H13 UNL     1       2.095  -5.369 -15.448  1.00  0.00     0.274 HD
ATOM      6  H12 UNL     1       1.921  -5.623 -16.955  1.00  0.00     0.274 HD
ATOM      7  H11 UNL     1       2.432  -6.934 -16.007  1.00  0.00     0.274 HD
ENDBRANCH   3   4
ENDBRANCH   2   3
ENDBRANCH   1   2
BRANCH   1   8
HETATM    8  N2  UNL     1       2.783  -2.290 -17.602  1.00  0.00    -0.393 N
HETATM    9  C4  UNL     1       3.509  -2.355 -18.792  1.00  0.00     0.058 C
HETATM   10  C5  UNL     1       2.850  -1.894 -20.042  1.00  0.00     0.044 C
HETATM   11  C6  UNL     1       1.596  -1.119 -19.875  1.00  0.00     0.007 C
HETATM   12  C7  UNL     1       0.795  -1.597 -18.679  1.00  0.00     0.020 C
HETATM   13  C8  UNL     1       1.740  -1.350 -17.496  1.00  0.00     0.122 C
ENDBRANCH   1   8
TORSDOF 4
ENDMDL