MODEL 1
REMARK VINA RESULT: -5.632753919      0.000      0.000
REMARK  6 active torsions:
REMARK  status: ('A' for Active; 'I' for Inactive)
REMARK    1  A    between atoms: C2_2  and  C3_3
REMARK    2  A    between atoms: C3_3  and  C4_4
REMARK    3  A    between atoms: C4_4  and  C5_5
REMARK    4  A    between atoms: C5_5  and  C6_6
REMARK    5  A    between atoms: C7_7  and  C8_8
REMARK    6  A    between atoms: C9_9  and  N1_10
ROOT
HETATM    1  C6  UNL     1       0.565  -0.569 -18.765  1.00  0.00    -0.092 C
HETATM    2  C7  UNL     1       1.044  -0.885 -17.699  1.00  0.00    -0.013 C
ENDROOT
BRANCH   2   3
HETATM    3  C8  UNL     1       1.585  -1.267 -16.448  1.00  0.00     0.009 C
HETATM    4  C9  UNL     1       2.033  -1.603 -15.367  1.00  0.00     0.040 C
BRANCH   4   5
HETATM    5  N1  UNL     1       2.528  -1.998 -14.119  1.00  0.00    -0.264 N
HETATM    6  N2  UNL     1       3.754  -2.313 -14.048  1.00  0.00    -0.338 N
ATOM      7  H22 UNL     1       4.343  -2.276 -14.879  1.00  0.00     0.177 HD
ATOM      8  H21 UNL     1       4.114  -2.601 -13.138  1.00  0.00     0.177 HD
ATOM      9  H1  UNL     1       1.925  -2.030 -13.298  1.00  0.00     0.197 HD
ENDBRANCH   4   5
ENDBRANCH   2   3
BRANCH   1  10
HETATM   10  C5  UNL     1      -0.039  -0.190 -20.043  1.00  0.00     0.095 C
BRANCH  10  11
HETATM   11  C4  UNL     1      -1.442  -0.734 -20.186  1.00  0.00     0.012 C
BRANCH  11  12
HETATM   12  C3  UNL     1      -2.377   0.382 -19.723  1.00  0.00     0.000 C
BRANCH  12  13
HETATM   13  C2  UNL     1      -3.105  -0.010 -18.457  1.00  0.00    -0.005 C
HETATM   14  C1  UNL     1      -2.521   0.823 -17.335  1.00  0.00     0.005 C
ENDBRANCH  12  13
ENDBRANCH  11  12
ENDBRANCH  10  11
ENDBRANCH   1  10
TORSDOF 6
ENDMDL