MODEL 4
REMARK VINA RESULT: -5.205247699      1.555      2.469
REMARK  3 active torsions:
REMARK  status: ('A' for Active; 'I' for Inactive)
REMARK    1  A    between atoms: C3_3  and  C4_4
REMARK    2  A    between atoms: C4_4  and  C5_5
REMARK    3  A    between atoms: C5_5  and  N1_6
ROOT
HETATM    1  C1  UNL     1       2.749  -1.577 -20.656  1.00  0.00     0.096 C
HETATM    2  C2  UNL     1       2.193  -1.599 -19.569  1.00  0.00    -0.187 C
HETATM    3  C3  UNL     1       1.501  -1.646 -18.275  1.00  0.00     0.084 C
ENDROOT
BRANCH   3   4
HETATM    4  C4  UNL     1       2.513  -1.659 -17.183  1.00  0.00     0.055 C
BRANCH   4   5
HETATM    5  C5  UNL     1       2.417  -2.850 -16.248  1.00  0.00     0.059 C
BRANCH   5   6
HETATM    6  N1  UNL     1       3.471  -3.716 -16.565  1.00  0.00    -0.393 N
HETATM    7  C6  UNL     1       4.519  -3.294 -17.387  1.00  0.00     0.122 C
HETATM    8  C7  UNL     1       5.185  -4.598 -17.840  1.00  0.00     0.021 C
HETATM    9  C8  UNL     1       3.979  -5.515 -17.908  1.00  0.00     0.021 C
HETATM   10  C9  UNL     1       3.279  -5.098 -16.605  1.00  0.00     0.122 C
ENDBRANCH   5   6
ENDBRANCH   4   5
ENDBRANCH   3   4
TORSDOF 3
ENDMDL