MODEL 4
REMARK VINA RESULT: -5.472473255      1.125      1.993
REMARK  5 active torsions:
REMARK  status: ('A' for Active; 'I' for Inactive)
REMARK    1  A    between atoms: C2_2  and  C3_3
REMARK    2  A    between atoms: C3_3  and  C4_4
REMARK    3  A    between atoms: C6_6  and  C7_7
REMARK    4  A    between atoms: C7_7  and  N1_8
REMARK    5  A    between atoms: N2_10  and  N3_12
ROOT
HETATM    1  C7  UNL     1      -2.210   0.288 -18.262  1.00  0.00     0.145 C
ENDROOT
BRANCH   1   2
HETATM    2  C6  UNL     1      -1.015   0.065 -19.167  1.00  0.00     0.006 A
HETATM    3  C5  UNL     1       0.308   0.412 -18.529  1.00  0.00     0.011 A
HETATM    4  C4  UNL     1       0.749  -1.010 -18.610  1.00  0.00    -0.014 A
HETATM    5  C8  UNL     1      -0.608  -1.390 -19.145  1.00  0.00     0.011 A
BRANCH   4   6
HETATM    6  C3  UNL     1       1.812  -1.331 -19.625  1.00  0.00     0.004 C
BRANCH   6   7
HETATM    7  C2  UNL     1       2.870  -2.165 -18.893  1.00  0.00    -0.004 C
HETATM    8  C1  UNL     1       2.710  -2.070 -17.398  1.00  0.00     0.005 C
ENDBRANCH   6   7
ENDBRANCH   4   6
ENDBRANCH   1   2
BRANCH   1   9
HETATM    9  N1  UNL     1      -3.360   0.609 -19.077  1.00  0.00    -0.322 N
HETATM   10  N2  UNL     1      -3.302   0.663 -20.331  1.00  0.00    -0.254 N
ATOM     11  H2  UNL     1      -2.420   0.477 -20.809  1.00  0.00     0.207 HD
ATOM     12  H1  UNL     1      -4.251   0.798 -18.617  1.00  0.00     0.181 HD
BRANCH  10  13
HETATM   13  N3  UNL     1      -4.436   0.975 -21.068  1.00  0.00    -0.331 N
ATOM     14  H32 UNL     1      -4.831   0.269 -21.690  1.00  0.00     0.178 HD
ATOM     15  H31 UNL     1      -4.862   1.897 -20.984  1.00  0.00     0.178 HD
ENDBRANCH  10  13
ENDBRANCH   1   9
TORSDOF 5
ENDMDL