MODEL 5
REMARK VINA RESULT: -8.360686835      1.812      3.118
REMARK  14 active torsions:
REMARK  status: ('A' for Active; 'I' for Inactive)
REMARK    1  A    between atoms: C2_2  and  C3_3
REMARK    2  A    between atoms: C3_3  and  C4_4
REMARK    3  A    between atoms: C4_4  and  C5_5
REMARK    4  A    between atoms: C9_11  and  C10_12
REMARK    5  A    between atoms: C11_13  and  O1_14
REMARK    6  A    between atoms: C13_17  and  O2_18
REMARK    7  A    between atoms: C14_20  and  C15_21
REMARK    8  A    between atoms: C15_21  and  N2_23
REMARK    9  A    between atoms: N2_23  and  O3_24
REMARK   10  A    between atoms: O3_24  and  C17_25
REMARK   11  A    between atoms: C18_27  and  C19_28
REMARK   12  A    between atoms: C19_28  and  O5_29
REMARK   13  A    between atoms: C20_31  and  O6_32
REMARK   14  A    between atoms: C22_34  and  O7_35
ROOT
HETATM    1  C10 UNL     1      -1.920   1.020  15.114  1.00  0.00     0.057 C
HETATM    2  C11 UNL     1      -0.898   1.769  14.273  1.00  0.00     0.128 C
HETATM    3  C12 UNL     1      -0.588   3.055  14.964  1.00  0.00     0.064 C
HETATM    4  C13 UNL     1      -0.854   2.770  16.409  1.00  0.00     0.132 C
HETATM    5  C14 UNL     1      -1.956   1.760  16.406  1.00  0.00     0.086 C
ENDROOT
BRANCH   5   6
HETATM    6  C15 UNL     1      -1.863   0.859  17.603  1.00  0.00     0.098 C
HETATM    7  C16 UNL     1      -2.126   1.480  18.962  1.00  0.00     0.083 C
BRANCH   6   8
HETATM    8  N2  UNL     1      -1.602  -0.285  17.521  1.00  0.00    -0.288 NA
BRANCH   8   9
HETATM    9  O3  UNL     1      -1.327  -1.483  17.434  1.00  0.00    -0.174 OA
BRANCH   9  10
HETATM   10  C17 UNL     1      -2.239  -2.557  17.266  1.00  0.00     0.335 C
HETATM   11  O4  UNL     1      -1.569  -3.738  17.025  1.00  0.00    -0.345 OA
HETATM   12  C18 UNL     1      -1.490  -4.425  18.226  1.00  0.00     0.180 C
HETATM   13  C20 UNL     1      -2.830  -4.181  18.863  1.00  0.00     0.185 C
HETATM   14  C22 UNL     1      -3.115  -2.751  18.458  1.00  0.00     0.208 C
BRANCH  12  15
HETATM   15  C19 UNL     1      -0.400  -3.900  19.132  1.00  0.00     0.198 C
BRANCH  15  16
HETATM   16  O5  UNL     1      -0.046  -4.870  20.089  1.00  0.00    -0.398 OA
ATOM     17  H5  UNL     1       0.898  -4.917  20.179  1.00  0.00     0.209 HD
ENDBRANCH  15  16
ENDBRANCH  12  15
BRANCH  13  18
HETATM   18  O6  UNL     1      -3.820  -4.966  18.273  1.00  0.00    -0.385 OA
HETATM   19  C21 UNL     1      -4.873  -5.204  19.141  1.00  0.00     0.202 C
ENDBRANCH  13  18
BRANCH  14  20
HETATM   20  O7  UNL     1      -2.832  -1.852  19.497  1.00  0.00    -0.388 OA
ATOM     21  H7  UNL     1      -3.456  -1.904  20.212  1.00  0.00     0.210 HD
ENDBRANCH  14  20
ENDBRANCH   9  10
ENDBRANCH   8   9
ENDBRANCH   6   8
ENDBRANCH   5   6
BRANCH   1  22
HETATM   22  C9  UNL     1      -3.225   0.907  14.397  1.00  0.00     0.136 C
HETATM   23  C8  UNL     1      -3.185   0.180  13.096  1.00  0.00     0.084 C
HETATM   24  C6  UNL     1      -4.533   0.242  12.471  1.00  0.00    -0.017 C
HETATM   25  N1  UNL     1      -5.342   1.140  12.872  1.00  0.00    -0.371 N
HETATM   26  C7  UNL     1      -4.929  -0.737  11.387  1.00  0.00     0.063 C
HETATM   27  C5  UNL     1      -5.111   2.120  13.873  1.00  0.00     0.220 C
ATOM     28  H1  UNL     1      -6.258   1.157  12.424  1.00  0.00     0.161 HD
HETATM   29  O8  UNL     1      -3.782   2.179  14.277  1.00  0.00    -0.361 OA
BRANCH  27  30
HETATM   30  C4  UNL     1      -6.036   1.805  15.030  1.00  0.00     0.054 C
BRANCH  30  31
HETATM   31  C3  UNL     1      -7.330   1.183  14.567  1.00  0.00     0.004 C
BRANCH  31  32
HETATM   32  C2  UNL     1      -7.527  -0.096  15.356  1.00  0.00    -0.004 C
HETATM   33  C1  UNL     1      -6.196  -0.441  16.037  1.00  0.00     0.005 C
ENDBRANCH  31  32
ENDBRANCH  30  31
ENDBRANCH  27  30
ENDBRANCH   1  22
BRANCH   4  34
HETATM   34  O2  UNL     1       0.322   2.334  16.997  1.00  0.00    -0.395 OA
ATOM     35  H2  UNL     1       0.258   1.397  17.144  1.00  0.00     0.210 HD
ENDBRANCH   4  34
BRANCH   2  36
HETATM   36  O1  UNL     1       0.284   1.043  14.141  1.00  0.00    -0.395 OA
ATOM     37  H1  UNL     1       0.370   0.674  13.270  1.00  0.00     0.210 HD
ENDBRANCH   2  36
TORSDOF 14
ENDMDL