MODEL 5
REMARK VINA RESULT: -7.981025627      1.105      1.428
REMARK  11 active torsions:
REMARK  status: ('A' for Active; 'I' for Inactive)
REMARK    1  A    between atoms: C2_2  and  C3_3
REMARK    2  A    between atoms: C3_3  and  O1_4
REMARK    3  A    between atoms: O1_4  and  C4_5
REMARK    4  A    between atoms: C4_5  and  C5_6
REMARK    5  A    between atoms: C5_6  and  N1_7
REMARK    6  A    between atoms: N1_7  and  C6_10
REMARK    7  A    between atoms: C6_10  and  C7_11
REMARK    8  A    between atoms: C7_11  and  S1_12
REMARK    9  A    between atoms: S1_12  and  N2_15
REMARK   10  A    between atoms: N2_15  and  C8_17
REMARK   11  A    between atoms: N4_25  and  N5_26
ROOT
HETATM    1  C8  UNL     1      -1.439  -1.205  17.599  1.00  0.00     0.047 C
HETATM    2  C9  UNL     1      -1.306  -0.451  18.940  1.00  0.00     0.033 C
HETATM    3  C10 UNL     1      -1.014  -1.757  19.633  1.00  0.00     0.011 C
HETATM    4  C11 UNL     1      -0.874  -2.375  18.259  1.00  0.00     0.033 C
HETATM    5  C12 UNL     1      -1.514  -3.682  18.105  1.00  0.00     0.138 C
HETATM    6  N3  UNL     1      -2.766  -3.753  18.820  1.00  0.00    -0.320 N
HETATM    7  C13 UNL     1      -3.766  -2.879  18.689  1.00  0.00     0.091 A
HETATM    8  C14 UNL     1      -4.803  -3.252  19.516  1.00  0.00     0.151 A
HETATM    9  N4  UNL     1      -4.411  -4.364  20.147  1.00  0.00    -0.218 N
HETATM   10  C15 UNL     1      -3.171  -4.664  19.719  1.00  0.00     0.201 A
HETATM   11  S2  UNL     1      -2.263  -5.955  20.214  1.00  0.00    -0.038 SA
HETATM   12  N6  UNL     1      -5.962  -2.416  19.497  1.00  0.00    -0.350 N
ATOM     13  H6  UNL     1      -6.815  -2.766  19.933  1.00  0.00     0.162 HD
HETATM   14  C16 UNL     1      -5.994  -1.096  18.895  1.00  0.00     0.357 C
HETATM   15  N7  UNL     1      -4.577  -0.696  18.745  1.00  0.00    -0.050 N
ATOM     16  H71 UNL     1      -4.094  -0.588  19.637  1.00  0.00     0.280 HD
ATOM     17  H72 UNL     1      -4.464   0.265  18.420  1.00  0.00     0.280 HD
HETATM   18  C17 UNL     1      -3.957  -1.663  17.880  1.00  0.00     0.243 C
HETATM   19  C18 UNL     1      -2.819  -1.248  17.066  1.00  0.00     0.071 C
ENDROOT
BRANCH   1  20
HETATM   20  N2  UNL     1      -0.602  -0.472  16.675  1.00  0.00    -0.309 N
ATOM     21  H2  UNL     1       0.154  -0.966  16.198  1.00  0.00     0.173 HD
BRANCH  20  22
HETATM   22  S1  UNL     1      -0.820   1.119  16.364  1.00  0.00     0.228 S
HETATM   23  O2  UNL     1      -2.030   1.831  16.780  1.00  0.00    -0.206 OA
HETATM   24  O3  UNL     1       0.361   1.916  16.915  1.00  0.00    -0.206 OA
BRANCH  22  25
HETATM   25  C7  UNL     1      -0.710   1.366  14.575  1.00  0.00     0.190 C
BRANCH  25  26
HETATM   26  C6  UNL     1      -0.057   2.701  14.286  1.00  0.00     0.249 C
BRANCH  26  27
HETATM   27  N1  UNL     1      -0.729   3.789  14.943  1.00  0.00    -0.072 N
ATOM     28  H12 UNL     1      -0.064   4.424  15.384  1.00  0.00     0.277 HD
ATOM     29  H11 UNL     1      -1.224   3.470  15.776  1.00  0.00     0.277 HD
BRANCH  27  30
HETATM   30  C5  UNL     1      -1.616   4.498  14.042  1.00  0.00     0.258 C
BRANCH  30  31
HETATM   31  C4  UNL     1      -3.055   4.261  14.482  1.00  0.00     0.195 C
BRANCH  31  32
HETATM   32  O1  UNL     1      -3.761   3.624  13.471  1.00  0.00    -0.386 OA
BRANCH  32  33
HETATM   33  C3  UNL     1      -4.217   2.400  13.947  1.00  0.00     0.194 C
BRANCH  33  34
HETATM   34  C2  UNL     1      -5.309   1.836  13.121  1.00  0.00    -0.011 C
HETATM   35  C1  UNL     1      -6.317   2.613  12.752  1.00  0.00     0.009 C
ENDBRANCH  33  34
ENDBRANCH  32  33
ENDBRANCH  31  32
ENDBRANCH  30  31
ENDBRANCH  27  30
ENDBRANCH  26  27
ENDBRANCH  25  26
ENDBRANCH  22  25
ENDBRANCH  20  22
ENDBRANCH   1  20
BRANCH   9  36
HETATM   36  N5  UNL     1      -5.194  -5.060  21.083  1.00  0.00    -0.335 N
ATOM     37  H52 UNL     1      -5.921  -5.752  20.902  1.00  0.00     0.177 HD
ATOM     38  H51 UNL     1      -5.119  -4.942  22.093  1.00  0.00     0.177 HD
ENDBRANCH   9  36
TORSDOF 11
ENDMDL