MODEL 3
REMARK VINA RESULT: -8.203790203      1.751      3.101
REMARK  14 active torsions:
REMARK  status: ('A' for Active; 'I' for Inactive)
REMARK    1  A    between atoms: C2_2  and  C3_3
REMARK    2  A    between atoms: C3_3  and  C4_4
REMARK    3  A    between atoms: C4_4  and  C5_5
REMARK    4  A    between atoms: C5_5  and  C6_6
REMARK    5  A    between atoms: C6_6  and  S1_7
REMARK    6  A    between atoms: S1_7  and  C7_8
REMARK    7  A    between atoms: C7_8  and  C8_9
REMARK    8  A    between atoms: C9_11  and  O2_12
REMARK    9  A    between atoms: O2_12  and  C10_13
REMARK   10  A    between atoms: C16_21  and  O5_22
REMARK   11  A    between atoms: C17_24  and  O6_25
REMARK   12  A    between atoms: C18_27  and  O7_28
REMARK   13  A    between atoms: C19_30  and  O8_31
REMARK   14  A    between atoms: C20_33  and  O9_34
ROOT
HETATM    1  C8  UNL     1      -2.235   1.064  15.202  1.00  0.00     0.165 C
HETATM    2  O1  UNL     1      -3.120   1.594  16.097  1.00  0.00    -0.350 OA
HETATM    3  C9  UNL     1      -2.732   1.441  17.425  1.00  0.00     0.294 C
HETATM    4  C18 UNL     1      -1.545   2.343  17.713  1.00  0.00     0.204 C
HETATM    5  C19 UNL     1      -0.503   2.124  16.663  1.00  0.00     0.183 C
HETATM    6  C20 UNL     1      -0.821   0.987  15.722  1.00  0.00     0.179 C
ENDROOT
BRANCH   3   7
HETATM    7  O2  UNL     1      -2.478   0.136  17.766  1.00  0.00    -0.326 OA
BRANCH   7   8
HETATM    8  C10 UNL     1      -3.281  -0.382  18.762  1.00  0.00     0.294 C
HETATM    9  O3  UNL     1      -2.584  -1.328  19.545  1.00  0.00    -0.347 OA
HETATM   10  C11 UNL     1      -1.903  -2.164  18.662  1.00  0.00     0.190 C
HETATM   11  C12 UNL     1      -2.907  -2.781  17.742  1.00  0.00     0.186 C
HETATM   12  C13 UNL     1      -1.598  -3.545  19.136  1.00  0.00     0.083 C
HETATM   13  O4  UNL     1      -2.429  -4.040  18.111  1.00  0.00    -0.368 OA
HETATM   14  C16 UNL     1      -4.325  -2.523  18.221  1.00  0.00     0.183 C
HETATM   15  C17 UNL     1      -4.543  -1.027  18.182  1.00  0.00     0.204 C
HETATM   16  C14 UNL     1      -0.162  -3.966  18.804  1.00  0.00     0.048 C
HETATM   17  C15 UNL     1      -2.063  -3.931  20.499  1.00  0.00     0.048 C
BRANCH  14  18
HETATM   18  O5  UNL     1      -5.233  -3.207  17.431  1.00  0.00    -0.390 OA
ATOM     19  H5  UNL     1      -6.087  -2.792  17.473  1.00  0.00     0.210 HD
ENDBRANCH  14  18
BRANCH  15  20
HETATM   20  O6  UNL     1      -4.761  -0.655  16.873  1.00  0.00    -0.388 OA
ATOM     21  H6  UNL     1      -4.233  -1.159  16.266  1.00  0.00     0.210 HD
ENDBRANCH  15  20
ENDBRANCH   7   8
ENDBRANCH   3   7
BRANCH   4  22
HETATM   22  O7  UNL     1      -2.010   3.658  17.718  1.00  0.00    -0.388 OA
ATOM     23  H7  UNL     1      -2.473   3.800  16.900  1.00  0.00     0.210 HD
ENDBRANCH   4  22
BRANCH   1  24
HETATM   24  C7  UNL     1      -2.242   1.760  13.863  1.00  0.00     0.108 C
BRANCH  24  25
HETATM   25  S1  UNL     1      -3.432   3.092  13.819  1.00  0.00    -0.166 SA
BRANCH  25  26
HETATM   26  C6  UNL     1      -5.090   2.596  13.396  1.00  0.00     0.074 C
BRANCH  26  27
HETATM   27  C5  UNL     1      -5.189   1.184  12.876  1.00  0.00     0.010 C
BRANCH  27  28
HETATM   28  C4  UNL     1      -6.332   1.099  11.895  1.00  0.00     0.001 C
BRANCH  28  29
HETATM   29  C3  UNL     1      -7.552   1.839  12.352  1.00  0.00    -0.000 C
BRANCH  29  30
HETATM   30  C2  UNL     1      -8.194   2.636  11.219  1.00  0.00    -0.005 C
HETATM   31  C1  UNL     1      -7.678   4.055  11.312  1.00  0.00     0.005 C
ENDBRANCH  29  30
ENDBRANCH  28  29
ENDBRANCH  27  28
ENDBRANCH  26  27
ENDBRANCH  25  26
ENDBRANCH  24  25
ENDBRANCH   1  24
BRANCH   5  32
HETATM   32  O8  UNL     1       0.715   1.866  17.286  1.00  0.00    -0.390 OA
ATOM     33  H8  UNL     1       1.268   1.379  16.687  1.00  0.00     0.210 HD
ENDBRANCH   5  32
BRANCH   6  34
HETATM   34  O9  UNL     1       0.044   1.119  14.626  1.00  0.00    -0.390 OA
ATOM     35  H9  UNL     1       0.688   0.423  14.681  1.00  0.00     0.210 HD
ENDBRANCH   6  34
TORSDOF 14
ENDMDL