MODEL 4
REMARK VINA RESULT: -7.540917492      2.764      7.687
REMARK  14 active torsions:
REMARK  status: ('A' for Active; 'I' for Inactive)
REMARK    1  A    between atoms: O1_2  and  C2_3
REMARK    2  A    between atoms: C2_3  and  C3_4
REMARK    3  A    between atoms: C2_3  and  S2_7
REMARK    4  A    between atoms: C3_4  and  C4_5
REMARK    5  A    between atoms: C5_9  and  C6_10
REMARK    6  A    between atoms: C6_10  and  O3_11
REMARK    7  A    between atoms: O3_11  and  C7_12
REMARK    8  A    between atoms: C7_12  and  C8_13
REMARK    9  A    between atoms: C9_15  and  C10_16
REMARK   10  A    between atoms: C10_16  and  C12_18
REMARK   11  A    between atoms: C12_18  and  O5_19
REMARK   12  A    between atoms: C16_25  and  O7_26
REMARK   13  A    between atoms: C17_28  and  O8_29
REMARK   14  A    between atoms: C18_31  and  O9_32
ROOT
HETATM    1  S2  UNL     1      -2.711  -2.533  18.187  1.00  0.00    -0.002 SA
HETATM    2  O2  UNL     1      -4.119  -2.772  17.276  1.00  0.00    -0.313 OA
HETATM    3  C5  UNL     1      -5.223  -2.024  17.558  1.00  0.00     0.192 C
HETATM    4  C16 UNL     1      -5.264  -1.345  18.863  1.00  0.00     0.182 C
HETATM    5  C17 UNL     1      -4.557  -2.035  19.984  1.00  0.00     0.190 C
HETATM    6  C18 UNL     1      -3.034  -1.861  19.882  1.00  0.00     0.233 C
ENDROOT
BRANCH   3   7
HETATM    7  C6  UNL     1      -5.377  -0.928  16.464  1.00  0.00     0.203 C
BRANCH   7   8
HETATM    8  O3  UNL     1      -5.409   0.302  17.016  1.00  0.00    -0.384 OA
BRANCH   8   9
HETATM    9  C7  UNL     1      -4.468   1.164  16.564  1.00  0.00     0.228 C
BRANCH   9  10
HETATM   10  C8  UNL     1      -3.046   0.704  16.495  1.00  0.00     0.285 C
HETATM   11  O4  UNL     1      -2.350   1.063  15.385  1.00  0.00    -0.350 OA
HETATM   12  C9  UNL     1      -1.374   1.971  15.713  1.00  0.00     0.164 C
HETATM   13  C13 UNL     1      -1.437   2.083  17.185  1.00  0.00     0.083 C
HETATM   14  C14 UNL     1      -0.066   1.721  17.771  1.00  0.00     0.048 C
HETATM   15  C15 UNL     1      -1.870   3.409  17.715  1.00  0.00     0.048 C
HETATM   16  O6  UNL     1      -2.316   1.118  17.610  1.00  0.00    -0.346 OA
BRANCH  12  17
HETATM   17  C10 UNL     1      -1.613   3.248  14.965  1.00  0.00     0.037 C
HETATM   18  C11 UNL     1      -0.374   3.826  14.361  1.00  0.00     0.015 C
BRANCH  17  19
HETATM   19  C12 UNL     1      -2.595   2.916  13.833  1.00  0.00     0.170 C
BRANCH  19  20
HETATM   20  O5  UNL     1      -3.782   3.577  14.103  1.00  0.00    -0.400 OA
ATOM     21  H5  UNL     1      -4.488   2.947  14.010  1.00  0.00     0.209 HD
ENDBRANCH  19  20
ENDBRANCH  17  19
ENDBRANCH  12  17
ENDBRANCH   9  10
ENDBRANCH   8   9
ENDBRANCH   7   8
ENDBRANCH   3   7
BRANCH   4  22
HETATM   22  O7  UNL     1      -6.586  -1.124  19.267  1.00  0.00    -0.390 OA
ATOM     23  H7  UNL     1      -6.880  -1.809  19.856  1.00  0.00     0.210 HD
ENDBRANCH   4  22
BRANCH   1  24
HETATM   24  C2  UNL     1      -1.544  -3.655  18.096  1.00  0.00     0.100 C
BRANCH  24  25
HETATM   25  O1  UNL     1      -0.321  -3.323  17.463  1.00  0.00    -0.352 OA
HETATM   26  C1  UNL     1      -0.115  -1.974  17.033  1.00  0.00     0.210 C
ENDBRANCH  24  25
BRANCH  24  27
HETATM   27  C3  UNL     1      -1.632  -5.025  18.625  1.00  0.00     0.084 C
BRANCH  27  28
HETATM   28  C4  UNL     1      -1.166  -5.208  20.028  1.00  0.00     0.093 C
HETATM   29  S1  UNL     1      -2.499  -5.955  21.049  1.00  0.00    -0.097 SA
ENDBRANCH  27  28
ENDBRANCH  24  27
ENDBRANCH   1  24
BRANCH   5  30
HETATM   30  O8  UNL     1      -4.912  -3.355  20.132  1.00  0.00    -0.389 OA
ATOM     31  H8  UNL     1      -4.315  -3.960  19.707  1.00  0.00     0.210 HD
ENDBRANCH   5  30
BRANCH   6  32
HETATM   32  O9  UNL     1      -2.746  -0.513  19.878  1.00  0.00    -0.381 OA
ATOM     33  H9  UNL     1      -3.331  -0.080  20.489  1.00  0.00     0.211 HD
ENDBRANCH   6  32
TORSDOF 14
ENDMDL