MODEL 4
REMARK VINA RESULT: -7.753987022      3.768      6.101
REMARK  13 active torsions:
REMARK  status: ('A' for Active; 'I' for Inactive)
REMARK    1  A    between atoms: O1_1  and  C1_3
REMARK    2  A    between atoms: C1_3  and  C2_4
REMARK    3  A    between atoms: C2_4  and  C3_5
REMARK    4  A    between atoms: C3_5  and  C4_6
REMARK    5  A    between atoms: C4_6  and  S1_7
REMARK    6  A    between atoms: S1_7  and  C5_8
REMARK    7  A    between atoms: C5_8  and  C6_9
REMARK    8  A    between atoms: C12_16  and  N1_17
REMARK    9  A    between atoms: C16_24  and  C17_25
REMARK   10  A    between atoms: C17_25  and  O3_26
REMARK   11  A    between atoms: C18_28  and  O4_29
REMARK   12  A    between atoms: C19_31  and  O5_32
REMARK   13  A    between atoms: C20_34  and  O6_35
ROOT
HETATM    1  C6  UNL     1      -6.315   1.933  13.573  1.00  0.00     0.085 C
HETATM    2  S2  UNL     1      -4.643   2.553  13.517  1.00  0.00    -0.160 SA
HETATM    3  C7  UNL     1      -3.373   1.349  13.939  1.00  0.00     0.081 C
HETATM    4  C8  UNL     1      -3.321   1.174  15.455  1.00  0.00     0.019 C
HETATM    5  C9  UNL     1      -4.598   1.766  16.032  1.00  0.00     0.014 C
HETATM    6  C10 UNL     1      -5.646   0.768  15.770  1.00  0.00     0.018 C
HETATM    7  C11 UNL     1      -4.907  -0.578  15.763  1.00  0.00     0.033 C
HETATM    8  C12 UNL     1      -3.431  -0.268  15.835  1.00  0.00     0.098 C
HETATM    9  C20 UNL     1      -6.543   0.915  14.610  1.00  0.00     0.137 C
ENDROOT
BRANCH   8  10
HETATM   10  N1  UNL     1      -2.871  -0.574  17.126  1.00  0.00    -0.317 N
HETATM   11  C13 UNL     1      -2.078   0.257  17.838  1.00  0.00     0.185 A
HETATM   12  N2  UNL     1      -1.744  -0.357  18.984  1.00  0.00    -0.350 N
HETATM   13  C14 UNL     1      -2.329  -1.584  18.994  1.00  0.00     0.093 A
ATOM     14  H2  UNL     1      -1.152   0.031  19.720  1.00  0.00     0.166 HD
HETATM   15  C15 UNL     1      -3.033  -1.714  17.828  1.00  0.00     0.172 A
HETATM   16  C19 UNL     1      -2.245  -2.620  20.053  1.00  0.00     0.203 C
HETATM   17  O2  UNL     1      -3.739  -2.908  17.592  1.00  0.00    -0.324 OA
HETATM   18  C16 UNL     1      -3.988  -3.751  18.706  1.00  0.00     0.185 C
HETATM   19  C18 UNL     1      -2.777  -3.932  19.571  1.00  0.00     0.184 C
BRANCH  18  20
HETATM   20  C17 UNL     1      -5.131  -3.150  19.476  1.00  0.00     0.199 C
BRANCH  20  21
HETATM   21  O3  UNL     1      -5.933  -4.067  20.108  1.00  0.00    -0.398 OA
ATOM     22  H3  UNL     1      -6.412  -3.723  20.853  1.00  0.00     0.209 HD
ENDBRANCH  20  21
ENDBRANCH  18  20
BRANCH  19  23
HETATM   23  O4  UNL     1      -3.141  -4.708  20.671  1.00  0.00    -0.390 OA
ATOM     24  H4  UNL     1      -2.347  -4.998  21.103  1.00  0.00     0.210 HD
ENDBRANCH  19  23
BRANCH  16  25
HETATM   25  O5  UNL     1      -0.899  -2.770  20.453  1.00  0.00    -0.387 OA
ATOM     26  H5  UNL     1      -0.538  -1.918  20.670  1.00  0.00     0.210 HD
ENDBRANCH  16  25
ENDBRANCH   8  10
BRANCH   9  27
HETATM   27  O6  UNL     1      -7.876   1.069  15.132  1.00  0.00    -0.394 OA
ATOM     28  H6  UNL     1      -8.426   0.379  14.780  1.00  0.00     0.210 HD
ENDBRANCH   9  27
BRANCH   1  29
HETATM   29  C5  UNL     1      -6.811   1.581  12.178  1.00  0.00     0.091 C
BRANCH  29  30
HETATM   30  S1  UNL     1      -8.198   2.475  11.568  1.00  0.00    -0.168 SA
BRANCH  30  31
HETATM   31  C4  UNL     1      -8.332   4.208  11.933  1.00  0.00     0.074 C
BRANCH  31  32
HETATM   32  C3  UNL     1      -7.900   4.975  10.687  1.00  0.00     0.012 C
BRANCH  32  33
HETATM   33  C2  UNL     1      -8.206   4.229   9.411  1.00  0.00     0.027 C
BRANCH  33  34
HETATM   34  C1  UNL     1      -7.464   4.998   8.307  1.00  0.00     0.164 C
BRANCH  34  35
HETATM   35  O1  UNL     1      -8.190   4.719   7.128  1.00  0.00    -0.401 OA
ATOM     36  H1  UNL     1      -8.897   5.353   7.125  1.00  0.00     0.209 HD
ENDBRANCH  34  35
ENDBRANCH  33  34
ENDBRANCH  32  33
ENDBRANCH  31  32
ENDBRANCH  30  31
ENDBRANCH  29  30
ENDBRANCH   1  29
TORSDOF 13
ENDMDL