MODEL 2
REMARK VINA RESULT: -8.885538813      1.082      1.428
REMARK  14 active torsions:
REMARK  status: ('A' for Active; 'I' for Inactive)
REMARK    1  A    between atoms: C4_5  and  O2_6
REMARK    2  A    between atoms: O2_6  and  C5_7
REMARK    3  A    between atoms: C7_10  and  O4_11
REMARK    4  A    between atoms: O4_11  and  C8_12
REMARK    5  A    between atoms: C8_12  and  C9_13
REMARK    6  A    between atoms: C9_13  and  C10_14
REMARK    7  A    between atoms: C10_14  and  C11_15
REMARK    8  A    between atoms: C11_15  and  C12_16
REMARK    9  A    between atoms: C17_21  and  O5_22
REMARK   10  A    between atoms: C18_24  and  O6_25
REMARK   11  A    between atoms: C19_27  and  O7_28
REMARK   12  A    between atoms: C20_31  and  C21_32
REMARK   13  A    between atoms: C21_32  and  O9_33
REMARK   14  A    between atoms: C22_35  and  O10_36
ROOT
HETATM    1  C5  UNL     1      -1.666  -0.260  17.942  1.00  0.00     0.182 C
HETATM    2  C6  UNL     1      -1.103  -0.518  16.557  1.00  0.00     0.205 C
HETATM    3  O3  UNL     1       0.054   0.187  16.309  1.00  0.00    -0.356 OA
HETATM    4  C7  UNL     1      -0.141   1.569  16.354  1.00  0.00     0.290 C
HETATM    5  C18 UNL     1      -0.532   1.886  17.787  1.00  0.00     0.204 C
HETATM    6  C19 UNL     1      -1.858   1.245  18.063  1.00  0.00     0.183 C
ENDROOT
BRANCH   1   7
HETATM    7  O2  UNL     1      -0.850  -0.763  18.924  1.00  0.00    -0.329 OA
BRANCH   7   8
HETATM    8  C4  UNL     1      -1.497  -1.704  19.708  1.00  0.00     0.414 C
HETATM    9  O1  UNL     1      -2.855  -1.596  19.462  1.00  0.00    -0.326 OA
HETATM   10  C2  UNL     1      -3.570  -2.705  19.843  1.00  0.00     0.087 C
HETATM   11  C1  UNL     1      -3.383  -3.035  21.301  1.00  0.00     0.048 C
HETATM   12  C3  UNL     1      -5.048  -2.412  19.629  1.00  0.00     0.048 C
HETATM   13  C22 UNL     1      -3.175  -3.841  18.932  1.00  0.00     0.183 C
HETATM   14  C20 UNL     1      -1.697  -3.745  18.630  1.00  0.00     0.182 C
HETATM   15  O8  UNL     1      -1.006  -2.982  19.541  1.00  0.00    -0.329 OA
BRANCH  13  16
HETATM   16  O10 UNL     1      -3.850  -3.688  17.706  1.00  0.00    -0.390 OA
ATOM     17  H10 UNL     1      -3.281  -3.224  17.103  1.00  0.00     0.210 HD
ENDBRANCH  13  16
BRANCH  14  18
HETATM   18  C21 UNL     1      -1.146  -5.159  18.706  1.00  0.00     0.199 C
BRANCH  18  19
HETATM   19  O9  UNL     1       0.051  -5.183  19.423  1.00  0.00    -0.398 OA
ATOM     20  H9  UNL     1      -0.030  -5.736  20.191  1.00  0.00     0.209 HD
ENDBRANCH  18  19
ENDBRANCH  14  18
ENDBRANCH   7   8
ENDBRANCH   1   7
BRANCH   6  21
HETATM   21  O7  UNL     1      -2.806   1.604  17.105  1.00  0.00    -0.390 OA
ATOM     22  H7  UNL     1      -3.513   2.034  17.572  1.00  0.00     0.210 HD
ENDBRANCH   6  21
BRANCH   5  23
HETATM   23  O6  UNL     1       0.433   1.320  18.614  1.00  0.00    -0.388 OA
ATOM     24  H6  UNL     1       0.819   2.025  19.121  1.00  0.00     0.210 HD
ENDBRANCH   5  23
BRANCH   4  25
HETATM   25  O4  UNL     1      -1.100   2.011  15.495  1.00  0.00    -0.359 OA
BRANCH  25  26
HETATM   26  C8  UNL     1      -0.833   3.205  14.855  1.00  0.00     0.171 C
BRANCH  26  27
HETATM   27  C9  UNL     1      -2.014   4.102  14.923  1.00  0.00     0.026 C
BRANCH  27  28
HETATM   28  C10 UNL     1      -3.014   3.845  13.788  1.00  0.00     0.002 C
BRANCH  28  29
HETATM   29  C11 UNL     1      -4.170   3.055  14.233  1.00  0.00     0.007 C
BRANCH  29  30
HETATM   30  C12 UNL     1      -4.553   1.972  13.279  1.00  0.00     0.018 C
HETATM   31  C13 UNL     1      -3.817   0.663  13.699  1.00  0.00     0.034 C
HETATM   32  C14 UNL     1      -4.018  -0.280  12.574  1.00  0.00    -0.030 C
HETATM   33  C15 UNL     1      -5.074  -0.194  11.781  1.00  0.00    -0.028 C
HETATM   34  C16 UNL     1      -6.158   0.804  11.893  1.00  0.00     0.059 C
HETATM   35  C17 UNL     1      -5.985   1.574  13.223  1.00  0.00     0.126 C
BRANCH  35  36
HETATM   36  O5  UNL     1      -6.925   2.553  13.334  1.00  0.00    -0.395 OA
ATOM     37  H5  UNL     1      -7.830   2.291  13.457  1.00  0.00     0.210 HD
ENDBRANCH  35  36
ENDBRANCH  29  30
ENDBRANCH  28  29
ENDBRANCH  27  28
ENDBRANCH  26  27
ENDBRANCH  25  26
ENDBRANCH   4  25
TORSDOF 14
ENDMDL