MODEL 4
REMARK VINA RESULT: -7.993164469      2.832      3.566
REMARK  14 active torsions:
REMARK  status: ('A' for Active; 'I' for Inactive)
REMARK    1  A    between atoms: C2_2  and  O2_4
REMARK    2  A    between atoms: O2_4  and  C3_5
REMARK    3  A    between atoms: C4_6  and  O3_7
REMARK    4  A    between atoms: O3_7  and  C5_8
REMARK    5  A    between atoms: C6_9  and  O4_10
REMARK    6  A    between atoms: C7_12  and  O5_13
REMARK    7  A    between atoms: C8_15  and  O6_16
REMARK    8  A    between atoms: C9_18  and  C10_19
REMARK    9  A    between atoms: C10_19  and  O7_20
REMARK   10  A    between atoms: C11_22  and  C12_23
REMARK   11  A    between atoms: C12_23  and  C13_24
REMARK   12  A    between atoms: C13_24  and  C14_25
REMARK   13  A    between atoms: C15_26  and  C16_27
REMARK   14  A    between atoms: C20_33  and  O9_34
ROOT
HETATM    1  C5  UNL     1      -2.844  -0.314  17.048  1.00  0.00     0.158 C
HETATM    2  C6  UNL     1      -2.002  -0.306  15.818  1.00  0.00     0.178 C
HETATM    3  C7  UNL     1      -1.151   0.933  15.642  1.00  0.00     0.178 C
HETATM    4  C8  UNL     1      -0.670   1.289  17.019  1.00  0.00     0.156 C
HETATM    5  C9  UNL     1      -1.849   1.854  17.789  1.00  0.00     0.047 C
HETATM    6  C11 UNL     1      -3.108   1.081  17.599  1.00  0.00     0.026 C
ENDROOT
BRANCH   1   7
HETATM    7  O3  UNL     1      -2.245  -1.118  18.013  1.00  0.00    -0.373 OA
BRANCH   7   8
HETATM    8  C4  UNL     1      -2.962  -2.283  18.250  1.00  0.00     0.178 C
HETATM    9  C3  UNL     1      -3.259  -2.489  19.724  1.00  0.00     0.194 C
HETATM   10  C20 UNL     1      -2.058  -3.234  20.308  1.00  0.00     0.178 C
HETATM   11  C18 UNL     1      -2.069  -4.610  19.696  1.00  0.00     0.148 C
HETATM   12  O8  UNL     1      -2.714  -4.598  18.466  1.00  0.00    -0.381 OA
HETATM   13  C19 UNL     1      -0.677  -5.158  19.487  1.00  0.00     0.042 C
HETATM   14  C17 UNL     1      -2.311  -3.510  17.679  1.00  0.00     0.203 C
BRANCH   9  15
HETATM   15  O2  UNL     1      -4.406  -3.342  19.783  1.00  0.00    -0.311 OA
BRANCH  15  16
HETATM   16  C2  UNL     1      -4.976  -3.730  20.975  1.00  0.00     0.255 C
HETATM   17  C1  UNL     1      -5.578  -5.090  21.074  1.00  0.00     0.126 C
HETATM   18  O1  UNL     1      -4.974  -2.927  21.946  1.00  0.00    -0.266 OA
ENDBRANCH  15  16
ENDBRANCH   9  15
BRANCH  10  19
HETATM   19  O9  UNL     1      -0.889  -2.554  19.967  1.00  0.00    -0.390 OA
ATOM     20  H9  UNL     1      -0.228  -3.185  19.705  1.00  0.00     0.210 HD
ENDBRANCH  10  19
ENDBRANCH   7   8
ENDBRANCH   1   7
BRANCH   2  21
HETATM   21  O4  UNL     1      -2.742  -0.489  14.646  1.00  0.00    -0.390 OA
ATOM     22  H4  UNL     1      -3.162  -1.339  14.600  1.00  0.00     0.210 HD
ENDBRANCH   2  21
BRANCH   6  23
HETATM   23  C12 UNL     1      -4.124   1.696  16.679  1.00  0.00     0.011 C
BRANCH  23  24
HETATM   24  C13 UNL     1      -3.910   3.101  16.252  1.00  0.00     0.027 C
BRANCH  24  25
HETATM   25  C14 UNL     1      -3.702   3.318  14.815  1.00  0.00    -0.030 C
HETATM   26  C15 UNL     1      -2.682   3.886  14.210  1.00  0.00    -0.020 C
BRANCH  26  27
HETATM   27  C16 UNL     1      -1.503   4.438  14.883  1.00  0.00     0.112 C
HETATM   28  S1  UNL     1      -0.016   4.185  13.863  1.00  0.00    -0.094 SA
ENDBRANCH  26  27
ENDBRANCH  24  25
ENDBRANCH  23  24
ENDBRANCH   6  23
BRANCH   3  29
HETATM   29  O5  UNL     1      -0.060   0.575  14.821  1.00  0.00    -0.390 OA
ATOM     30  H5  UNL     1      -0.419   0.278  13.993  1.00  0.00     0.210 HD
ENDBRANCH   3  29
BRANCH   5  31
HETATM   31  C10 UNL     1      -1.355   1.917  19.221  1.00  0.00     0.172 C
BRANCH  31  32
HETATM   32  O7  UNL     1      -1.190   0.739  19.864  1.00  0.00    -0.400 OA
ATOM     33  H7  UNL     1      -1.380   0.727  20.794  1.00  0.00     0.209 HD
ENDBRANCH  31  32
ENDBRANCH   5  31
BRANCH   4  34
HETATM   34  O6  UNL     1       0.304   2.284  16.995  1.00  0.00    -0.392 OA
ATOM     35  H6  UNL     1      -0.065   3.152  17.112  1.00  0.00     0.210 HD
ENDBRANCH   4  34
TORSDOF 14
ENDMDL