MODEL 5
REMARK VINA RESULT: -6.334268538      2.158      3.321
REMARK  17 active torsions:
REMARK  status: ('A' for Active; 'I' for Inactive)
REMARK    1  A    between atoms: C2_2  and  C3_3
REMARK    2  A    between atoms: C3_3  and  N1_4
REMARK    3  A    between atoms: N1_4  and  C4_6
REMARK    4  A    between atoms: C4_6  and  S2_16
REMARK    5  A    between atoms: N2_7  and  C5_9
REMARK    6  A    between atoms: C5_9  and  C6_10
REMARK    7  A    between atoms: C6_10  and  S1_11
REMARK    8  A    between atoms: S1_11  and  C7_12
REMARK    9  A    between atoms: C7_12  and  C8_13
REMARK   10  A    between atoms: C8_13  and  O1_14
REMARK   11  A    between atoms: S2_16  and  S3_17
REMARK   12  A    between atoms: S3_17  and  C9_18
REMARK   13  A    between atoms: C10_20  and  C11_21
REMARK   14  A    between atoms: C11_21  and  O3_22
REMARK   15  A    between atoms: C12_24  and  O4_25
REMARK   16  A    between atoms: C13_27  and  O5_28
REMARK   17  A    between atoms: N3_30  and  C14_31
ROOT
HETATM    1  S3  UNL     1      -3.077  -0.898  16.173  1.00  0.00    -0.036 SA
ENDROOT
BRANCH   1   2
HETATM    2  S2  UNL     1      -1.634  -2.219  16.918  1.00  0.00    -0.018 SA
BRANCH   2   3
HETATM    3  C4  UNL     1      -1.336  -2.186  18.639  1.00  0.00     0.146 C
HETATM    4  N2  UNL     1      -1.513  -3.280  19.316  1.00  0.00    -0.370 N
ATOM      5  H2  UNL     1      -1.348  -3.289  20.322  1.00  0.00     0.161 HD
BRANCH   3   6
HETATM    6  N1  UNL     1      -0.912  -1.051  19.407  1.00  0.00    -0.370 N
ATOM      7  H1  UNL     1      -0.072  -1.093  19.987  1.00  0.00     0.161 HD
BRANCH   6   8
HETATM    8  C3  UNL     1      -1.709   0.157  19.337  1.00  0.00     0.121 C
BRANCH   8   9
HETATM    9  C2  UNL     1      -0.821   1.349  19.140  1.00  0.00     0.015 C
HETATM   10  C1  UNL     1       0.294   1.071  18.151  1.00  0.00     0.006 C
ENDBRANCH   8   9
ENDBRANCH   6   8
ENDBRANCH   3   6
BRANCH   4  11
HETATM   11  C5  UNL     1      -1.941  -4.485  18.642  1.00  0.00     0.132 C
BRANCH  11  12
HETATM   12  C6  UNL     1      -3.232  -4.978  19.250  1.00  0.00     0.093 C
BRANCH  12  13
HETATM   13  S1  UNL     1      -4.586  -3.892  18.909  1.00  0.00    -0.165 SA
BRANCH  13  14
HETATM   14  C7  UNL     1      -4.957  -2.599  20.039  1.00  0.00     0.100 C
BRANCH  14  15
HETATM   15  C8  UNL     1      -5.239  -1.261  19.422  1.00  0.00     0.174 C
BRANCH  15  16
HETATM   16  O1  UNL     1      -6.580  -1.040  19.194  1.00  0.00    -0.400 OA
ATOM     17  H1  UNL     1      -6.935  -0.325  19.709  1.00  0.00     0.209 HD
ENDBRANCH  15  16
ENDBRANCH  14  15
ENDBRANCH  13  14
ENDBRANCH  12  13
ENDBRANCH  11  12
ENDBRANCH   4  11
ENDBRANCH   2   3
ENDBRANCH   1   2
BRANCH   1  18
HETATM   18  C9  UNL     1      -2.375   0.636  15.636  1.00  0.00     0.302 C
HETATM   19  O2  UNL     1      -2.902   1.740  16.346  1.00  0.00    -0.346 OA
HETATM   20  C10 UNL     1      -2.167   2.883  16.118  1.00  0.00     0.181 C
HETATM   21  C12 UNL     1      -1.332   3.014  14.926  1.00  0.00     0.198 C
HETATM   22  C13 UNL     1      -1.461   1.943  13.857  1.00  0.00     0.255 C
HETATM   23  N3  UNL     1      -2.590   1.054  14.281  1.00  0.00    -0.310 N
BRANCH  20  24
HETATM   24  C11 UNL     1      -3.163   4.045  16.237  1.00  0.00     0.199 C
BRANCH  24  25
HETATM   25  O3  UNL     1      -3.008   4.958  15.196  1.00  0.00    -0.398 OA
ATOM     26  H3  UNL     1      -3.845   5.200  14.818  1.00  0.00     0.209 HD
ENDBRANCH  24  25
ENDBRANCH  20  24
BRANCH  21  27
HETATM   27  O4  UNL     1       0.021   3.123  15.267  1.00  0.00    -0.389 OA
ATOM     28  H4  UNL     1       0.375   3.962  14.998  1.00  0.00     0.210 HD
ENDBRANCH  21  27
BRANCH  22  29
HETATM   29  O5  UNL     1      -0.361   1.100  13.811  1.00  0.00    -0.374 OA
ATOM     30  H5  UNL     1      -0.379   0.517  13.061  1.00  0.00     0.212 HD
ENDBRANCH  22  29
BRANCH  23  31
HETATM   31  C14 UNL     1      -3.645   0.879  13.405  1.00  0.00     0.076 C
HETATM   32  C15 UNL     1      -3.901  -0.237  12.484  1.00  0.00     0.081 C
HETATM   33  S4  UNL     1      -4.790   2.103  13.381  1.00  0.00    -0.066 SA
ENDBRANCH  23  31
ENDBRANCH   1  18
TORSDOF 17
ENDMDL