MODEL 1
REMARK VINA RESULT: -8.476741713      0.000      0.000
REMARK  13 active torsions:
REMARK  status: ('A' for Active; 'I' for Inactive)
REMARK    1  A    between atoms: C2_2  and  C3_3
REMARK    2  A    between atoms: C3_3  and  O1_4
REMARK    3  A    between atoms: O1_4  and  C4_5
REMARK    4  A    between atoms: C5_7  and  C6_8
REMARK    5  A    between atoms: C6_8  and  O3_9
REMARK    6  A    between atoms: C7_11  and  O4_12
REMARK    7  A    between atoms: C8_14  and  O5_15
REMARK    8  A    between atoms: C9_17  and  O6_18
REMARK    9  A    between atoms: C10_21  and  C11_22
REMARK   10  A    between atoms: C11_22  and  S1_23
REMARK   11  A    between atoms: S1_23  and  C12_24
REMARK   12  A    between atoms: C12_24  and  C13_25
REMARK   13  A    between atoms: C20_33  and  O9_34
ROOT
HETATM    1  C1  UNL     1      -0.721   2.155  17.716  1.00  0.00     0.051 C
HETATM    2  C2  UNL     1      -0.841   1.412  16.427  1.00  0.00     0.109 C
HETATM    3  O7  UNL     1      -2.157   1.335  15.968  1.00  0.00    -0.345 OA
HETATM    4  C10 UNL     1      -2.615   2.628  15.728  1.00  0.00     0.270 C
HETATM    5  O8  UNL     1      -1.934   3.258  14.717  1.00  0.00    -0.358 OA
HETATM    6  C19 UNL     1      -0.575   3.303  14.898  1.00  0.00     0.205 C
HETATM    7  C20 UNL     1      -0.014   1.978  15.301  1.00  0.00     0.178 C
ENDROOT
BRANCH   2   8
HETATM    8  C3  UNL     1      -0.324  -0.010  16.675  1.00  0.00     0.211 C
BRANCH   8   9
HETATM    9  O1  UNL     1      -1.305  -0.854  16.197  1.00  0.00    -0.355 OA
BRANCH   9  10
HETATM   10  C4  UNL     1      -1.492  -1.987  17.003  1.00  0.00     0.291 C
HETATM   11  O2  UNL     1      -0.733  -1.817  18.132  1.00  0.00    -0.348 OA
HETATM   12  C5  UNL     1      -0.953  -2.708  19.151  1.00  0.00     0.179 C
HETATM   13  C7  UNL     1      -2.391  -2.686  19.553  1.00  0.00     0.180 C
HETATM   14  C8  UNL     1      -3.296  -3.007  18.407  1.00  0.00     0.183 C
HETATM   15  C9  UNL     1      -2.981  -2.057  17.272  1.00  0.00     0.204 C
BRANCH  12  16
HETATM   16  C6  UNL     1      -0.428  -4.095  18.879  1.00  0.00     0.198 C
BRANCH  16  17
HETATM   17  O3  UNL     1       0.069  -4.589  20.102  1.00  0.00    -0.398 OA
ATOM     18  H3  UNL     1       1.016  -4.595  20.031  1.00  0.00     0.209 HD
ENDBRANCH  16  17
ENDBRANCH  12  16
BRANCH  13  19
HETATM   19  O4  UNL     1      -2.624  -3.522  20.649  1.00  0.00    -0.390 OA
ATOM     20  H4  UNL     1      -2.282  -4.396  20.496  1.00  0.00     0.210 HD
ENDBRANCH  13  19
BRANCH  14  21
HETATM   21  O5  UNL     1      -3.277  -4.332  18.030  1.00  0.00    -0.390 OA
ATOM     22  H5  UNL     1      -4.118  -4.664  17.738  1.00  0.00     0.210 HD
ENDBRANCH  14  21
BRANCH  15  23
HETATM   23  O6  UNL     1      -3.417  -0.792  17.666  1.00  0.00    -0.388 OA
ATOM     24  H6  UNL     1      -3.823  -0.868  18.521  1.00  0.00     0.210 HD
ENDBRANCH  15  23
ENDBRANCH   9  10
ENDBRANCH   8   9
ENDBRANCH   2   8
BRANCH   7  25
HETATM   25  O9  UNL     1      -0.073   1.043  14.256  1.00  0.00    -0.390 OA
ATOM     26  H9  UNL     1       0.630   1.264  13.657  1.00  0.00     0.210 HD
ENDBRANCH   7  25
BRANCH   4  27
HETATM   27  C11 UNL     1      -4.099   2.599  15.528  1.00  0.00     0.134 C
BRANCH  27  28
HETATM   28  S1  UNL     1      -4.659   1.039  14.793  1.00  0.00    -0.164 SA
BRANCH  28  29
HETATM   29  C12 UNL     1      -5.118   1.363  13.067  1.00  0.00     0.078 C
BRANCH  29  30
HETATM   30  C13 UNL     1      -6.617   1.087  12.871  1.00  0.00    -0.005 C
HETATM   31  C14 UNL     1      -7.424   1.643  13.964  1.00  0.00     0.005 C
HETATM   32  C15 UNL     1      -8.439   2.662  13.629  1.00  0.00     0.000 C
HETATM   33  C16 UNL     1      -8.939   2.649  12.222  1.00  0.00     0.000 C
HETATM   34  C17 UNL     1      -7.693   2.765  11.334  1.00  0.00     0.000 C
HETATM   35  C18 UNL     1      -6.958   1.477  11.486  1.00  0.00     0.005 C
ENDBRANCH  29  30
ENDBRANCH  28  29
ENDBRANCH  27  28
ENDBRANCH   4  27
TORSDOF 13
ENDMDL