MODEL 1
REMARK VINA RESULT: -8.477234210      0.000      0.000
REMARK  14 active torsions:
REMARK  status: ('A' for Active; 'I' for Inactive)
REMARK    1  A    between atoms: C3_4  and  O2_5
REMARK    2  A    between atoms: O2_5  and  C4_6
REMARK    3  A    between atoms: C4_6  and  C5_7
REMARK    4  A    between atoms: C7_9  and  O3_10
REMARK    5  A    between atoms: C8_12  and  O4_13
REMARK    6  A    between atoms: C9_15  and  O5_16
REMARK    7  A    between atoms: O5_16  and  C10_17
REMARK    8  A    between atoms: C12_20  and  O7_21
REMARK    9  A    between atoms: C14_24  and  O8_25
REMARK   10  A    between atoms: C18_30  and  O9_31
REMARK   11  A    between atoms: O9_31  and  C19_32
REMARK   12  A    between atoms: C19_32  and  C20_33
REMARK   13  A    between atoms: C20_33  and  C21_34
REMARK   14  A    between atoms: C21_34  and  O10_35
ROOT
HETATM    1  C5  UNL     1      -5.745   0.006  15.930  1.00  0.00     0.014 C
HETATM    2  C6  UNL     1      -4.743  -0.258  14.833  1.00  0.00     0.041 C
HETATM    3  C7  UNL     1      -3.471   0.536  15.019  1.00  0.00     0.150 C
HETATM    4  C8  UNL     1      -3.118   0.773  16.451  1.00  0.00     0.178 C
HETATM    5  C9  UNL     1      -3.210  -0.502  17.275  1.00  0.00     0.189 C
HETATM    6  C14 UNL     1      -4.538  -0.433  18.022  1.00  0.00     0.150 C
HETATM    7  C15 UNL     1      -5.599  -0.958  17.078  1.00  0.00     0.041 C
ENDROOT
BRANCH   1   8
HETATM    8  C4  UNL     1      -7.128  -0.166  15.323  1.00  0.00     0.175 C
BRANCH   8   9
HETATM    9  O2  UNL     1      -7.724   1.077  15.311  1.00  0.00    -0.361 OA
BRANCH   9  10
HETATM   10  C3  UNL     1      -7.821   1.642  14.047  1.00  0.00     0.260 C
HETATM   11  O1  UNL     1      -6.718   2.378  13.689  1.00  0.00    -0.354 OA
HETATM   12  C2  UNL     1      -6.795   2.625  12.319  1.00  0.00     0.149 C
HETATM   13  C1  UNL     1      -6.861   1.349  11.507  1.00  0.00     0.042 C
HETATM   14  C18 UNL     1      -7.934   3.539  11.962  1.00  0.00     0.150 C
HETATM   15  C17 UNL     1      -8.986   3.636  13.026  1.00  0.00     0.039 C
HETATM   16  C16 UNL     1      -9.031   2.505  13.975  1.00  0.00     0.063 C
BRANCH  14  17
HETATM   17  O9  UNL     1      -8.521   3.054  10.796  1.00  0.00    -0.383 OA
BRANCH  17  18
HETATM   18  C19 UNL     1      -9.046   4.079  10.013  1.00  0.00     0.170 C
BRANCH  18  19
HETATM   19  C20 UNL     1      -7.912   5.006   9.589  1.00  0.00     0.052 C
BRANCH  19  20
HETATM   20  C21 UNL     1      -7.963   5.265   8.096  1.00  0.00     0.166 C
BRANCH  20  21
HETATM   21  O10 UNL     1      -8.127   4.094   7.387  1.00  0.00    -0.401 OA
ATOM     22  H10 UNL     1      -7.351   3.886   6.879  1.00  0.00     0.209 HD
ENDBRANCH  20  21
ENDBRANCH  19  20
ENDBRANCH  18  19
ENDBRANCH  17  18
ENDBRANCH  14  17
ENDBRANCH   9  10
ENDBRANCH   8   9
ENDBRANCH   1   8
BRANCH   3  23
HETATM   23  O3  UNL     1      -2.433  -0.174  14.417  1.00  0.00    -0.393 OA
ATOM     24  H3  UNL     1      -1.756  -0.308  15.069  1.00  0.00     0.210 HD
ENDBRANCH   3  23
BRANCH   6  25
HETATM   25  O8  UNL     1      -4.489  -1.125  19.217  1.00  0.00    -0.393 OA
ATOM     26  H8  UNL     1      -5.064  -1.881  19.210  1.00  0.00     0.210 HD
ENDBRANCH   6  25
BRANCH   4  27
HETATM   27  O4  UNL     1      -1.799   1.208  16.521  1.00  0.00    -0.390 OA
ATOM     28  H4  UNL     1      -1.568   1.339  17.433  1.00  0.00     0.210 HD
ENDBRANCH   4  27
BRANCH   5  29
HETATM   29  O5  UNL     1      -2.127  -0.662  18.135  1.00  0.00    -0.339 OA
BRANCH  29  30
HETATM   30  C10 UNL     1      -1.310  -1.775  18.158  1.00  0.00     0.096 A
HETATM   31  C11 UNL     1      -0.358  -2.070  17.211  1.00  0.00     0.181 A
HETATM   32  O6  UNL     1       0.229  -3.197  17.546  1.00  0.00    -0.298 OA
HETATM   33  C12 UNL     1      -0.257  -3.692  18.656  1.00  0.00     0.185 A
HETATM   34  C13 UNL     1      -1.247  -2.800  19.071  1.00  0.00     0.102 A
BRANCH  33  35
HETATM   35  O7  UNL     1       0.122  -4.870  19.309  1.00  0.00    -0.341 OA
ATOM     36  H7  UNL     1      -0.403  -5.410  19.889  1.00  0.00     0.220 HD
ENDBRANCH  33  35
ENDBRANCH  29  30
ENDBRANCH   5  29
TORSDOF 14
ENDMDL