MODEL 4
REMARK VINA RESULT: -8.770969221      4.092      5.778
REMARK  6 active torsions:
REMARK  status: ('A' for Active; 'I' for Inactive)
REMARK    1  A    between atoms: C2_3  and  O1_4
REMARK    2  A    between atoms: C2_3  and  C3_6
REMARK    3  A    between atoms: C2_3  and  N4_25
REMARK    4  A    between atoms: C3_6  and  C4_10
REMARK    5  A    between atoms: C7_13  and  C8_14
REMARK    6  A    between atoms: C13_19  and  N3_20
ROOT
HETATM    1  N1  UNL     1      32.181   8.904   2.548  1.00  0.00    -0.191 NA
HETATM    2  C1  UNL     1      31.264   9.161   3.214  1.00  0.00     0.134 C
HETATM    3  C2  UNL     1      30.075   9.495   4.044  1.00  0.00     0.328 C
ENDROOT
BRANCH   3   4
HETATM    4  O1  UNL     1      30.227  10.830   4.366  1.00  0.00    -0.350 OA
ATOM      5  H1  UNL     1      31.157  11.001   4.274  1.00  0.00     0.214 HD
ENDBRANCH   3   4
BRANCH   3   6
HETATM    6  C3  UNL     1      28.872   9.221   3.204  1.00  0.00     0.090 C
HETATM    7  N2  UNL     1      27.939   8.493   3.681  1.00  0.00    -0.397 N
ATOM      8  H22 UNL     1      28.048   8.108   4.619  1.00  0.00     0.156 HD
ATOM      9  H21 UNL     1      27.117   8.306   3.107  1.00  0.00     0.156 HD
BRANCH   6  10
HETATM   10  C4  UNL     1      28.716   9.772   1.860  1.00  0.00    -0.008 A
HETATM   11  C5  UNL     1      28.769  11.145   1.688  1.00  0.00     0.014 A
HETATM   12  C6  UNL     1      28.616  11.721   0.425  1.00  0.00     0.013 A
HETATM   13  C7  UNL     1      28.408  10.951  -0.697  1.00  0.00    -0.024 A
HETATM   14  C14 UNL     1      28.353   9.587  -0.545  1.00  0.00     0.013 A
HETATM   15  C15 UNL     1      28.508   9.031   0.730  1.00  0.00     0.014 A
BRANCH  13  16
HETATM   16  C8  UNL     1      28.223  11.637  -1.977  1.00  0.00     0.007 A
HETATM   17  C9  UNL     1      26.930  11.984  -2.394  1.00  0.00     0.015 A
HETATM   18  C10 UNL     1      26.633  12.590  -3.568  1.00  0.00     0.001 A
HETATM   19  C11 UNL     1      27.677  12.887  -4.421  1.00  0.00     0.002 A
HETATM   20  C12 UNL     1      28.960  12.571  -4.066  1.00  0.00     0.037 A
HETATM   21  C13 UNL     1      29.249  11.944  -2.841  1.00  0.00     0.114 A
BRANCH  21  22
HETATM   22  N3  UNL     1      30.600  11.657  -2.530  1.00  0.00    -0.115 N
HETATM   23  O2  UNL     1      31.238  10.650  -2.790  1.00  0.00    -0.532 OA
HETATM   24  O3  UNL     1      31.279  12.645  -1.811  1.00  0.00    -0.532 OA
ENDBRANCH  21  22
ENDBRANCH  13  16
ENDBRANCH   6  10
ENDBRANCH   3   6
BRANCH   3  25
HETATM   25  N4  UNL     1      30.174   8.594   5.176  1.00  0.00    -0.095 N
HETATM   26  O4  UNL     1      30.711   7.456   5.117  1.00  0.00    -0.533 OA
HETATM   27  O5  UNL     1      29.690   8.959   6.393  1.00  0.00    -0.533 OA
ENDBRANCH   3  25
TORSDOF 6
ENDMDL