MODEL 1
REMARK VINA RESULT: -8.190122429      0.000      0.000
REMARK  4 active torsions:
REMARK  status: ('A' for Active; 'I' for Inactive)
REMARK    1  A    between atoms: N2_4  and  C1_6
REMARK    2  A    between atoms: C6_11  and  C7_12
REMARK    3  A    between atoms: N4_21  and  N5_22
REMARK    4  A    between atoms: N5_22  and  N6_24
ROOT
HETATM    1  C7  UNL     1      29.395  10.003   1.648  1.00  0.00     0.278 C
HETATM    2  O1  UNL     1      29.351  11.280   2.133  1.00  0.00    -0.259 OA
HETATM    3  N3  UNL     1      28.749  12.074   1.216  1.00  0.00    -0.092 NA
HETATM    4  C8  UNL     1      29.670  12.312   0.119  1.00  0.00     0.127 C
HETATM    5  C9  UNL     1      29.006  12.979  -1.046  1.00  0.00     0.035 C
HETATM    6  C10 UNL     1      30.070  13.198  -2.121  1.00  0.00     0.075 C
HETATM    7  S1  UNL     1      31.754  12.913  -1.449  1.00  0.00    -0.167 SA
HETATM    8  C11 UNL     1      31.763  11.321  -0.519  1.00  0.00     0.097 C
HETATM    9  C12 UNL     1      30.273  11.008  -0.353  1.00  0.00     0.115 C
HETATM   10  N4  UNL     1      29.965   9.866   0.389  1.00  0.00    -0.169 NA
ENDROOT
BRANCH   1  11
HETATM   11  C6  UNL     1      29.876   9.051   2.702  1.00  0.00     0.016 A
HETATM   12  C1  UNL     1      31.173   8.979   3.107  1.00  0.00     0.057 A
HETATM   13  C2  UNL     1      31.479   8.031   4.090  1.00  0.00     0.031 A
HETATM   14  C3  UNL     1      30.531   7.201   4.635  1.00  0.00     0.002 A
HETATM   15  C4  UNL     1      29.223   7.294   4.209  1.00  0.00     0.001 A
HETATM   16  C5  UNL     1      28.904   8.232   3.232  1.00  0.00     0.013 A
BRANCH  12  17
HETATM   17  N2  UNL     1      32.194   9.826   2.586  1.00  0.00    -0.307 N
HETATM   18  N1  UNL     1      32.403  10.996   3.016  1.00  0.00    -0.345 N
ATOM     19  H12 UNL     1      31.804  11.334   3.770  1.00  0.00     0.176 HD
ATOM     20  H11 UNL     1      33.134  11.602   2.643  1.00  0.00     0.176 HD
ATOM     21  H2  UNL     1      32.783   9.471   1.832  1.00  0.00     0.186 HD
ENDBRANCH  12  17
ENDBRANCH   1  11
BRANCH  10  22
HETATM   22  N5  UNL     1      29.128   9.000  -0.394  1.00  0.00    -0.199 N
ATOM     23  H5  UNL     1      29.565   8.294  -0.986  1.00  0.00     0.208 HD
BRANCH  22  24
HETATM   24  N6  UNL     1      27.744   9.093  -0.370  1.00  0.00    -0.028 N
HETATM   25  O2  UNL     1      27.016   8.321   0.300  1.00  0.00    -0.516 OA
HETATM   26  O3  UNL     1      27.090  10.063  -1.102  1.00  0.00    -0.516 OA
ENDBRANCH  22  24
ENDBRANCH  10  22
TORSDOF 4
ENDMDL