MODEL 4
REMARK VINA RESULT: -8.117140303      1.843      3.343
REMARK  5 active torsions:
REMARK  status: ('A' for Active; 'I' for Inactive)
REMARK    1  A    between atoms: C2_3  and  O1_4
REMARK    2  A    between atoms: C3_6  and  C4_7
REMARK    3  A    between atoms: C4_7  and  C7_14
REMARK    4  A    between atoms: N2_8  and  C5_10
REMARK    5  A    between atoms: C5_10  and  C6_11
ROOT
HETATM    1  C1  UNL     1      33.043  11.971   2.150  1.00  0.00     0.159 C
HETATM    2  N1  UNL     1      31.917  11.573   1.291  1.00  0.00    -0.321 N
HETATM    3  C2  UNL     1      31.751  12.115   0.074  1.00  0.00     0.157 A
HETATM    4  C3  UNL     1      30.700  11.754  -0.753  1.00  0.00     0.060 A
HETATM    5  C10 UNL     1      29.775  10.807  -0.332  1.00  0.00     0.085 A
HETATM    6  C11 UNL     1      28.665  10.325  -1.102  1.00  0.00     0.102 C
HETATM    7  N3  UNL     1      27.760   9.896  -1.701  1.00  0.00    -0.191 NA
HETATM    8  C12 UNL     1      29.970  10.256   0.947  1.00  0.00     0.104 A
HETATM    9  C13 UNL     1      29.022   9.271   1.410  1.00  0.00     0.104 C
HETATM   10  N4  UNL     1      28.268   8.470   1.793  1.00  0.00    -0.191 NA
HETATM   11  C14 UNL     1      31.033  10.660   1.708  1.00  0.00     0.127 A
HETATM   12  S1  UNL     1      31.241  10.000   3.201  1.00  0.00    -0.059 SA
ENDROOT
BRANCH   4  13
HETATM   13  C4  UNL     1      30.569  12.268  -2.124  1.00  0.00     0.025 C
HETATM   14  N2  UNL     1      31.299  11.798  -3.042  1.00  0.00    -0.382 N
ATOM     15  H2  UNL     1      31.944  11.071  -2.732  1.00  0.00     0.160 HD
BRANCH  14  16
HETATM   16  C5  UNL     1      31.383  12.095  -4.423  1.00  0.00     0.232 C
BRANCH  16  17
HETATM   17  C6  UNL     1      32.719  12.766  -4.667  1.00  0.00     0.191 C
HETATM   18  O2  UNL     1      32.806  13.962  -4.345  1.00  0.00    -0.647 OA
HETATM   19  O3  UNL     1      33.805  12.133  -5.212  1.00  0.00    -0.647 OA
ENDBRANCH  16  17
ENDBRANCH  14  16
BRANCH  13  20
HETATM   20  C7  UNL     1      29.656  13.441  -2.386  1.00  0.00     0.036 A
HETATM   21  C8  UNL     1      29.165  14.184  -1.195  1.00  0.00     0.011 A
HETATM   22  C9  UNL     1      30.125  14.828  -2.137  1.00  0.00     0.011 A
ENDBRANCH  13  20
ENDBRANCH   4  13
BRANCH   3  23
HETATM   23  O1  UNL     1      32.662  13.063  -0.342  1.00  0.00    -0.345 OA
ATOM     24  H1  UNL     1      32.493  13.972  -0.119  1.00  0.00     0.219 HD
ENDBRANCH   3  23
TORSDOF 5
ENDMDL