MODEL 4
REMARK VINA RESULT: -8.657205746      1.363      1.835
REMARK  6 active torsions:
REMARK  status: ('A' for Active; 'I' for Inactive)
REMARK    1  A    between atoms: C2_2  and  C3_3
REMARK    2  A    between atoms: C9_9  and  C10_10
REMARK    3  A    between atoms: C11_14  and  C12_15
REMARK    4  A    between atoms: C14_17  and  O2_18
REMARK    5  A    between atoms: C15_20  and  C16_21
REMARK    6  A    between atoms: C16_21  and  O3_22
ROOT
HETATM    1  C10 UNL     1      28.891  11.111   1.646  1.00  0.00     0.161 A
HETATM    2  N1  UNL     1      27.758  10.628   2.177  1.00  0.00    -0.241 N
ATOM      3  H1  UNL     1      26.816  10.858   1.859  1.00  0.00     0.196 HD
HETATM    4  O1  UNL     1      28.037   9.837   3.142  1.00  0.00    -0.220 OA
HETATM    5  C11 UNL     1      29.346   9.748   3.307  1.00  0.00     0.177 A
HETATM    6  N2  UNL     1      29.888  10.544   2.374  1.00  0.00    -0.319 N
ATOM      7  H2  UNL     1      30.887  10.698   2.234  1.00  0.00     0.169 HD
ENDROOT
BRANCH   1   8
HETATM    8  C9  UNL     1      28.964  12.024   0.552  1.00  0.00     0.115 C
HETATM    9  C8  UNL     1      28.155  11.742  -0.487  1.00  0.00     0.048 C
HETATM   10  C7  UNL     1      27.928  12.442  -1.823  1.00  0.00     0.053 C
HETATM   11  C6  UNL     1      28.897  13.478  -1.862  1.00  0.00    -0.156 C
HETATM   12  C5  UNL     1      29.655  14.589  -2.144  1.00  0.00     0.087 C
HETATM   13  C4  UNL     1      30.636  14.741  -0.943  1.00  0.00     0.044 C
HETATM   14  C3  UNL     1      30.173  14.378   0.389  1.00  0.00     0.129 C
HETATM   15  O5  UNL     1      29.886  13.065   0.772  1.00  0.00    -0.342 OA
BRANCH  14  16
HETATM   16  C2  UNL     1      29.370  15.440   1.112  1.00  0.00     0.028 C
HETATM   17  C1  UNL     1      29.971  16.806   0.826  1.00  0.00     0.007 C
ENDBRANCH  14  16
ENDBRANCH   1   8
BRANCH   5  18
HETATM   18  C12 UNL     1      29.979   8.915   4.340  1.00  0.00     0.201 C
HETATM   19  C13 UNL     1      30.049   7.489   3.889  1.00  0.00     0.074 C
HETATM   20  C14 UNL     1      29.520   6.716   5.062  1.00  0.00     0.152 C
HETATM   21  C15 UNL     1      29.528   7.718   6.169  1.00  0.00     0.174 C
HETATM   22  O4  UNL     1      29.288   8.927   5.548  1.00  0.00    -0.368 OA
BRANCH  20  23
HETATM   23  O2  UNL     1      28.241   6.268   4.739  1.00  0.00    -0.393 OA
ATOM     24  H2  UNL     1      28.328   5.450   4.264  1.00  0.00     0.210 HD
ENDBRANCH  20  23
BRANCH  21  25
HETATM   25  C16 UNL     1      28.454   7.451   7.205  1.00  0.00     0.198 C
BRANCH  25  26
HETATM   26  O3  UNL     1      27.691   8.573   7.455  1.00  0.00    -0.398 OA
ATOM     27  H3  UNL     1      26.786   8.352   7.637  1.00  0.00     0.209 HD
ENDBRANCH  25  26
ENDBRANCH  21  25
ENDBRANCH   5  18
TORSDOF 6
ENDMDL