MODEL 4
REMARK VINA RESULT: -8.833651680      2.365      8.053
REMARK  5 active torsions:
REMARK  status: ('A' for Active; 'I' for Inactive)
REMARK    1  A    between atoms: N3_5  and  O1_6
REMARK    2  A    between atoms: N3_5  and  C2_8
REMARK    3  A    between atoms: C5_11  and  N4_12
REMARK       I    between atoms: N4_12  and  C6_14
REMARK       I    between atoms: C6_14  and  N5_16
REMARK    4  A    between atoms: N5_16  and  N6_18
REMARK    5  A    between atoms: C12_24  and  N7_25
ROOT
HETATM    1  N1  UNL     1      27.040  12.277  -3.717  1.00  0.00    -0.170 NA
HETATM    2  C1  UNL     1      28.185  12.463  -3.854  1.00  0.00     0.199 C
HETATM    3  N2  UNL     1      29.479  12.688  -4.038  1.00  0.00    -0.209 N
ATOM      4  H2  UNL     1      29.616  13.248  -4.880  1.00  0.00     0.202 HD
HETATM    5  N3  UNL     1      30.538  12.448  -3.536  1.00  0.00    -0.155 N
ENDROOT
BRANCH   5   6
HETATM    6  O1  UNL     1      31.650  13.003  -4.247  1.00  0.00    -0.267 OA
ATOM      7  H1  UNL     1      32.479  12.586  -4.044  1.00  0.00     0.247 HD
ENDBRANCH   5   6
BRANCH   5   8
HETATM    8  C2  UNL     1      30.921  11.721  -2.372  1.00  0.00     0.084 A
HETATM    9  C3  UNL     1      30.928  10.350  -2.319  1.00  0.00     0.036 A
HETATM   10  C4  UNL     1      31.316   9.732  -1.144  1.00  0.00     0.034 A
HETATM   11  C5  UNL     1      31.707  10.393   0.006  1.00  0.00     0.069 A
HETATM   12  C12 UNL     1      31.699  11.776  -0.057  1.00  0.00     0.132 A
HETATM   13  C13 UNL     1      31.306  12.421  -1.242  1.00  0.00     0.072 A
BRANCH  11  14
HETATM   14  N4  UNL     1      32.022   9.746   1.198  1.00  0.00    -0.305 N
HETATM   15  C6  UNL     1      31.115   9.360   2.188  1.00  0.00     0.339 C
HETATM   16  O2  UNL     1      29.903   9.543   2.123  1.00  0.00    -0.245 OA
HETATM   17  N5  UNL     1      31.613   8.709   3.356  1.00  0.00    -0.254 N
ATOM     18  H5  UNL     1      32.613   8.534   3.457  1.00  0.00     0.191 HD
ATOM     19  H4  UNL     1      33.006   9.536   1.365  1.00  0.00     0.171 HD
BRANCH  17  20
HETATM   20  N6  UNL     1      30.750   8.323   4.335  1.00  0.00    -0.324 N
HETATM   21  C7  UNL     1      31.055   8.676   5.671  1.00  0.00     0.142 C
HETATM   22  C8  UNL     1      29.930   8.536   6.642  1.00  0.00     0.021 C
HETATM   23  C9  UNL     1      28.837   7.626   6.271  1.00  0.00     0.003 C
HETATM   24  C10 UNL     1      28.784   7.139   4.869  1.00  0.00     0.021 C
HETATM   25  C11 UNL     1      30.138   7.047   4.188  1.00  0.00     0.142 C
ENDBRANCH  17  20
ENDBRANCH  11  14
BRANCH  12  26
HETATM   26  N7  UNL     1      32.093  12.558   1.048  1.00  0.00    -0.113 N
HETATM   27  O3  UNL     1      31.511  12.722   2.117  1.00  0.00    -0.532 OA
HETATM   28  O4  UNL     1      33.340  13.190   0.924  1.00  0.00    -0.532 OA
ENDBRANCH  12  26
ENDBRANCH   5   8
TORSDOF 5
ENDMDL