MODEL 4
REMARK VINA RESULT: -7.862243229      0.988      1.419
REMARK  5 active torsions:
REMARK  status: ('A' for Active; 'I' for Inactive)
REMARK    1  A    between atoms: C2_2  and  N1_5
REMARK       I    between atoms: N1_5  and  C5_7
REMARK       I    between atoms: C5_7  and  N2_9
REMARK       I    between atoms: N2_9  and  C6_11
REMARK    2  A    between atoms: C6_11  and  C7_13
REMARK    3  A    between atoms: C7_13  and  S1_14
REMARK    4  A    between atoms: S1_14  and  C8_15
REMARK    5  A    between atoms: C9_20  and  C10_21
ROOT
HETATM    1  C7  UNL     1      30.159   8.681   4.682  1.00  0.00     0.186 C
ENDROOT
BRANCH   1   2
HETATM    2  C6  UNL     1      30.724   9.851   3.976  1.00  0.00     0.235 C
HETATM    3  N2  UNL     1      31.718   9.782   2.982  1.00  0.00    -0.279 N
HETATM    4  C5  UNL     1      32.320  10.830   2.275  1.00  0.00     0.323 C
ATOM      5  H2  UNL     1      32.042   8.844   2.745  1.00  0.00     0.173 HD
HETATM    6  N1  UNL     1      32.072  12.208   2.382  1.00  0.00    -0.335 N
HETATM    7  O1  UNL     1      33.224  10.517   1.405  1.00  0.00    -0.247 OA
ATOM      8  H1  UNL     1      31.370  12.524   3.051  1.00  0.00     0.165 HD
HETATM    9  O2  UNL     1      30.261  10.972   4.303  1.00  0.00    -0.272 OA
BRANCH   6  10
HETATM   10  C2  UNL     1      32.763  13.204   1.586  1.00  0.00     0.023 C
HETATM   11  C1  UNL     1      32.278  14.570   2.068  1.00  0.00     0.037 C
HETATM   12  C3  UNL     1      32.455  13.132   0.118  1.00  0.00     0.037 C
HETATM   13  C4  UNL     1      34.255  13.090   1.753  1.00  0.00     0.037 C
ENDBRANCH   6  10
ENDBRANCH   1   2
BRANCH   1  14
HETATM   14  S1  UNL     1      29.087   7.717   3.616  1.00  0.00    -0.075 SA
BRANCH  14  15
HETATM   15  C8  UNL     1      28.424   8.717   2.296  1.00  0.00     0.203 A
HETATM   16  N3  UNL     1      27.154   8.880   1.954  1.00  0.00    -0.272 N
HETATM   17  N4  UNL     1      27.034   9.701   0.916  1.00  0.00    -0.281 N
ATOM     18  H3  UNL     1      26.369   8.432   2.427  1.00  0.00     0.189 HD
HETATM   19  C9  UNL     1      28.287  10.060   0.605  1.00  0.00     0.145 A
ATOM     20  H4  UNL     1      26.172   9.995   0.455  1.00  0.00     0.189 HD
HETATM   21  O3  UNL     1      29.106   9.460   1.444  1.00  0.00    -0.272 OA
BRANCH  19  22
HETATM   22  C10 UNL     1      28.756  10.980  -0.498  1.00  0.00     0.062 C
HETATM   23  C11 UNL     1      28.816  12.398  -0.064  1.00  0.00     0.013 C
HETATM   24  C12 UNL     1      28.060  13.151  -1.176  1.00  0.00     0.001 C
HETATM   25  C13 UNL     1      26.923  12.173  -1.394  1.00  0.00     0.001 C
HETATM   26  C14 UNL     1      27.660  10.870  -1.568  1.00  0.00     0.013 C
ENDBRANCH  19  22
ENDBRANCH  14  15
ENDBRANCH   1  14
TORSDOF 5
ENDMDL