MODEL 1
REMARK VINA RESULT: -8.692818273      0.000      0.000
REMARK  5 active torsions:
REMARK  status: ('A' for Active; 'I' for Inactive)
REMARK    1  A    between atoms: C1_4  and  S1_6
REMARK    2  A    between atoms: S1_6  and  C2_7
REMARK    3  A    between atoms: C2_7  and  C3_8
REMARK    4  A    between atoms: C3_8  and  C4_10
REMARK    5  A    between atoms: C8_21  and  C9_22
ROOT
HETATM    1  C4  UNL     1      29.136  12.153  -1.745  1.00  0.00     0.085 C
HETATM    2  N3  UNL     1      28.165  11.390  -2.059  1.00  0.00    -0.286 N
ATOM      3  H3  UNL     1      28.044  11.288  -3.067  1.00  0.00     0.188 HD
HETATM    4  N4  UNL     1      27.236  10.668  -1.321  1.00  0.00    -0.247 N
ATOM      5  H4  UNL     1      26.303  10.748  -1.725  1.00  0.00     0.208 HD
HETATM    6  N5  UNL     1      27.225   9.936  -0.286  1.00  0.00    -0.322 N
ATOM      7  H5  UNL     1      26.316   9.554  -0.026  1.00  0.00     0.181 HD
HETATM    8  C5  UNL     1      28.344   9.564   0.589  1.00  0.00     0.148 C
HETATM    9  C6  UNL     1      28.655  10.816   1.369  1.00  0.00     0.100 C
HETATM   10  C7  UNL     1      29.599  11.713   0.666  1.00  0.00     0.139 C
HETATM   11  O2  UNL     1      30.678  11.668   1.283  1.00  0.00    -0.297 OA
HETATM   12  C8  UNL     1      29.719  12.619  -0.473  1.00  0.00     0.114 C
ENDROOT
BRANCH   1  13
HETATM   13  C3  UNL     1      29.831  12.688  -2.911  1.00  0.00     0.183 C
HETATM   14  O1  UNL     1      29.149  13.044  -3.899  1.00  0.00    -0.290 OA
BRANCH  13  15
HETATM   15  C2  UNL     1      31.318  12.792  -2.891  1.00  0.00     0.167 C
BRANCH  15  16
HETATM   16  S1  UNL     1      31.964  11.780  -4.242  1.00  0.00    -0.090 SA
BRANCH  16  17
HETATM   17  C1  UNL     1      33.071  12.718  -5.275  1.00  0.00     0.148 C
HETATM   18  N1  UNL     1      32.683  13.845  -5.735  1.00  0.00    -0.382 N
ATOM     19  H12 UNL     1      33.318  14.382  -6.327  1.00  0.00     0.157 HD
ATOM     20  H11 UNL     1      31.753  14.198  -5.511  1.00  0.00     0.157 HD
HETATM   21  N2  UNL     1      34.365  12.228  -5.586  1.00  0.00    -0.075 NA
ENDBRANCH  16  17
ENDBRANCH  15  16
ENDBRANCH  13  15
ENDBRANCH   1  13
BRANCH  12  22
HETATM   22  C9  UNL     1      29.290  14.037  -0.166  1.00  0.00     0.003 C
HETATM   23  C10 UNL     1      28.051  14.175   0.638  1.00  0.00     0.006 C
HETATM   24  C11 UNL     1      28.173  15.192   1.756  1.00  0.00     0.000 C
HETATM   25  C12 UNL     1      28.932  16.420   1.398  1.00  0.00     0.000 C
HETATM   26  C13 UNL     1      30.072  16.242   0.454  1.00  0.00     0.000 C
HETATM   27  C14 UNL     1      30.471  14.779   0.485  1.00  0.00     0.006 C
ENDBRANCH  12  22
TORSDOF 5
ENDMDL