MODEL 4
REMARK VINA RESULT: -7.379768186      3.648      7.825
REMARK  6 active torsions:
REMARK  status: ('A' for Active; 'I' for Inactive)
REMARK    1  A    between atoms: C1_2  and  N2_4
REMARK    2  A    between atoms: N3_6  and  C2_8
REMARK    3  A    between atoms: C3_9  and  O1_10
REMARK    4  A    between atoms: N4_12  and  C4_13
REMARK    5  A    between atoms: C4_13  and  C5_14
REMARK    6  A    between atoms: C5_14  and  N5_15
ROOT
HETATM    1  C2  UNL     1      29.249   9.899   2.957  1.00  0.00     0.135 A
HETATM    2  C3  UNL     1      28.346  10.174   1.955  1.00  0.00     0.174 A
HETATM    3  N4  UNL     1      28.928  10.986   1.065  1.00  0.00    -0.322 N
HETATM    4  C10 UNL     1      30.181  11.273   1.420  1.00  0.00     0.075 A
HETATM    5  C11 UNL     1      31.363  11.948   1.131  1.00  0.00     0.057 A
HETATM    6  C12 UNL     1      32.212  11.635   2.159  1.00  0.00     0.145 A
HETATM    7  O3  UNL     1      31.625  10.840   3.015  1.00  0.00    -0.318 OA
HETATM    8  C13 UNL     1      30.399  10.604   2.598  1.00  0.00     0.134 A
ENDROOT
BRANCH   3   9
HETATM    9  C4  UNL     1      28.277  11.494  -0.122  1.00  0.00     0.161 C
BRANCH   9  10
HETATM   10  C5  UNL     1      28.308  10.527  -1.273  1.00  0.00     0.292 C
BRANCH  10  11
HETATM   11  N5  UNL     1      28.609  11.270  -2.489  1.00  0.00     0.094 N
HETATM   12  C6  UNL     1      27.452  12.082  -2.891  1.00  0.00     0.298 C
HETATM   13  C7  UNL     1      27.845  12.754  -4.194  1.00  0.00     0.198 C
HETATM   14  O2  UNL     1      28.971  13.561  -4.030  1.00  0.00    -0.388 OA
HETATM   15  C8  UNL     1      30.061  12.828  -3.559  1.00  0.00     0.198 C
HETATM   16  C9  UNL     1      29.706  12.221  -2.220  1.00  0.00     0.298 C
ENDBRANCH  10  11
ENDBRANCH   9  10
ENDBRANCH   3   9
BRANCH   2  17
HETATM   17  O1  UNL     1      27.041   9.656   1.927  1.00  0.00    -0.344 OA
ATOM     18  H1  UNL     1      26.306  10.112   1.532  1.00  0.00     0.219 HD
ENDBRANCH   2  17
BRANCH   1  19
HETATM   19  N3  UNL     1      28.980   9.080   4.081  1.00  0.00    -0.292 N
HETATM   20  N2  UNL     1      28.855   7.815   3.941  1.00  0.00    -0.278 N
ATOM     21  H2  UNL     1      28.944   7.363   3.031  1.00  0.00     0.189 HD
ATOM     22  H3  UNL     1      28.886   9.501   5.006  1.00  0.00     0.187 HD
BRANCH  20  23
HETATM   23  C1  UNL     1      28.586   7.076   5.123  1.00  0.00     0.199 C
HETATM   24  N1  UNL     1      27.875   5.865   5.061  1.00  0.00    -0.068 NA
HETATM   25  S1  UNL     1      29.095   7.607   6.597  1.00  0.00    -0.043 SA
ENDBRANCH  20  23
ENDBRANCH   1  19
TORSDOF 6
ENDMDL