MODEL 3
REMARK VINA RESULT: -7.867920660      2.735      4.862
REMARK  6 active torsions:
REMARK  status: ('A' for Active; 'I' for Inactive)
REMARK    1  A    between atoms: N1_2  and  N2_4
REMARK    2  A    between atoms: C6_10  and  C7_11
REMARK    3  A    between atoms: C7_11  and  C8_12
REMARK    4  A    between atoms: C8_12  and  O1_13
REMARK    5  A    between atoms: C12_18  and  N3_19
REMARK    6  A    between atoms: C14_23  and  N4_24
ROOT
HETATM    1  N2  UNL     1      32.625  15.508  -0.696  1.00  0.00    -0.309 N
ATOM      2  H2  UNL     1      33.245  14.956  -1.288  1.00  0.00     0.186 HD
HETATM    3  C2  UNL     1      31.363  15.252  -0.670  1.00  0.00     0.037 C
HETATM    4  C3  UNL     1      30.586  16.090   0.196  1.00  0.00     0.071 C
HETATM    5  C4  UNL     1      29.408  15.424   0.968  1.00  0.00     0.086 C
HETATM    6  C5  UNL     1      29.152  14.221   0.374  1.00  0.00    -0.173 C
HETATM    7  C6  UNL     1      29.027  13.005  -0.379  1.00  0.00     0.090 C
HETATM    8  C9  UNL     1      30.035  13.165  -1.501  1.00  0.00     0.002 A
HETATM    9  C10 UNL     1      31.066  14.121  -1.591  1.00  0.00     0.000 A
HETATM   10  C11 UNL     1      31.927  14.060  -2.666  1.00  0.00     0.050 A
HETATM   11  C12 UNL     1      31.799  13.089  -3.643  1.00  0.00     0.106 A
HETATM   12  C13 UNL     1      30.781  12.196  -3.498  1.00  0.00     0.072 A
HETATM   13  C14 UNL     1      29.864  12.205  -2.422  1.00  0.00     0.113 A
ENDROOT
BRANCH   1  14
HETATM   14  N1  UNL     1      33.141  16.534   0.081  1.00  0.00    -0.341 N
HETATM   15  C1  UNL     1      34.389  17.217  -0.207  1.00  0.00     0.167 C
ATOM     16  H1  UNL     1      32.613  16.825   0.903  1.00  0.00     0.179 HD
ENDBRANCH   1  14
BRANCH   7  17
HETATM   17  C7  UNL     1      29.378  11.795   0.503  1.00  0.00     0.047 C
BRANCH  17  18
HETATM   18  C8  UNL     1      28.045  11.360   1.101  1.00  0.00     0.165 C
BRANCH  18  19
HETATM   19  O1  UNL     1      27.263  10.812   0.117  1.00  0.00    -0.401 OA
ATOM     20  H1  UNL     1      27.338  11.334  -0.673  1.00  0.00     0.209 HD
ENDBRANCH  18  19
ENDBRANCH  17  18
ENDBRANCH   7  17
BRANCH  13  21
HETATM   21  N4  UNL     1      28.907  11.202  -2.463  1.00  0.00    -0.115 N
HETATM   22  O4  UNL     1      27.742  11.307  -2.778  1.00  0.00    -0.532 OA
HETATM   23  O5  UNL     1      29.326   9.904  -2.182  1.00  0.00    -0.532 OA
ENDBRANCH  13  21
BRANCH  11  24
HETATM   24  N3  UNL     1      32.704  13.053  -4.736  1.00  0.00    -0.116 N
HETATM   25  O2  UNL     1      33.052  14.097  -5.316  1.00  0.00    -0.532 OA
HETATM   26  O3  UNL     1      33.230  11.871  -5.195  1.00  0.00    -0.532 OA
ENDBRANCH  11  24
TORSDOF 6
ENDMDL