MODEL 1
REMARK VINA RESULT: -9.559236401      0.000      0.000
REMARK  4 active torsions:
REMARK  status: ('A' for Active; 'I' for Inactive)
REMARK    1  A    between atoms: C5_5  and  C6_6
REMARK    2  A    between atoms: C7_9  and  C8_10
REMARK    3  A    between atoms: C9_12  and  N2_13
REMARK       I    between atoms: N2_13  and  C10_15
REMARK       I    between atoms: C10_15  and  N3_17
REMARK    4  A    between atoms: N3_17  and  N4_19
ROOT
HETATM    1  C6  UNL     1      28.684  12.670   0.519  1.00  0.00     0.057 A
HETATM    2  N1  UNL     1      28.065  11.688  -0.068  1.00  0.00    -0.349 N
ATOM      3  H1  UNL     1      27.353  11.894  -0.769  1.00  0.00     0.166 HD
HETATM    4  C7  UNL     1      28.338  10.443   0.222  1.00  0.00     0.105 A
HETATM    5  C9  UNL     1      29.300  10.220   1.166  1.00  0.00     0.110 A
HETATM    6  S1  UNL     1      29.746  11.844   1.572  1.00  0.00    -0.056 SA
ENDROOT
BRANCH   5   7
HETATM    7  N2  UNL     1      29.837   9.008   1.714  1.00  0.00    -0.299 N
HETATM    8  C10 UNL     1      29.264   8.587   2.978  1.00  0.00     0.340 C
HETATM    9  O2  UNL     1      28.366   9.257   3.522  1.00  0.00    -0.245 OA
HETATM   10  N3  UNL     1      29.757   7.397   3.566  1.00  0.00    -0.243 N
ATOM     11  H3  UNL     1      30.491   6.899   3.065  1.00  0.00     0.192 HD
ATOM     12  H2  UNL     1      30.573   8.479   1.246  1.00  0.00     0.171 HD
BRANCH  10  13
HETATM   13  N4  UNL     1      29.321   6.849   4.773  1.00  0.00    -0.241 N
HETATM   14  C11 UNL     1      29.918   6.857   5.976  1.00  0.00     0.224 A
HETATM   15  N5  UNL     1      29.132   6.205   6.862  1.00  0.00    -0.293 N
HETATM   16  N6  UNL     1      28.075   5.801   6.231  1.00  0.00    -0.293 N
ATOM     17  H5  UNL     1      29.335   6.057   7.851  1.00  0.00     0.187 HD
HETATM   18  C12 UNL     1      28.155   6.176   4.956  1.00  0.00     0.224 A
ATOM     19  H6  UNL     1      27.303   5.278   6.646  1.00  0.00     0.187 HD
ENDBRANCH  10  13
ENDBRANCH   5   7
BRANCH   4  20
HETATM   20  C8  UNL     1      27.620   9.332  -0.460  1.00  0.00     0.290 C
HETATM   21  O1  UNL     1      27.084   8.430   0.193  1.00  0.00    -0.300 OA
ENDBRANCH   4  20
BRANCH   1  22
HETATM   22  C5  UNL     1      28.526  14.166   0.337  1.00  0.00     0.043 C
HETATM   23  C4  UNL     1      28.672  14.810   1.682  1.00  0.00     0.011 C
HETATM   24  C3  UNL     1      28.766  16.311   1.407  1.00  0.00     0.005 C
HETATM   25  C2  UNL     1      30.177  16.500   0.873  1.00  0.00    -0.019 C
HETATM   26  C1  UNL     1      30.451  17.973   0.640  1.00  0.00     0.010 C
HETATM   27  C14 UNL     1      30.461  15.649  -0.316  1.00  0.00     0.005 C
HETATM   28  C13 UNL     1      29.408  14.699  -0.718  1.00  0.00     0.011 C
ENDBRANCH   1  22
TORSDOF 4
ENDMDL