MODEL 1
REMARK VINA RESULT: -9.145268594      0.000      0.000
REMARK  12 active torsions:
REMARK  status: ('A' for Active; 'I' for Inactive)
REMARK    1  A    between atoms: C2_2  and  C3_3
REMARK    2  A    between atoms: C3_3  and  C4_4
REMARK    3  A    between atoms: C4_4  and  C5_5
REMARK    4  A    between atoms: C6_6  and  C7_7
REMARK    5  A    between atoms: C10_12  and  O3_13
REMARK    6  A    between atoms: C17_20  and  O4_21
REMARK    7  A    between atoms: O4_21  and  C18_22
REMARK    8  A    between atoms: C19_24  and  C20_25
REMARK    9  A    between atoms: C20_25  and  O6_26
REMARK   10  A    between atoms: C21_28  and  O7_29
REMARK   11  A    between atoms: C22_31  and  O8_32
REMARK   12  A    between atoms: C23_34  and  O9_35
ROOT
HETATM    1  C7  UNL     1      28.992  11.938  -0.751  1.00  0.00     0.140 C
HETATM    2  C8  UNL     1      28.022  10.786  -0.849  1.00  0.00     0.271 C
HETATM    3  O1  UNL     1      26.894  10.918  -1.382  1.00  0.00    -0.264 OA
HETATM    4  O2  UNL     1      28.444   9.596  -0.324  1.00  0.00    -0.317 OA
HETATM    5  C9  UNL     1      29.641   9.400   0.405  1.00  0.00     0.224 C
HETATM    6  C10 UNL     1      30.022  10.567   1.231  1.00  0.00     0.133 C
HETATM    7  C12 UNL     1      29.658  11.880   0.568  1.00  0.00    -0.022 C
HETATM    8  C13 UNL     1      29.975  12.966   1.256  1.00  0.00    -0.077 C
HETATM    9  C14 UNL     1      29.683  14.332   0.756  1.00  0.00     0.044 C
HETATM   10  C15 UNL     1      30.658  12.840   2.583  1.00  0.00     0.037 C
HETATM   11  C16 UNL     1      31.560  11.674   2.707  1.00  0.00     0.040 C
HETATM   12  C17 UNL     1      31.505  10.704   1.512  1.00  0.00     0.166 C
ENDROOT
BRANCH  12  13
HETATM   13  O4  UNL     1      32.040   9.542   1.939  1.00  0.00    -0.350 OA
BRANCH  13  14
HETATM   14  C18 UNL     1      31.748   9.075   3.174  1.00  0.00     0.292 C
HETATM   15  O5  UNL     1      31.122   7.839   3.182  1.00  0.00    -0.348 OA
HETATM   16  C19 UNL     1      30.787   7.322   4.366  1.00  0.00     0.179 C
HETATM   17  C21 UNL     1      31.391   7.810   5.608  1.00  0.00     0.180 C
HETATM   18  C22 UNL     1      32.212   9.058   5.518  1.00  0.00     0.183 C
HETATM   19  C23 UNL     1      32.902   8.957   4.142  1.00  0.00     0.204 C
BRANCH  16  20
HETATM   20  C20 UNL     1      29.258   7.416   4.512  1.00  0.00     0.198 C
BRANCH  20  21
HETATM   21  O6  UNL     1      28.882   8.283   5.505  1.00  0.00    -0.398 OA
ATOM     22  H6  UNL     1      29.600   8.496   6.090  1.00  0.00     0.209 HD
ENDBRANCH  20  21
ENDBRANCH  16  20
BRANCH  17  23
HETATM   23  O7  UNL     1      32.248   6.841   6.190  1.00  0.00    -0.390 OA
ATOM     24  H7  UNL     1      32.992   7.244   6.622  1.00  0.00     0.210 HD
ENDBRANCH  17  23
BRANCH  18  25
HETATM   25  O8  UNL     1      31.426  10.196   5.589  1.00  0.00    -0.390 OA
ATOM     26  H8  UNL     1      31.880  10.959   5.250  1.00  0.00     0.210 HD
ENDBRANCH  18  25
BRANCH  19  27
HETATM   27  O9  UNL     1      33.425   7.648   4.163  1.00  0.00    -0.388 OA
ATOM     28  H9  UNL     1      34.283   7.624   4.571  1.00  0.00     0.210 HD
ENDBRANCH  19  27
ENDBRANCH  13  14
ENDBRANCH  12  13
BRANCH   6  29
HETATM   29  O3  UNL     1      29.426  10.436   2.481  1.00  0.00    -0.376 OA
HETATM   30  C11 UNL     1      28.136   9.981   2.478  1.00  0.00     0.203 C
ENDBRANCH   6  29
BRANCH   1  31
HETATM   31  C6  UNL     1      29.931  11.749  -1.885  1.00  0.00    -0.012 C
HETATM   32  C5  UNL     1      29.893  12.378  -3.038  1.00  0.00    -0.029 C
BRANCH  32  33
HETATM   33  C4  UNL     1      28.929  13.394  -3.471  1.00  0.00     0.027 C
BRANCH  33  34
HETATM   34  C3  UNL     1      27.666  12.786  -4.058  1.00  0.00     0.003 C
BRANCH  34  35
HETATM   35  C2  UNL     1      27.278  13.591  -5.296  1.00  0.00    -0.004 C
HETATM   36  C1  UNL     1      26.393  12.822  -6.223  1.00  0.00     0.005 C
ENDBRANCH  34  35
ENDBRANCH  33  34
ENDBRANCH  32  33
ENDBRANCH   1  31
TORSDOF 12
ENDMDL