MODEL 4
REMARK VINA RESULT: -7.701506178      2.862      6.860
REMARK  17 active torsions:
REMARK  status: ('A' for Active; 'I' for Inactive)
REMARK    1  A    between atoms: C2_2  and  C3_3
REMARK    2  A    between atoms: C3_3  and  C4_4
REMARK    3  A    between atoms: C4_4  and  C5_5
REMARK    4  A    between atoms: C5_5  and  N1_6
REMARK    5  A    between atoms: N1_6  and  C6_8
REMARK    6  A    between atoms: C6_8  and  O1_10
REMARK    7  A    between atoms: O1_10  and  C7_11
REMARK    8  A    between atoms: C8_12  and  O2_13
REMARK    9  A    between atoms: O2_13  and  C9_14
REMARK   10  A    between atoms: C10_16  and  C11_17
REMARK   11  A    between atoms: C11_17  and  O4_18
REMARK   12  A    between atoms: C12_20  and  O5_21
REMARK   13  A    between atoms: C13_23  and  O6_24
REMARK   14  A    between atoms: C14_26  and  O7_27
REMARK   15  A    between atoms: C18_33  and  N2_34
REMARK   16  A    between atoms: N2_34  and  N3_36
REMARK   17  A    between atoms: N3_36  and  N4_37
ROOT
HETATM    1  C7  UNL     1      30.245  10.889   0.908  1.00  0.00     0.214 C
HETATM    2  C8  UNL     1      30.100   9.556   0.259  1.00  0.00     0.295 C
HETATM    3  O8  UNL     1      29.816   8.713   1.330  1.00  0.00    -0.346 OA
HETATM    4  C15 UNL     1      28.881   9.412   2.112  1.00  0.00     0.082 C
HETATM    5  C16 UNL     1      27.500   9.321   1.547  1.00  0.00     0.048 C
HETATM    6  C17 UNL     1      28.955   8.867   3.530  1.00  0.00     0.048 C
HETATM    7  C18 UNL     1      29.319  10.847   2.100  1.00  0.00     0.182 C
ENDROOT
BRANCH   2   8
HETATM    8  O2  UNL     1      29.027   9.599  -0.627  1.00  0.00    -0.326 OA
BRANCH   8   9
HETATM    9  C9  UNL     1      28.997  10.755  -1.387  1.00  0.00     0.294 C
HETATM   10  O3  UNL     1      29.915  10.742  -2.429  1.00  0.00    -0.348 OA
HETATM   11  C10 UNL     1      30.259  12.065  -2.719  1.00  0.00     0.179 C
HETATM   12  C12 UNL     1      29.024  12.928  -2.828  1.00  0.00     0.180 C
HETATM   13  C13 UNL     1      27.782  12.086  -3.044  1.00  0.00     0.183 C
HETATM   14  C14 UNL     1      27.654  11.106  -1.910  1.00  0.00     0.204 C
BRANCH  11  15
HETATM   15  C11 UNL     1      31.058  12.182  -3.979  1.00  0.00     0.198 C
BRANCH  15  16
HETATM   16  O4  UNL     1      31.910  13.273  -4.004  1.00  0.00    -0.398 OA
ATOM     17  H4  UNL     1      32.599  13.209  -4.655  1.00  0.00     0.209 HD
ENDBRANCH  15  16
ENDBRANCH  11  15
BRANCH  12  18
HETATM   18  O5  UNL     1      29.143  13.726  -3.957  1.00  0.00    -0.390 OA
ATOM     19  H5  UNL     1      28.833  13.232  -4.708  1.00  0.00     0.210 HD
ENDBRANCH  12  18
BRANCH  13  20
HETATM   20  O6  UNL     1      26.699  12.967  -3.032  1.00  0.00    -0.390 OA
ATOM     21  H6  UNL     1      25.918  12.435  -3.129  1.00  0.00     0.210 HD
ENDBRANCH  13  20
BRANCH  14  22
HETATM   22  O7  UNL     1      26.777  11.561  -0.923  1.00  0.00    -0.388 OA
ATOM     23  H7  UNL     1      26.335  12.370  -1.155  1.00  0.00     0.210 HD
ENDBRANCH  14  22
ENDBRANCH   8   9
ENDBRANCH   2   8
BRANCH   1  24
HETATM   24  O1  UNL     1      31.537  11.278   1.224  1.00  0.00    -0.314 OA
BRANCH  24  25
HETATM   25  C6  UNL     1      32.057  12.540   1.319  1.00  0.00     0.210 C
HETATM   26  S1  UNL     1      33.534  12.718   1.985  1.00  0.00    -0.033 SA
BRANCH  25  27
HETATM   27  N1  UNL     1      31.379  13.700   0.869  1.00  0.00    -0.361 N
ATOM     28  H1  UNL     1      30.940  13.687  -0.052  1.00  0.00     0.162 HD
BRANCH  27  29
HETATM   29  C5  UNL     1      31.287  14.908   1.671  1.00  0.00     0.122 C
BRANCH  29  30
HETATM   30  C4  UNL     1      31.820  16.109   0.972  1.00  0.00     0.020 C
BRANCH  30  31
HETATM   31  C3  UNL     1      30.632  16.986   0.594  1.00  0.00     0.001 C
BRANCH  31  32
HETATM   32  C2  UNL     1      31.085  18.228  -0.144  1.00  0.00    -0.004 C
HETATM   33  C1  UNL     1      32.535  18.457   0.229  1.00  0.00     0.005 C
ENDBRANCH  31  32
ENDBRANCH  30  31
ENDBRANCH  29  30
ENDBRANCH  27  29
ENDBRANCH  25  27
ENDBRANCH  24  25
ENDBRANCH   1  24
BRANCH   7  34
HETATM   34  N2  UNL     1      28.256  11.800   2.000  1.00  0.00    -0.242 N
ATOM     35  H2  UNL     1      27.419  11.623   2.557  1.00  0.00     0.197 HD
BRANCH  34  36
HETATM   36  N3  UNL     1      28.260  12.807   1.310  1.00  0.00    -0.248 NA
BRANCH  36  37
HETATM   37  N4  UNL     1      27.899  13.783   0.659  1.00  0.00    -0.261 N
ATOM     38  H42 UNL     1      27.118  14.013   1.272  1.00  0.00     0.193 HD
ATOM     39  H41 UNL     1      27.838  14.510  -0.054  1.00  0.00     0.193 HD
ENDBRANCH  36  37
ENDBRANCH  34  36
ENDBRANCH   7  34
TORSDOF 17
ENDMDL