MODEL 1
REMARK VINA RESULT: -7.498491746      0.000      0.000
REMARK  13 active torsions:
REMARK  status: ('A' for Active; 'I' for Inactive)
REMARK    1  A    between atoms: C1_2  and  C2_3
REMARK       I    between atoms: C1_2  and  N1_9
REMARK    2  A    between atoms: C2_3  and  S1_4
REMARK    3  A    between atoms: S1_4  and  C3_5
REMARK    4  A    between atoms: C3_5  and  C4_6
REMARK    5  A    between atoms: C4_6  and  S2_7
REMARK    6  A    between atoms: N1_9  and  C5_11
REMARK    7  A    between atoms: C10_16  and  S4_17
REMARK    8  A    between atoms: S4_17  and  C11_18
REMARK    9  A    between atoms: C12_20  and  C13_21
REMARK   10  A    between atoms: C13_21  and  O3_22
REMARK   11  A    between atoms: C14_24  and  O4_25
REMARK   12  A    between atoms: C15_27  and  O5_28
REMARK   13  A    between atoms: C16_30  and  O6_31
ROOT
HETATM    1  C5  UNL     1      29.778  11.433  -0.271  1.00  0.00     0.098 C
HETATM    2  C6  UNL     1      29.421  10.834  -1.618  1.00  0.00     0.026 C
HETATM    3  C7  UNL     1      28.033  10.290  -1.624  1.00  0.00     0.002 C
HETATM    4  C8  UNL     1      27.915   9.162  -0.637  1.00  0.00     0.001 C
HETATM    5  C9  UNL     1      29.067   9.182   0.379  1.00  0.00     0.017 C
HETATM    6  C10 UNL     1      29.213  10.599   0.866  1.00  0.00     0.072 C
ENDROOT
BRANCH   6   7
HETATM    7  S4  UNL     1      30.099  10.876   2.318  1.00  0.00    -0.128 SA
BRANCH   7   8
HETATM    8  C11 UNL     1      30.653   9.629   3.377  1.00  0.00     0.215 C
HETATM    9  O2  UNL     1      30.397   9.848   4.756  1.00  0.00    -0.363 OA
HETATM   10  C12 UNL     1      30.393   8.612   5.365  1.00  0.00     0.178 C
HETATM   11  C14 UNL     1      31.716   7.909   5.315  1.00  0.00     0.180 C
HETATM   12  C15 UNL     1      32.173   7.786   3.853  1.00  0.00     0.181 C
HETATM   13  C16 UNL     1      32.094   9.209   3.305  1.00  0.00     0.188 C
BRANCH  10  14
HETATM   14  C13 UNL     1      29.864   8.646   6.767  1.00  0.00     0.198 C
BRANCH  14  15
HETATM   15  O3  UNL     1      28.453   8.633   6.752  1.00  0.00    -0.398 OA
ATOM     16  H3  UNL     1      28.139   7.817   6.382  1.00  0.00     0.209 HD
ENDBRANCH  14  15
ENDBRANCH  10  14
BRANCH  11  17
HETATM   17  O4  UNL     1      32.686   8.492   6.106  1.00  0.00    -0.390 OA
ATOM     18  H4  UNL     1      33.220   9.131   5.649  1.00  0.00     0.210 HD
ENDBRANCH  11  17
BRANCH  12  19
HETATM   19  O5  UNL     1      31.273   6.937   3.231  1.00  0.00    -0.390 OA
ATOM     20  H5  UNL     1      30.601   7.490   2.851  1.00  0.00     0.210 HD
ENDBRANCH  12  19
BRANCH  13  21
HETATM   21  O6  UNL     1      32.901   9.933   4.216  1.00  0.00    -0.389 OA
ATOM     22  H6  UNL     1      32.380  10.471   4.800  1.00  0.00     0.210 HD
ENDBRANCH  13  21
ENDBRANCH   7   8
ENDBRANCH   6   7
BRANCH   1  23
HETATM   23  N1  UNL     1      29.348  12.796  -0.235  1.00  0.00    -0.355 N
HETATM   24  C1  UNL     1      30.173  13.857  -0.616  1.00  0.00     0.227 C
HETATM   25  O1  UNL     1      31.339  13.605  -1.006  1.00  0.00    -0.273 OA
ATOM     26  H1  UNL     1      28.400  13.002   0.081  1.00  0.00     0.162 HD
BRANCH  24  27
HETATM   27  C2  UNL     1      29.758  15.279  -0.591  1.00  0.00     0.176 C
BRANCH  27  28
HETATM   28  S1  UNL     1      30.229  16.068   0.956  1.00  0.00    -0.159 SA
BRANCH  28  29
HETATM   29  C3  UNL     1      31.828  16.899   0.830  1.00  0.00     0.085 C
BRANCH  29  30
HETATM   30  C4  UNL     1      32.965  15.996   1.251  1.00  0.00     0.097 C
BRANCH  30  31
HETATM   31  S2  UNL     1      32.365  14.652   2.297  1.00  0.00    -0.085 SA
HETATM   32  S3  UNL     1      33.470  12.880   1.917  1.00  0.00    -0.013 SA
ENDBRANCH  30  31
ENDBRANCH  29  30
ENDBRANCH  28  29
ENDBRANCH  27  28
ENDBRANCH  24  27
ENDBRANCH   1  23
TORSDOF 13
ENDMDL