MODEL 4
REMARK VINA RESULT: -8.004592248      1.783      4.433
REMARK  14 active torsions:
REMARK  status: ('A' for Active; 'I' for Inactive)
REMARK    1  A    between atoms: C2_2  and  C3_3
REMARK    2  A    between atoms: C3_3  and  C4_4
REMARK    3  A    between atoms: C3_3  and  S1_6
REMARK    4  A    between atoms: S1_6  and  S2_7
REMARK    5  A    between atoms: S2_7  and  C6_8
REMARK    6  A    between atoms: C9_12  and  C10_13
REMARK    7  A    between atoms: C10_13  and  O2_14
REMARK    8  A    between atoms: O2_14  and  C11_15
REMARK    9  A    between atoms: C12_17  and  C13_18
REMARK   10  A    between atoms: C13_18  and  O4_19
REMARK   11  A    between atoms: C14_21  and  O5_22
REMARK   12  A    between atoms: C15_24  and  O6_25
REMARK   13  A    between atoms: C16_27  and  O7_28
REMARK   14  A    between atoms: C17_30  and  O8_31
ROOT
HETATM    1  C6  UNL     1      30.812  14.159   0.012  1.00  0.00     0.093 C
HETATM    2  C7  UNL     1      30.171  13.007   0.706  1.00  0.00     0.133 C
HETATM    3  C8  UNL     1      28.818  12.605   0.342  1.00  0.00     0.041 C
HETATM    4  O1  UNL     1      31.112  11.996   0.736  1.00  0.00    -0.375 OA
HETATM    5  C9  UNL     1      32.308  12.355   1.342  1.00  0.00     0.174 C
HETATM    6  C17 UNL     1      32.634  13.758   1.544  1.00  0.00     0.154 C
HETATM    7  C18 UNL     1      31.668  14.821   1.089  1.00  0.00     0.030 C
HETATM    8  C19 UNL     1      32.385  16.033   0.607  1.00  0.00     0.014 C
ENDROOT
BRANCH   5   9
HETATM    9  C10 UNL     1      32.524  11.477   2.587  1.00  0.00     0.205 C
BRANCH   9  10
HETATM   10  O2  UNL     1      31.307  11.276   3.183  1.00  0.00    -0.356 OA
BRANCH  10  11
HETATM   11  C11 UNL     1      31.185   9.987   3.721  1.00  0.00     0.291 C
HETATM   12  O3  UNL     1      30.788  10.138   5.072  1.00  0.00    -0.348 OA
HETATM   13  C12 UNL     1      30.832   8.969   5.777  1.00  0.00     0.179 C
HETATM   14  C14 UNL     1      30.052   7.849   5.165  1.00  0.00     0.180 C
HETATM   15  C15 UNL     1      29.902   7.911   3.699  1.00  0.00     0.183 C
HETATM   16  C16 UNL     1      30.081   9.233   3.038  1.00  0.00     0.204 C
BRANCH  13  17
HETATM   17  C13 UNL     1      32.239   8.565   6.179  1.00  0.00     0.198 C
BRANCH  17  18
HETATM   18  O4  UNL     1      32.934   9.718   6.610  1.00  0.00    -0.398 OA
ATOM     19  H4  UNL     1      33.754   9.447   7.006  1.00  0.00     0.209 HD
ENDBRANCH  17  18
ENDBRANCH  13  17
BRANCH  14  20
HETATM   20  O5  UNL     1      28.794   7.683   5.784  1.00  0.00    -0.390 OA
ATOM     21  H5  UNL     1      28.754   6.886   6.299  1.00  0.00     0.210 HD
ENDBRANCH  14  20
BRANCH  15  22
HETATM   22  O6  UNL     1      30.766   6.998   3.046  1.00  0.00    -0.390 OA
ATOM     23  H6  UNL     1      31.595   7.402   2.816  1.00  0.00     0.210 HD
ENDBRANCH  15  22
BRANCH  16  24
HETATM   24  O7  UNL     1      30.345   9.011   1.681  1.00  0.00    -0.388 OA
ATOM     25  H7  UNL     1      29.969   9.683   1.124  1.00  0.00     0.210 HD
ENDBRANCH  16  24
ENDBRANCH  10  11
ENDBRANCH   9  10
ENDBRANCH   5   9
BRANCH   6  26
HETATM   26  O8  UNL     1      32.891  14.035   2.894  1.00  0.00    -0.393 OA
ATOM     27  H8  UNL     1      33.741  13.703   3.160  1.00  0.00     0.210 HD
ENDBRANCH   6  26
BRANCH   1  28
HETATM   28  S2  UNL     1      29.923  15.208  -1.048  1.00  0.00    -0.089 SA
BRANCH  28  29
HETATM   29  S1  UNL     1      29.680  14.585  -2.971  1.00  0.00    -0.092 SA
BRANCH  29  30
HETATM   30  C3  UNL     1      29.492  12.951  -3.471  1.00  0.00     0.058 C
BRANCH  30  31
HETATM   31  C2  UNL     1      30.371  11.859  -2.967  1.00  0.00     0.011 C
HETATM   32  C1  UNL     1      29.466  10.727  -2.411  1.00  0.00     0.006 C
ENDBRANCH  30  31
BRANCH  30  33
HETATM   33  C4  UNL     1      28.020  12.458  -3.427  1.00  0.00     0.011 C
HETATM   34  C5  UNL     1      27.322  12.894  -4.679  1.00  0.00     0.006 C
ENDBRANCH  30  33
ENDBRANCH  29  30
ENDBRANCH  28  29
ENDBRANCH   1  28
TORSDOF 14
ENDMDL