MODEL 1
REMARK VINA RESULT: -9.130640590      0.000      0.000
REMARK  14 active torsions:
REMARK  status: ('A' for Active; 'I' for Inactive)
REMARK    1  A    between atoms: C2_2  and  C3_3
REMARK    2  A    between atoms: C3_3  and  C4_4
REMARK    3  A    between atoms: C4_4  and  C5_5
REMARK    4  A    between atoms: C5_5  and  C6_6
REMARK    5  A    between atoms: C6_6  and  C7_7
REMARK    6  A    between atoms: C11_12  and  C12_13
REMARK    7  A    between atoms: C12_13  and  O2_16
REMARK    8  A    between atoms: C15_19  and  O4_20
REMARK    9  A    between atoms: O4_20  and  C16_21
REMARK   10  A    between atoms: C17_23  and  C18_24
REMARK   11  A    between atoms: C18_24  and  O6_25
REMARK   12  A    between atoms: C19_27  and  O7_28
REMARK   13  A    between atoms: C20_30  and  O8_31
REMARK   14  A    between atoms: C21_33  and  O9_34
ROOT
HETATM    1  C7  UNL     1      31.861  13.031   1.064  1.00  0.00    -0.003 C
HETATM    2  C8  UNL     1      31.724  13.451  -0.339  1.00  0.00     0.008 C
HETATM    3  C9  UNL     1      30.373  14.122  -0.526  1.00  0.00     0.033 C
HETATM    4  C10 UNL     1      29.523  13.563   0.625  1.00  0.00     0.134 C
HETATM    5  O1  UNL     1      28.626  12.633   0.197  1.00  0.00    -0.352 OA
HETATM    6  C11 UNL     1      28.670  11.385   0.721  1.00  0.00     0.296 C
HETATM    7  O3  UNL     1      29.845  10.969   1.281  1.00  0.00    -0.328 OA
HETATM    8  C15 UNL     1      30.108  11.843   2.364  1.00  0.00     0.273 C
HETATM    9  C22 UNL     1      30.485  13.158   1.680  1.00  0.00     0.074 C
ENDROOT
BRANCH   8  10
HETATM   10  O4  UNL     1      31.146  11.306   3.067  1.00  0.00    -0.328 OA
BRANCH  10  11
HETATM   11  C16 UNL     1      30.934  10.060   3.595  1.00  0.00     0.294 C
HETATM   12  O5  UNL     1      30.688  10.094   4.988  1.00  0.00    -0.348 OA
HETATM   13  C17 UNL     1      30.425   8.764   5.338  1.00  0.00     0.179 C
HETATM   14  C19 UNL     1      31.712   7.976   5.461  1.00  0.00     0.180 C
HETATM   15  C20 UNL     1      32.724   8.658   4.548  1.00  0.00     0.183 C
HETATM   16  C21 UNL     1      31.970   9.045   3.277  1.00  0.00     0.204 C
BRANCH  13  17
HETATM   17  C18 UNL     1      29.661   8.666   6.633  1.00  0.00     0.198 C
BRANCH  17  18
HETATM   18  O6  UNL     1      29.395   7.313   6.851  1.00  0.00    -0.398 OA
ATOM     19  H6  UNL     1      30.202   6.916   7.157  1.00  0.00     0.209 HD
ENDBRANCH  17  18
ENDBRANCH  13  17
BRANCH  14  20
HETATM   20  O7  UNL     1      31.582   6.667   5.056  1.00  0.00    -0.390 OA
ATOM     21  H7  UNL     1      32.029   6.485   4.238  1.00  0.00     0.210 HD
ENDBRANCH  14  20
BRANCH  15  22
HETATM   22  O8  UNL     1      33.794   7.833   4.282  1.00  0.00    -0.390 OA
ATOM     23  H8  UNL     1      34.408   8.245   3.687  1.00  0.00     0.210 HD
ENDBRANCH  15  22
BRANCH  16  24
HETATM   24  O9  UNL     1      31.440   7.848   2.772  1.00  0.00    -0.388 OA
ATOM     25  H9  UNL     1      30.672   7.975   2.227  1.00  0.00     0.210 HD
ENDBRANCH  16  24
ENDBRANCH  10  11
ENDBRANCH   8  10
BRANCH   6  26
HETATM   26  C12 UNL     1      28.174  10.414  -0.345  1.00  0.00     0.100 C
HETATM   27  C13 UNL     1      27.879   9.086   0.296  1.00  0.00     0.051 C
HETATM   28  C14 UNL     1      29.167  10.209  -1.444  1.00  0.00     0.051 C
BRANCH  26  29
HETATM   29  O2  UNL     1      26.998  10.918  -0.946  1.00  0.00    -0.386 OA
ATOM     30  H2  UNL     1      26.258  10.792  -0.364  1.00  0.00     0.210 HD
ENDBRANCH  26  29
ENDBRANCH   6  26
BRANCH   1  31
HETATM   31  C6  UNL     1      32.868  13.767   1.883  1.00  0.00     0.005 C
BRANCH  31  32
HETATM   32  C5  UNL     1      32.654  15.240   1.979  1.00  0.00     0.000 C
BRANCH  32  33
HETATM   33  C4  UNL     1      33.685  16.010   1.168  1.00  0.00     0.000 C
BRANCH  33  34
HETATM   34  C3  UNL     1      33.033  17.314   0.760  1.00  0.00    -0.000 C
BRANCH  34  35
HETATM   35  C2  UNL     1      31.524  17.224   0.831  1.00  0.00    -0.005 C
HETATM   36  C1  UNL     1      30.943  17.867  -0.414  1.00  0.00     0.005 C
ENDBRANCH  34  35
ENDBRANCH  33  34
ENDBRANCH  32  33
ENDBRANCH  31  32
ENDBRANCH   1  31
TORSDOF 14
ENDMDL