MODEL 5
REMARK VINA RESULT: -7.861435142      1.361      1.970
REMARK  16 active torsions:
REMARK  status: ('A' for Active; 'I' for Inactive)
REMARK    1  A    between atoms: C2_2  and  O1_3
REMARK    2  A    between atoms: C2_2  and  O2_5
REMARK    3  A    between atoms: O2_5  and  C3_6
REMARK    4  A    between atoms: C5_8  and  O3_9
REMARK    5  A    between atoms: O3_9  and  C6_10
REMARK    6  A    between atoms: C11_15  and  O4_16
REMARK    7  A    between atoms: O4_16  and  C12_17
REMARK    8  A    between atoms: C15_20  and  O5_21
REMARK    9  A    between atoms: O5_21  and  C16_22
REMARK   10  A    between atoms: C16_22  and  C17_23
REMARK   11  A    between atoms: C17_23  and  C18_24
REMARK   12  A    between atoms: C18_24  and  N1_25
REMARK   13  A    between atoms: C19_28  and  O6_29
REMARK   14  A    between atoms: C20_31  and  O7_32
REMARK   15  A    between atoms: C21_35  and  C22_36
REMARK   16  A    between atoms: C22_36  and  O9_37
ROOT
HETATM    1  C6  UNL     1      32.591  12.661   1.259  1.00  0.00     0.157 C
HETATM    2  C7  UNL     1      33.216  13.928   1.810  1.00  0.00     0.061 C
HETATM    3  C8  UNL     1      32.198  14.537   2.710  1.00  0.00    -0.028 C
HETATM    4  C9  UNL     1      30.898  14.290   2.615  1.00  0.00    -0.028 C
HETATM    5  C10 UNL     1      30.304  13.384   1.609  1.00  0.00     0.061 C
HETATM    6  C11 UNL     1      31.325  13.114   0.518  1.00  0.00     0.154 C
ENDROOT
BRANCH   6   7
HETATM    7  O4  UNL     1      30.892  12.149  -0.371  1.00  0.00    -0.375 OA
BRANCH   7   8
HETATM    8  C12 UNL     1      30.059  12.605  -1.355  1.00  0.00     0.153 C
HETATM    9  C13 UNL     1      29.144  11.563  -1.932  1.00  0.00     0.037 C
HETATM   10  C14 UNL     1      28.006  12.329  -2.626  1.00  0.00     0.037 C
HETATM   11  C15 UNL     1      28.692  13.002  -3.832  1.00  0.00     0.152 C
HETATM   12  C19 UNL     1      29.707  13.977  -3.333  1.00  0.00     0.178 C
HETATM   13  C20 UNL     1      30.788  13.270  -2.506  1.00  0.00     0.178 C
BRANCH  11  14
HETATM   14  O5  UNL     1      27.780  13.619  -4.644  1.00  0.00    -0.382 OA
BRANCH  14  15
HETATM   15  C16 UNL     1      26.859  12.749  -5.228  1.00  0.00     0.181 C
BRANCH  15  16
HETATM   16  C17 UNL     1      26.329  13.223  -6.521  1.00  0.00     0.130 C
BRANCH  16  17
HETATM   17  C18 UNL     1      25.518  12.495  -7.233  1.00  0.00    -0.076 C
BRANCH  17  18
HETATM   18  N1  UNL     1      24.571  11.996  -7.944  1.00  0.00    -0.370 N
ATOM     19  H12 UNL     1      24.447  11.243  -7.266  1.00  0.00     0.165 HD
ATOM     20  H11 UNL     1      23.860  11.761  -8.636  1.00  0.00     0.165 HD
ENDBRANCH  17  18
ENDBRANCH  16  17
ENDBRANCH  15  16
ENDBRANCH  14  15
ENDBRANCH  11  14
BRANCH  12  21
HETATM   21  O6  UNL     1      30.235  14.686  -4.383  1.00  0.00    -0.390 OA
ATOM     22  H6  UNL     1      30.179  15.618  -4.207  1.00  0.00     0.210 HD
ENDBRANCH  12  21
BRANCH  13  23
HETATM   23  O7  UNL     1      31.368  12.335  -3.347  1.00  0.00    -0.390 OA
ATOM     24  H7  UNL     1      31.165  12.513  -4.258  1.00  0.00     0.210 HD
ENDBRANCH  13  23
ENDBRANCH   7   8
ENDBRANCH   6   7
BRANCH   1  25
HETATM   25  O3  UNL     1      32.215  11.915   2.399  1.00  0.00    -0.353 OA
BRANCH  25  26
HETATM   26  C5  UNL     1      32.569  10.596   2.300  1.00  0.00     0.263 C
HETATM   27  C4  UNL     1      32.893   9.946   3.627  1.00  0.00     0.095 C
HETATM   28  C3  UNL     1      31.526   9.313   4.015  1.00  0.00     0.160 C
HETATM   29  C21 UNL     1      30.625   9.862   2.974  1.00  0.00     0.177 C
HETATM   30  O8  UNL     1      31.466   9.888   1.825  1.00  0.00    -0.351 OA
BRANCH  28  31
HETATM   31  O2  UNL     1      31.186   9.801   5.280  1.00  0.00    -0.354 OA
BRANCH  31  32
HETATM   32  C2  UNL     1      30.973   8.810   6.222  1.00  0.00     0.253 C
HETATM   33  C1  UNL     1      31.168   7.460   5.631  1.00  0.00     0.070 C
BRANCH  32  34
HETATM   34  O1  UNL     1      29.583   8.922   6.540  1.00  0.00    -0.372 OA
ATOM     35  H1  UNL     1      29.372   9.848   6.517  1.00  0.00     0.212 HD
ENDBRANCH  32  34
ENDBRANCH  31  32
ENDBRANCH  28  31
BRANCH  29  36
HETATM   36  C22 UNL     1      29.411   9.006   2.663  1.00  0.00     0.198 C
BRANCH  36  37
HETATM   37  O9  UNL     1      28.549   8.984   3.740  1.00  0.00    -0.398 OA
ATOM     38  H9  UNL     1      27.650   8.904   3.444  1.00  0.00     0.209 HD
ENDBRANCH  36  37
ENDBRANCH  29  36
ENDBRANCH  25  26
ENDBRANCH   1  25
TORSDOF 16
ENDMDL