MODEL 3
REMARK VINA RESULT: -7.944545587      0.944      1.850
REMARK  15 active torsions:
REMARK  status: ('A' for Active; 'I' for Inactive)
REMARK    1  A    between atoms: C3_4  and  O2_5
REMARK    2  A    between atoms: O2_5  and  C4_6
REMARK    3  A    between atoms: C4_6  and  C5_7
REMARK    4  A    between atoms: C5_7  and  O3_8
REMARK    5  A    between atoms: O3_8  and  C6_9
REMARK    6  A    between atoms: C6_9  and  C7_10
REMARK    7  A    between atoms: C7_10  and  O4_11
REMARK    8  A    between atoms: O4_11  and  C8_12
REMARK    9  A    between atoms: C8_12  and  N1_13
REMARK   10  A    between atoms: C9_14  and  O5_15
REMARK   11  A    between atoms: C10_17  and  C11_18
REMARK   12  A    between atoms: C12_19  and  C13_20
REMARK   13  A    between atoms: C18_28  and  O6_29
REMARK   14  A    between atoms: C19_31  and  O7_32
REMARK   15  A    between atoms: C20_34  and  O8_35
ROOT
HETATM    1  C6  UNL     1      28.402  11.480  -1.350  1.00  0.00     0.193 C
ENDROOT
BRANCH   1   2
HETATM    2  O3  UNL     1      28.191  10.179  -1.546  1.00  0.00    -0.387 OA
BRANCH   2   3
HETATM    3  C5  UNL     1      29.075   9.247  -1.127  1.00  0.00     0.194 C
BRANCH   3   4
HETATM    4  C4  UNL     1      29.065   9.226   0.432  1.00  0.00     0.197 C
BRANCH   4   5
HETATM    5  O2  UNL     1      30.316   9.558   0.871  1.00  0.00    -0.356 OA
BRANCH   5   6
HETATM    6  C3  UNL     1      30.495   9.647   2.224  1.00  0.00     0.291 C
HETATM    7  O1  UNL     1      29.951   8.472   2.792  1.00  0.00    -0.351 OA
HETATM    8  C2  UNL     1      29.663   8.732   4.114  1.00  0.00     0.152 C
HETATM    9  C1  UNL     1      29.442   7.371   4.789  1.00  0.00     0.042 C
HETATM   10  C20 UNL     1      30.733   9.513   4.825  1.00  0.00     0.178 C
HETATM   11  C19 UNL     1      32.035   9.281   4.087  1.00  0.00     0.183 C
HETATM   12  C18 UNL     1      31.947   9.675   2.640  1.00  0.00     0.204 C
BRANCH  10  13
HETATM   13  O8  UNL     1      30.881   8.983   6.107  1.00  0.00    -0.390 OA
ATOM     14  H8  UNL     1      31.416   8.200   6.044  1.00  0.00     0.210 HD
ENDBRANCH  10  13
BRANCH  11  15
HETATM   15  O7  UNL     1      33.094   9.924   4.716  1.00  0.00    -0.390 OA
ATOM     16  H7  UNL     1      32.783  10.613   5.290  1.00  0.00     0.210 HD
ENDBRANCH  11  15
BRANCH  12  17
HETATM   17  O6  UNL     1      32.730   8.787   1.906  1.00  0.00    -0.388 OA
ATOM     18  H6  UNL     1      33.647   8.820   2.153  1.00  0.00     0.210 HD
ENDBRANCH  12  17
ENDBRANCH   5   6
ENDBRANCH   4   5
ENDBRANCH   3   4
ENDBRANCH   2   3
ENDBRANCH   1   2
BRANCH   1  19
HETATM   19  C7  UNL     1      29.624  12.033  -2.010  1.00  0.00     0.196 C
BRANCH  19  20
HETATM   20  O4  UNL     1      30.542  12.465  -1.100  1.00  0.00    -0.369 OA
BRANCH  20  21
HETATM   21  C8  UNL     1      30.025  13.068   0.023  1.00  0.00     0.303 C
BRANCH  21  22
HETATM   22  N1  UNL     1      30.464  14.415   0.196  1.00  0.00    -0.280 N
HETATM   23  C9  UNL     1      30.405  15.499  -0.613  1.00  0.00     0.182 A
HETATM   24  C10 UNL     1      30.948  16.596  -0.004  1.00  0.00     0.140 A
HETATM   25  N2  UNL     1      31.346  16.164   1.206  1.00  0.00    -0.322 N
HETATM   26  C17 UNL     1      31.061  14.857   1.340  1.00  0.00     0.182 A
ATOM     27  H2  UNL     1      31.796  16.742   1.916  1.00  0.00     0.169 HD
HETATM   28  S1  UNL     1      31.377  13.929   2.660  1.00  0.00    -0.040 SA
BRANCH  23  29
HETATM   29  O5  UNL     1      29.865  15.483  -1.886  1.00  0.00    -0.344 OA
ATOM     30  H5  UNL     1      29.239  14.836  -2.187  1.00  0.00     0.219 HD
ENDBRANCH  23  29
BRANCH  24  31
HETATM   31  C11 UNL     1      31.062  17.929  -0.559  1.00  0.00    -0.043 C
HETATM   32  C12 UNL     1      31.155  19.030  -1.039  1.00  0.00    -0.090 C
BRANCH  32  33
HETATM   33  C13 UNL     1      31.258  20.371  -1.651  1.00  0.00     0.013 C
HETATM   34  C14 UNL     1      31.378  20.227  -3.166  1.00  0.00     0.028 C
HETATM   35  C15 UNL     1      29.996  21.139  -1.370  1.00  0.00     0.028 C
HETATM   36  C16 UNL     1      32.476  21.114  -1.153  1.00  0.00     0.028 C
ENDBRANCH  32  33
ENDBRANCH  24  31
ENDBRANCH  21  22
ENDBRANCH  20  21
ENDBRANCH  19  20
ENDBRANCH   1  19
TORSDOF 15
ENDMDL