MODEL 3
REMARK VINA RESULT: -8.047476294      3.872      7.039
REMARK  12 active torsions:
REMARK  status: ('A' for Active; 'I' for Inactive)
REMARK    1  A    between atoms: C2_2  and  O1_3
REMARK    2  A    between atoms: O1_3  and  C3_4
REMARK    3  A    between atoms: C3_4  and  C4_5
REMARK    4  A    between atoms: C4_5  and  O2_6
REMARK    5  A    between atoms: O2_6  and  C5_7
REMARK    6  A    between atoms: C8_11  and  O4_12
REMARK    7  A    between atoms: C9_14  and  S1_15
REMARK    8  A    between atoms: S1_15  and  C10_16
REMARK    9  A    between atoms: C10_16  and  C11_17
REMARK   10  A    between atoms: C14_20  and  C15_21
REMARK   11  A    between atoms: C17_29  and  O5_30
REMARK   12  A    between atoms: C18_32  and  O6_33
ROOT
HETATM    1  C5  UNL     1      28.778   9.026   2.150  1.00  0.00     0.418 C
HETATM    2  O3  UNL     1      30.129   8.827   1.777  1.00  0.00    -0.308 OA
HETATM    3  C6  UNL     1      30.857   9.970   1.415  1.00  0.00     0.149 C
HETATM    4  C7  UNL     1      30.181  10.838   0.669  1.00  0.00     0.008 C
HETATM    5  C8  UNL     1      30.888  12.074   0.246  1.00  0.00     0.168 C
HETATM    6  C9  UNL     1      29.934  13.090  -0.338  1.00  0.00     0.111 C
HETATM    7  C17 UNL     1      28.882  12.374  -1.211  1.00  0.00     0.166 C
HETATM    8  C18 UNL     1      27.998  11.610  -0.260  1.00  0.00     0.187 C
HETATM    9  C19 UNL     1      28.795  10.486   0.334  1.00  0.00     0.118 C
HETATM   10  C20 UNL     1      28.733   9.309  -0.637  1.00  0.00     0.054 C
HETATM   11  O7  UNL     1      28.168  10.088   1.503  1.00  0.00    -0.320 OA
ENDROOT
BRANCH   6  12
HETATM   12  S1  UNL     1      29.044  14.017   0.876  1.00  0.00    -0.158 SA
BRANCH  12  13
HETATM   13  C10 UNL     1      29.904  15.307   1.733  1.00  0.00     0.080 C
BRANCH  13  14
HETATM   14  C11 UNL     1      30.786  16.178   0.882  1.00  0.00     0.021 C
HETATM   15  C12 UNL     1      30.208  17.590   0.930  1.00  0.00     0.009 C
HETATM   16  C13 UNL     1      30.898  18.391  -0.135  1.00  0.00     0.039 C
HETATM   17  C14 UNL     1      32.370  18.098  -0.219  1.00  0.00     0.223 C
HETATM   18  N2  UNL     1      32.876  17.457   0.974  1.00  0.00    -0.066 N
HETATM   19  C16 UNL     1      32.218  16.190   1.253  1.00  0.00     0.238 C
ATOM     20  H22 UNL     1      33.889  17.341   0.924  1.00  0.00     0.278 HD
ATOM     21  H21 UNL     1      32.821  18.083   1.778  1.00  0.00     0.278 HD
BRANCH  17  22
HETATM   22  C15 UNL     1      33.085  19.397  -0.351  1.00  0.00     0.085 C
HETATM   23  N1  UNL     1      32.417  20.488  -0.370  1.00  0.00    -0.409 N
ATOM     24  H12 UNL     1      31.400  20.450  -0.294  1.00  0.00     0.155 HD
ATOM     25  H11 UNL     1      32.907  21.378  -0.460  1.00  0.00     0.155 HD
ENDBRANCH  17  22
ENDBRANCH  13  14
ENDBRANCH  12  13
ENDBRANCH   6  12
BRANCH   5  26
HETATM   26  O4  UNL     1      31.651  12.611   1.268  1.00  0.00    -0.390 OA
ATOM     27  H4  UNL     1      31.504  12.166   2.094  1.00  0.00     0.210 HD
ENDBRANCH   5  26
BRANCH   7  28
HETATM   28  O5  UNL     1      29.493  11.577  -2.154  1.00  0.00    -0.392 OA
ATOM     29  H5  UNL     1      30.407  11.815  -2.256  1.00  0.00     0.210 HD
ENDBRANCH   7  28
BRANCH   8  30
HETATM   30  O6  UNL     1      26.897  11.112  -0.975  1.00  0.00    -0.390 OA
ATOM     31  H6  UNL     1      27.213  10.691  -1.766  1.00  0.00     0.210 HD
ENDBRANCH   8  30
BRANCH   1  32
HETATM   32  O2  UNL     1      28.658   9.239   3.498  1.00  0.00    -0.337 OA
BRANCH  32  33
HETATM   33  C4  UNL     1      29.171   8.272   4.319  1.00  0.00     0.199 C
BRANCH  33  34
HETATM   34  C3  UNL     1      30.249   8.773   5.244  1.00  0.00     0.193 C
BRANCH  34  35
HETATM   35  O1  UNL     1      29.695   9.047   6.506  1.00  0.00    -0.389 OA
BRANCH  35  36
HETATM   36  C2  UNL     1      29.000   7.937   6.957  1.00  0.00     0.163 C
HETATM   37  C1  UNL     1      27.892   8.418   7.866  1.00  0.00     0.033 C
ENDBRANCH  35  36
ENDBRANCH  34  35
ENDBRANCH  33  34
ENDBRANCH  32  33
ENDBRANCH   1  32
TORSDOF 12
ENDMDL