MODEL 1
REMARK VINA RESULT: -7.376094324      0.000      0.000
REMARK  14 active torsions:
REMARK  status: ('A' for Active; 'I' for Inactive)
REMARK    1  A    between atoms: O1_2  and  C2_3
REMARK    2  A    between atoms: C3_4  and  O2_5
REMARK    3  A    between atoms: C5_9  and  N1_10
REMARK    4  A    between atoms: N1_10  and  C6_11
REMARK    5  A    between atoms: N1_10  and  C14_19
REMARK    6  A    between atoms: C6_11  and  C7_12
REMARK    7  A    between atoms: C7_12  and  C8_13
REMARK    8  A    between atoms: C8_13  and  C9_14
REMARK    9  A    between atoms: C14_19  and  C15_20
REMARK   10  A    between atoms: C14_19  and  C16_23
REMARK   11  A    between atoms: C15_20  and  O3_21
REMARK   12  A    between atoms: C16_23  and  O4_24
REMARK   13  A    between atoms: C18_30  and  C19_31
REMARK   14  A    between atoms: C19_31  and  O6_32
ROOT
HETATM    1  C2  UNL     1      27.669  11.945  -1.302  1.00  0.00     0.168 C
HETATM    2  C3  UNL     1      28.193  10.632  -0.805  1.00  0.00     0.166 C
HETATM    3  C4  UNL     1      28.637  10.541   0.564  1.00  0.00     0.135 C
HETATM    4  S1  UNL     1      30.277   9.678   0.752  1.00  0.00    -0.082 SA
HETATM    5  C5  UNL     1      30.516  10.366   2.374  1.00  0.00     0.141 C
HETATM    6  N2  UNL     1      29.794  11.378   2.433  1.00  0.00    -0.343 N
ATOM      7  H2  UNL     1      29.772  11.937   3.286  1.00  0.00     0.164 HD
HETATM    8  C17 UNL     1      28.998  11.761   1.314  1.00  0.00     0.239 C
HETATM    9  O5  UNL     1      29.783  12.659   0.603  1.00  0.00    -0.357 OA
HETATM   10  C18 UNL     1      29.140  13.597  -0.132  1.00  0.00     0.165 C
HETATM   11  C20 UNL     1      28.754  12.987  -1.461  1.00  0.00     0.121 C
HETATM   12  S2  UNL     1      30.184  12.169  -2.211  1.00  0.00    -0.087 SA
ENDROOT
BRANCH   5  13
HETATM   13  N1  UNL     1      31.384   9.836   3.394  1.00  0.00    -0.353 N
BRANCH  13  14
HETATM   14  C6  UNL     1      32.773  10.142   3.350  1.00  0.00     0.125 C
BRANCH  14  15
HETATM   15  C7  UNL     1      33.329  10.786   2.136  1.00  0.00     0.020 C
BRANCH  15  16
HETATM   16  C8  UNL     1      33.877  12.195   2.480  1.00  0.00     0.006 C
BRANCH  16  17
HETATM   17  C9  UNL     1      33.327  13.224   1.548  1.00  0.00    -0.014 C
HETATM   18  C10 UNL     1      34.354  14.175   1.023  1.00  0.00     0.004 C
HETATM   19  C11 UNL     1      33.849  15.579   1.244  1.00  0.00     0.000 C
HETATM   20  C12 UNL     1      32.430  15.455   1.722  1.00  0.00     0.000 C
HETATM   21  C13 UNL     1      32.350  14.082   2.359  1.00  0.00     0.004 C
ENDBRANCH  16  17
ENDBRANCH  15  16
ENDBRANCH  14  15
ENDBRANCH  13  14
BRANCH  13  22
HETATM   22  C14 UNL     1      30.753   8.992   4.382  1.00  0.00     0.133 C
BRANCH  22  23
HETATM   23  C15 UNL     1      30.947   7.526   4.053  1.00  0.00     0.191 C
BRANCH  23  24
HETATM   24  O3  UNL     1      31.332   6.752   5.125  1.00  0.00    -0.399 OA
ATOM     25  H3  UNL     1      31.795   5.957   4.885  1.00  0.00     0.209 HD
ENDBRANCH  23  24
ENDBRANCH  22  23
BRANCH  22  26
HETATM   26  C16 UNL     1      31.042   9.259   5.804  1.00  0.00     0.191 C
BRANCH  26  27
HETATM   27  O4  UNL     1      29.850   8.996   6.545  1.00  0.00    -0.399 OA
ATOM     28  H4  UNL     1      30.044   9.140   7.464  1.00  0.00     0.209 HD
ENDBRANCH  26  27
ENDBRANCH  22  26
ENDBRANCH  13  22
ENDBRANCH   5  13
BRANCH   2  29
HETATM   29  O2  UNL     1      27.167   9.686  -1.039  1.00  0.00    -0.392 OA
ATOM     30  H2  UNL     1      26.983   9.283  -0.198  1.00  0.00     0.210 HD
ENDBRANCH   2  29
BRANCH   1  31
HETATM   31  O1  UNL     1      27.180  11.714  -2.589  1.00  0.00    -0.387 OA
HETATM   32  C1  UNL     1      26.752  12.889  -3.199  1.00  0.00     0.202 C
ENDBRANCH   1  31
BRANCH  10  33
HETATM   33  C19 UNL     1      28.022  14.338   0.497  1.00  0.00     0.197 C
BRANCH  33  34
HETATM   34  O6  UNL     1      28.608  15.275   1.386  1.00  0.00    -0.398 OA
ATOM     35  H6  UNL     1      29.123  14.772   2.006  1.00  0.00     0.209 HD
ENDBRANCH  33  34
ENDBRANCH  10  33
TORSDOF 14
ENDMDL