MODEL 2
REMARK VINA RESULT: -7.338800379      1.284      1.433
REMARK  13 active torsions:
REMARK  status: ('A' for Active; 'I' for Inactive)
REMARK    1  A    between atoms: C2_2  and  O1_3
REMARK    2  A    between atoms: O1_3  and  C3_4
REMARK    3  A    between atoms: C3_4  and  C4_5
REMARK    4  A    between atoms: C4_5  and  O2_6
REMARK    5  A    between atoms: O2_6  and  C5_7
REMARK    6  A    between atoms: C7_9  and  C8_10
REMARK    7  A    between atoms: C8_10  and  O3_12
REMARK    8  A    between atoms: C10_15  and  O5_16
REMARK    9  A    between atoms: O5_16  and  C11_17
REMARK   10  A    between atoms: C15_22  and  S1_23
REMARK   11  A    between atoms: C16_25  and  O7_26
REMARK   12  A    between atoms: C17_28  and  O8_29
REMARK   13  A    between atoms: C18_31  and  O9_32
ROOT
HETATM    1  C5  UNL     1      29.225  14.106   0.586  1.00  0.00     0.157 C
HETATM    2  C6  UNL     1      29.964  14.521  -0.669  1.00  0.00     0.069 C
HETATM    3  C7  UNL     1      31.057  13.533  -1.016  1.00  0.00     0.155 C
HETATM    4  O4  UNL     1      31.031  12.453  -0.103  1.00  0.00    -0.351 OA
HETATM    5  C10 UNL     1      31.373  12.940   1.141  1.00  0.00     0.294 C
HETATM    6  C18 UNL     1      30.191  13.709   1.682  1.00  0.00     0.202 C
ENDROOT
BRANCH   5   7
HETATM    7  O5  UNL     1      31.713  11.977   2.059  1.00  0.00    -0.326 OA
BRANCH   7   8
HETATM    8  C11 UNL     1      31.223  10.718   1.752  1.00  0.00     0.294 C
HETATM    9  O6  UNL     1      32.218   9.765   1.930  1.00  0.00    -0.358 OA
HETATM   10  C12 UNL     1      32.698   9.726   3.231  1.00  0.00     0.176 C
HETATM   11  C13 UNL     1      32.090   8.498   3.881  1.00  0.00     0.023 C
HETATM   12  C14 UNL     1      32.920   7.968   5.012  1.00  0.00     0.013 C
HETATM   13  C15 UNL     1      30.691   8.910   4.338  1.00  0.00     0.096 C
HETATM   14  C16 UNL     1      29.867   9.074   3.084  1.00  0.00     0.166 C
HETATM   15  C17 UNL     1      29.958  10.426   2.473  1.00  0.00     0.203 C
BRANCH  13  16
HETATM   16  S1  UNL     1      30.035   7.507   5.298  1.00  0.00    -0.077 SA
HETATM   17  S2  UNL     1      29.000   8.132   7.019  1.00  0.00    -0.013 SA
ENDBRANCH  13  16
BRANCH  14  18
HETATM   18  O7  UNL     1      28.529   8.842   3.451  1.00  0.00    -0.392 OA
ATOM     19  H7  UNL     1      28.529   8.060   3.991  1.00  0.00     0.210 HD
ENDBRANCH  14  18
BRANCH  15  20
HETATM   20  O8  UNL     1      28.849  10.573   1.614  1.00  0.00    -0.388 OA
ATOM     21  H8  UNL     1      28.973  11.310   1.029  1.00  0.00     0.210 HD
ENDBRANCH  15  20
ENDBRANCH   7   8
ENDBRANCH   5   7
BRANCH   6  22
HETATM   22  O9  UNL     1      30.647  14.799   2.412  1.00  0.00    -0.388 OA
ATOM     23  H9  UNL     1      31.277  14.553   3.079  1.00  0.00     0.210 HD
ENDBRANCH   6  22
BRANCH   3  24
HETATM   24  C8  UNL     1      30.856  12.931  -2.384  1.00  0.00     0.143 C
HETATM   25  C9  UNL     1      30.239  13.968  -3.282  1.00  0.00     0.042 C
BRANCH  24  26
HETATM   26  O3  UNL     1      30.130  11.751  -2.344  1.00  0.00    -0.393 OA
ATOM     27  H3  UNL     1      29.260  11.847  -2.712  1.00  0.00     0.210 HD
ENDBRANCH  24  26
ENDBRANCH   3  24
BRANCH   1  28
HETATM   28  O2  UNL     1      28.318  13.084   0.324  1.00  0.00    -0.381 OA
BRANCH  28  29
HETATM   29  C4  UNL     1      27.493  13.459  -0.704  1.00  0.00     0.194 C
BRANCH  29  30
HETATM   30  C3  UNL     1      26.936  12.274  -1.465  1.00  0.00     0.193 C
BRANCH  30  31
HETATM   31  O1  UNL     1      27.380  12.229  -2.784  1.00  0.00    -0.389 OA
BRANCH  31  32
HETATM   32  C2  UNL     1      26.603  12.989  -3.625  1.00  0.00     0.163 C
HETATM   33  C1  UNL     1      27.171  12.885  -5.042  1.00  0.00     0.033 C
ENDBRANCH  31  32
ENDBRANCH  30  31
ENDBRANCH  29  30
ENDBRANCH  28  29
ENDBRANCH   1  28
TORSDOF 13
ENDMDL