MODEL 5
REMARK VINA RESULT: -10.123337597      0.994      2.248
REMARK  14 active torsions:
REMARK  status: ('A' for Active; 'I' for Inactive)
REMARK    1  A    between atoms: C2_2  and  C3_4
REMARK    2  A    between atoms: C3_4  and  N1_5
REMARK    3  A    between atoms: C7_13  and  N3_14
REMARK    4  A    between atoms: N5_20  and  C9_21
REMARK    5  A    between atoms: C9_21  and  C10_22
REMARK    6  A    between atoms: C10_22  and  N6_23
REMARK    7  A    between atoms: C11_27  and  C12_28
REMARK    8  A    between atoms: C12_28  and  N9_29
REMARK       I    between atoms: N9_29  and  C13_31
REMARK    9  A    between atoms: C13_31  and  C14_33
REMARK   10  A    between atoms: C18_39  and  N11_40
REMARK   11  A    between atoms: C19_45  and  N13_46
REMARK   12  A    between atoms: C21_48  and  C22_49
REMARK   13  A    between atoms: C22_49  and  O5_50
REMARK   14  A    between atoms: C22_49  and  O6_52
ROOT
HETATM    1  N6  UNL     1      94.494  19.518   6.883  1.00  0.00    -0.257 N
HETATM    2  N7  UNL     1      95.167  19.344   8.034  1.00  0.00    -0.018 NA
HETATM    3  N8  UNL     1      95.826  18.197   8.012  1.00  0.00    -0.283 N
ATOM      4  H8  UNL     1      96.410  17.833   8.764  1.00  0.00     0.184 HD
HETATM    5  C11 UNL     1      95.599  17.593   6.839  1.00  0.00     0.086 A
HETATM    6  C19 UNL     1      94.750  18.455   6.143  1.00  0.00     0.145 A
ENDROOT
BRANCH   1   7
HETATM    7  C10 UNL     1      93.679  20.637   6.575  1.00  0.00     0.170 C
BRANCH   7   8
HETATM    8  C9  UNL     1      93.950  21.872   7.416  1.00  0.00     0.172 C
BRANCH   8   9
HETATM    9  N5  UNL     1      92.752  22.289   8.110  1.00  0.00    -0.268 N
HETATM   10  N1  UNL     1      92.428  22.102   9.359  1.00  0.00    -0.246 N
HETATM   11  C4  UNL     1      91.225  22.662   9.631  1.00  0.00     0.282 A
HETATM   12  O2  UNL     1      90.601  22.679  10.719  1.00  0.00    -0.265 OA
HETATM   13  C5  UNL     1      90.765  23.239   8.471  1.00  0.00     0.148 A
HETATM   14  C6  UNL     1      89.612  23.943   8.138  1.00  0.00     0.279 A
HETATM   15  C8  UNL     1      91.745  22.987   7.536  1.00  0.00     0.159 A
HETATM   16  O3  UNL     1      88.740  24.148   9.039  1.00  0.00    -0.266 OA
HETATM   17  N2  UNL     1      89.468  24.377   6.890  1.00  0.00    -0.155 N
HETATM   18  C7  UNL     1      90.426  24.129   5.984  1.00  0.00     0.680 A
ATOM     19  H2  UNL     1      88.632  24.896   6.622  1.00  0.00     0.187 HD
HETATM   20  N4  UNL     1      91.556  23.440   6.300  1.00  0.00    -0.174 N
ATOM     21  H4  UNL     1      92.264  23.271   5.584  1.00  0.00     0.186 HD
BRANCH  10  22
HETATM   22  C3  UNL     1      93.189  21.418  10.372  1.00  0.00     0.230 C
BRANCH  22  23
HETATM   23  C2  UNL     1      92.630  20.090  10.692  1.00  0.00     0.142 C
HETATM   24  C1  UNL     1      91.681  19.371   9.793  1.00  0.00     0.093 C
HETATM   25  O1  UNL     1      92.946  19.546  11.729  1.00  0.00    -0.297 OA
ENDBRANCH  22  23
ENDBRANCH  10  22
BRANCH  18  26
HETATM   26  N3  UNL     1      90.255  24.563   4.782  1.00  0.00    -0.234 N
ATOM     27  H32 UNL     1      91.052  24.631   4.149  1.00  0.00     0.174 HD
ATOM     28  H31 UNL     1      89.313  24.830   4.494  1.00  0.00     0.174 HD
ENDBRANCH  18  26
ENDBRANCH   8   9
ENDBRANCH   7   8
ENDBRANCH   1   7
BRANCH   6  29
HETATM   29  N13 UNL     1      94.297  18.134   4.839  1.00  0.00    -0.345 N
HETATM   30  C20 UNL     1      95.256  18.034   3.778  1.00  0.00     0.162 C
HETATM   31  C21 UNL     1      94.793  17.353   2.547  1.00  0.00     0.197 C
HETATM   32  O7  UNL     1      93.535  16.860   2.505  1.00  0.00    -0.347 OA
HETATM   33  C23 UNL     1      92.987  16.556   3.714  1.00  0.00     0.291 C
HETATM   34  O8  UNL     1      91.644  16.234   3.690  1.00  0.00    -0.351 OA
HETATM   35  C26 UNL     1      92.928  17.897   4.477  1.00  0.00     0.213 C
HETATM   36  C24 UNL     1      91.188  16.418   5.017  1.00  0.00     0.251 C
HETATM   37  C25 UNL     1      92.012  17.542   5.549  1.00  0.00     0.177 C
HETATM   38  O9  UNL     1      91.906  18.018   6.639  1.00  0.00    -0.293 OA
BRANCH  31  39
HETATM   39  C22 UNL     1      94.968  18.248   1.308  1.00  0.00     0.284 C
BRANCH  39  40
HETATM   40  O5  UNL     1      94.476  17.603   0.172  1.00  0.00    -0.369 OA
ATOM     41  H5  UNL     1      93.851  18.159  -0.278  1.00  0.00     0.212 HD
ENDBRANCH  39  40
BRANCH  39  42
HETATM   42  O6  UNL     1      96.305  18.589   1.122  1.00  0.00    -0.369 OA
ATOM     43  H6  UNL     1      96.749  17.947   0.581  1.00  0.00     0.212 HD
ENDBRANCH  39  42
ENDBRANCH  31  39
ENDBRANCH   6  29
BRANCH   5  44
HETATM   44  C12 UNL     1      96.137  16.301   6.390  1.00  0.00     0.185 C
BRANCH  44  45
HETATM   45  N9  UNL     1      96.686  15.538   7.520  1.00  0.00    -0.350 N
HETATM   46  C13 UNL     1      97.587  14.482   7.342  1.00  0.00     0.269 C
HETATM   47  O4  UNL     1      97.967  14.143   6.201  1.00  0.00    -0.266 OA
ATOM     48  H9  UNL     1      96.400  15.787   8.467  1.00  0.00     0.163 HD
BRANCH  46  49
HETATM   49  C14 UNL     1      98.096  13.764   8.498  1.00  0.00     0.118 A
HETATM   50  C15 UNL     1      97.341  12.762   9.109  1.00  0.00     0.061 A
HETATM   51  C16 UNL     1      97.868  12.119  10.197  1.00  0.00     0.025 A
HETATM   52  C17 UNL     1      97.079  11.039  10.872  1.00  0.00     0.068 C
HETATM   53  N10 UNL     1      99.083  12.458  10.651  1.00  0.00    -0.196 N
HETATM   54  C18 UNL     1      99.806  13.432  10.051  1.00  0.00     0.676 A
ATOM     55  H10 UNL     1      99.469  11.974  11.462  1.00  0.00     0.184 HD
HETATM   56  N12 UNL     1      99.299  14.066   8.986  1.00  0.00    -0.186 N
ATOM     57  H12 UNL     1      99.848  14.799   8.537  1.00  0.00     0.184 HD
BRANCH  54  58
HETATM   58  N11 UNL     1     100.975  13.759  10.489  1.00  0.00    -0.234 N
ATOM     59 2H11 UNL     1     101.124  14.692  10.873  1.00  0.00     0.174 HD
ATOM     60 1H11 UNL     1     101.752  13.100  10.459  1.00  0.00     0.174 HD
ENDBRANCH  54  58
ENDBRANCH  46  49
ENDBRANCH  44  45
ENDBRANCH   5  44
TORSDOF 14
ENDMDL