MODEL 4
REMARK VINA RESULT: -7.954392630      1.249      1.910
REMARK  14 active torsions:
REMARK  status: ('A' for Active; 'I' for Inactive)
REMARK    1  A    between atoms: C3_6  and  C4_7
REMARK    2  A    between atoms: C4_7  and  N3_8
REMARK    3  A    between atoms: C4_7  and  O1_12
REMARK    4  A    between atoms: O1_12  and  C5_13
REMARK    5  A    between atoms: C6_14  and  O2_15
REMARK    6  A    between atoms: C7_17  and  O3_18
REMARK    7  A    between atoms: O3_18  and  S1_19
REMARK    8  A    between atoms: C8_23  and  O7_24
REMARK    9  A    between atoms: O7_24  and  S2_25
REMARK   10  A    between atoms: C9_29  and  O11_30
REMARK   11  A    between atoms: O11_30  and  S3_31
REMARK   12  A    between atoms: C10_35  and  O15_36
REMARK   13  A    between atoms: O15_36  and  S4_37
REMARK   14  A    between atoms: C12_42  and  N4_43
ROOT
HETATM    1  N1  UNL     1      90.556  18.444  10.827  1.00  0.00    -0.190 NA
HETATM    2  C1  UNL     1      91.276  19.107  10.224  1.00  0.00     0.120 C
HETATM    3  C2  UNL     1      92.182  19.928   9.499  1.00  0.00     0.147 A
HETATM    4  N2  UNL     1      93.354  19.578   8.979  1.00  0.00    -0.345 N
ATOM      5  H2  UNL     1      93.751  18.641   9.043  1.00  0.00     0.166 HD
HETATM    6  C3  UNL     1      93.952  20.612   8.355  1.00  0.00     0.069 A
HETATM    7  C11 UNL     1      93.082  21.671   8.507  1.00  0.00     0.068 A
HETATM    8  C12 UNL     1      91.988  21.260   9.210  1.00  0.00     0.142 A
ENDROOT
BRANCH   8   9
HETATM    9  N4  UNL     1      90.882  22.051   9.566  1.00  0.00    -0.113 N
HETATM   10  O19 UNL     1      90.692  22.452  10.724  1.00  0.00    -0.532 OA
HETATM   11  O20 UNL     1      89.961  22.410   8.619  1.00  0.00    -0.532 OA
ENDBRANCH   8   9
BRANCH   6  12
HETATM   12  C4  UNL     1      95.272  20.560   7.666  1.00  0.00     0.370 C
BRANCH  12  13
HETATM   13  N3  UNL     1      95.880  21.875   7.696  1.00  0.00    -0.047 N
ATOM     14  H33 UNL     1      95.508  22.489   6.972  1.00  0.00     0.277 HD
ATOM     15  H32 UNL     1      95.589  22.417   8.509  1.00  0.00     0.277 HD
ATOM     16  H31 UNL     1      96.894  21.779   7.638  1.00  0.00     0.277 HD
ENDBRANCH  12  13
BRANCH  12  17
HETATM   17  O1  UNL     1      95.209  20.020   6.403  1.00  0.00    -0.344 OA
BRANCH  17  18
HETATM   18  C5  UNL     1      95.188  18.649   6.346  1.00  0.00     0.189 C
HETATM   19  C6  UNL     1      96.570  18.077   6.703  1.00  0.00     0.182 C
HETATM   20  C7  UNL     1      96.563  16.584   6.658  1.00  0.00     0.209 C
HETATM   21  C8  UNL     1      96.123  16.072   5.278  1.00  0.00     0.211 C
HETATM   22  C9  UNL     1      94.704  16.634   5.100  1.00  0.00     0.211 C
HETATM   23  C10 UNL     1      94.837  18.109   4.974  1.00  0.00     0.210 C
BRANCH  19  24
HETATM   24  O2  UNL     1      97.552  18.661   5.925  1.00  0.00    -0.390 OA
ATOM     25  H2  UNL     1      98.207  19.078   6.472  1.00  0.00     0.210 HD
ENDBRANCH  19  24
BRANCH  20  26
HETATM   26  O3  UNL     1      97.853  16.145   6.953  1.00  0.00    -0.246 OA
BRANCH  26  27
HETATM   27  S1  UNL     1      97.858  14.850   8.001  1.00  0.00     0.252 S
HETATM   28  O4  UNL     1      97.906  13.577   7.167  1.00  0.00    -0.572 OA
HETATM   29  O5  UNL     1      96.580  14.792   8.787  1.00  0.00    -0.572 OA
HETATM   30  O6  UNL     1      99.196  14.860   9.023  1.00  0.00    -0.572 OA
ENDBRANCH  26  27
ENDBRANCH  20  26
BRANCH  21  31
HETATM   31  O7  UNL     1      97.006  16.617   4.382  1.00  0.00    -0.246 OA
BRANCH  31  32
HETATM   32  S2  UNL     1      97.859  15.513   3.485  1.00  0.00     0.252 S
HETATM   33  O8  UNL     1      99.324  15.538   3.735  1.00  0.00    -0.572 OA
HETATM   34  O9  UNL     1      97.370  14.130   3.894  1.00  0.00    -0.572 OA
HETATM   35  O10 UNL     1      97.493  15.671   1.836  1.00  0.00    -0.572 OA
ENDBRANCH  31  32
ENDBRANCH  21  31
BRANCH  22  36
HETATM   36  O11 UNL     1      93.979  15.989   4.167  1.00  0.00    -0.246 OA
BRANCH  36  37
HETATM   37  S3  UNL     1      92.389  15.750   4.387  1.00  0.00     0.252 S
HETATM   38  O12 UNL     1      91.642  16.254   3.162  1.00  0.00    -0.572 OA
HETATM   39  O13 UNL     1      91.777  16.412   5.569  1.00  0.00    -0.572 OA
HETATM   40  O14 UNL     1      92.062  14.103   4.483  1.00  0.00    -0.572 OA
ENDBRANCH  36  37
ENDBRANCH  22  36
BRANCH  23  41
HETATM   41  O15 UNL     1      93.763  18.742   4.393  1.00  0.00    -0.246 OA
BRANCH  41  42
HETATM   42  S4  UNL     1      94.116  19.367   2.874  1.00  0.00     0.252 S
HETATM   43  O16 UNL     1      94.012  20.872   2.907  1.00  0.00    -0.572 OA
HETATM   44  O17 UNL     1      93.169  18.885   1.831  1.00  0.00    -0.572 OA
HETATM   45  O18 UNL     1      95.722  19.025   2.448  1.00  0.00    -0.572 OA
ENDBRANCH  41  42
ENDBRANCH  23  41
ENDBRANCH  17  18
ENDBRANCH  12  17
ENDBRANCH   6  12
TORSDOF 14
ENDMDL