MODEL 3
REMARK VINA RESULT: -9.773538593      2.784      9.958
REMARK  14 active torsions:
REMARK  status: ('A' for Active; 'I' for Inactive)
REMARK    1  A    between atoms: C2_2  and  N1_3
REMARK    2  A    between atoms: C2_2  and  C3_7
REMARK    3  A    between atoms: C3_7  and  O1_11
REMARK    4  A    between atoms: O1_11  and  C4_12
REMARK    5  A    between atoms: C4_12  and  N3_13
REMARK    6  A    between atoms: C10_23  and  N5_24
REMARK    7  A    between atoms: N5_24  and  C11_25
REMARK    8  A    between atoms: N5_24  and  C22_45
REMARK    9  A    between atoms: C11_25  and  C12_26
REMARK   10  A    between atoms: C12_26  and  O4_27
REMARK   11  A    between atoms: C12_26  and  C13_29
REMARK   12  A    between atoms: C13_29  and  S1_30
REMARK   13  A    between atoms: S1_30  and  C14_33
REMARK   14  A    between atoms: C22_45  and  C23_46
ROOT
HETATM    1  N5  UNL     1      94.244  20.803   5.745  1.00  0.00    -0.335 N
ENDROOT
BRANCH   1   2
HETATM    2  C10 UNL     1      93.523  21.123   7.011  1.00  0.00     0.040 A
HETATM    3  C9  UNL     1      93.703  20.384   8.141  1.00  0.00     0.031 A
HETATM    4  C8  UNL     1      92.984  20.689   9.306  1.00  0.00     0.022 A
HETATM    5  C7  UNL     1      92.094  21.759   9.264  1.00  0.00     0.059 A
HETATM    6  C6  UNL     1      91.363  22.069  10.403  1.00  0.00     0.261 A
HETATM    7  C27 UNL     1      91.908  22.500   8.142  1.00  0.00     0.063 A
HETATM    8  N4  UNL     1      90.510  23.096  10.312  1.00  0.00    -0.274 N
HETATM    9  O3  UNL     1      91.526  21.392  11.445  1.00  0.00    -0.267 OA
HETATM   10  C5  UNL     1      90.358  23.813   9.156  1.00  0.00     0.335 A
ATOM     11  H4  UNL     1      89.957  23.353  11.129  1.00  0.00     0.173 HD
HETATM   12  N3  UNL     1      91.037  23.553   8.043  1.00  0.00    -0.253 N
HETATM   13  O2  UNL     1      89.519  24.738   9.235  1.00  0.00    -0.246 OA
HETATM   14  C26 UNL     1      92.631  22.169   7.023  1.00  0.00     0.061 A
BRANCH  12  15
HETATM   15  C4  UNL     1      90.918  24.256   6.835  1.00  0.00     0.247 C
BRANCH  15  16
HETATM   16  O1  UNL     1      89.871  23.817   6.033  1.00  0.00    -0.291 OA
BRANCH  16  17
HETATM   17  C3  UNL     1      88.525  23.995   6.199  1.00  0.00     0.149 C
HETATM   18  N2  UNL     1      88.234  25.255   6.506  1.00  0.00    -0.381 N
ATOM     19  H22 UNL     1      87.231  25.388   6.630  1.00  0.00     0.158 HD
ATOM     20  H21 UNL     1      88.978  25.947   6.588  1.00  0.00     0.158 HD
BRANCH  17  21
HETATM   21  C2  UNL     1      87.449  22.995   6.080  1.00  0.00     0.253 C
HETATM   22  C1  UNL     1      87.361  22.057   7.256  1.00  0.00     0.049 C
BRANCH  21  23
HETATM   23  N1  UNL     1      86.176  23.730   6.037  1.00  0.00    -0.068 N
ATOM     24  H13 UNL     1      86.290  24.725   5.846  1.00  0.00     0.275 HD
ATOM     25  H12 UNL     1      85.609  23.509   5.219  1.00  0.00     0.275 HD
ATOM     26  H11 UNL     1      85.703  23.539   6.921  1.00  0.00     0.275 HD
ENDBRANCH  21  23
ENDBRANCH  17  21
ENDBRANCH  16  17
ENDBRANCH  15  16
ENDBRANCH  12  15
ENDBRANCH   1   2
BRANCH   1  27
HETATM   27  C11 UNL     1      95.544  21.334   5.616  1.00  0.00     0.102 C
BRANCH  27  28
HETATM   28  C12 UNL     1      96.740  20.658   6.136  1.00  0.00     0.171 C
BRANCH  28  29
HETATM   29  O4  UNL     1      97.104  21.264   7.346  1.00  0.00    -0.389 OA
ATOM     30  H4  UNL     1      98.049  21.219   7.435  1.00  0.00     0.210 HD
ENDBRANCH  28  29
BRANCH  28  31
HETATM   31  C13 UNL     1      96.269  19.223   6.542  1.00  0.00     0.179 C
BRANCH  31  32
HETATM   32  S1  UNL     1      97.263  18.008   5.765  1.00  0.00     0.170 S
HETATM   33  O5  UNL     1      96.782  17.940   4.301  1.00  0.00    -0.226 OA
HETATM   34  O6  UNL     1      98.718  18.438   5.613  1.00  0.00    -0.226 OA
BRANCH  32  35
HETATM   35  C14 UNL     1      97.168  16.402   6.467  1.00  0.00     0.234 C
HETATM   36  C15 UNL     1      97.775  16.329   7.822  1.00  0.00     0.050 C
HETATM   37  C16 UNL     1      97.817  14.949   8.370  1.00  0.00     0.083 C
HETATM   38  C17 UNL     1      96.601  14.161   8.098  1.00  0.00     0.146 C
HETATM   39  O7  UNL     1      95.783  13.995   8.987  1.00  0.00    -0.296 OA
HETATM   40  C18 UNL     1      96.240  13.516   6.816  1.00  0.00     0.226 C
HETATM   41  N6  UNL     1      97.110  14.052   5.765  1.00  0.00    -0.290 N
HETATM   42  C19 UNL     1      97.606  13.281   4.783  1.00  0.00     0.116 A
HETATM   43  N7  UNL     1      97.542  15.313   5.565  1.00  0.00    -0.236 N
HETATM   44  C20 UNL     1      98.354  14.071   3.962  1.00  0.00     0.095 A
HETATM   45  C21 UNL     1      98.304  15.378   4.479  1.00  0.00     0.264 A
HETATM   46  O8  UNL     1      98.900  16.340   3.934  1.00  0.00    -0.267 OA
ENDBRANCH  32  35
ENDBRANCH  31  32
ENDBRANCH  28  31
ENDBRANCH  27  28
ENDBRANCH   1  27
BRANCH   1  47
HETATM   47  C22 UNL     1      93.503  20.011   4.869  1.00  0.00     0.102 C
BRANCH  47  48
HETATM   48  C23 UNL     1      93.466  18.540   4.908  1.00  0.00     0.188 A
HETATM   49  N8  UNL     1      92.455  17.895   5.659  1.00  0.00    -0.349 N
HETATM   50  C24 UNL     1      91.688  17.202   4.910  1.00  0.00     0.190 A
ATOM     51  H8  UNL     1      92.353  17.974   6.670  1.00  0.00     0.163 HD
HETATM   52  N9  UNL     1      90.546  16.396   5.254  1.00  0.00    -0.063 NA
HETATM   53  N10 UNL     1      92.142  17.334   3.572  1.00  0.00    -0.321 N
HETATM   54  C25 UNL     1      93.164  18.090   3.494  1.00  0.00     0.123 A
ATOM     55  H10 UNL     1      91.703  16.879   2.772  1.00  0.00     0.169 HD
HETATM   56  N11 UNL     1      93.944  18.500   2.377  1.00  0.00    -0.085 NA
ENDBRANCH  47  48
ENDBRANCH   1  47
TORSDOF 14
ENDMDL