MODEL 1
REMARK VINA RESULT: -9.179666645      0.000      0.000
REMARK  18 active torsions:
REMARK  status: ('A' for Active; 'I' for Inactive)
REMARK    1  A    between atoms: O1_2  and  C2_3
REMARK    2  A    between atoms: C2_3  and  C3_4
REMARK    3  A    between atoms: C2_3  and  C5_10
REMARK    4  A    between atoms: C3_4  and  O2_5
REMARK    5  A    between atoms: C3_4  and  C4_7
REMARK    6  A    between atoms: C4_7  and  O3_8
REMARK    7  A    between atoms: C5_10  and  O4_11
REMARK    8  A    between atoms: C5_10  and  C16_50
REMARK    9  A    between atoms: O4_11  and  N1_12
REMARK   10  A    between atoms: C6_13  and  N2_14
REMARK   11  A    between atoms: N2_14  and  C7_16
REMARK   12  A    between atoms: C10_19  and  S1_20
REMARK   13  A    between atoms: S1_20  and  N3_23
REMARK   14  A    between atoms: N3_23  and  C11_25
REMARK   15  A    between atoms: C12_30  and  S2_31
REMARK   16  A    between atoms: S2_31  and  N6_32
REMARK   17  A    between atoms: C14_43  and  O9_44
REMARK   18  A    between atoms: C18_53  and  N10_54
ROOT
HETATM    1  N1  UNL     1      96.237  17.949   6.629  1.00  0.00    -0.152 N
HETATM    2  C6  UNL     1      95.476  18.847   7.255  1.00  0.00     0.144 A
HETATM    3  C13 UNL     1      95.969  20.119   7.576  1.00  0.00     0.107 A
HETATM    4  C14 UNL     1      97.254  20.442   7.240  1.00  0.00     0.147 A
HETATM    5  N9  UNL     1      97.973  19.502   6.612  1.00  0.00    -0.287 N
ATOM      6  H9  UNL     1      98.933  19.734   6.356  1.00  0.00     0.172 HD
HETATM    7  C15 UNL     1      97.528  18.291   6.297  1.00  0.00     0.354 A
HETATM    8  O10 UNL     1      98.291  17.469   5.698  1.00  0.00    -0.244 OA
ENDROOT
BRANCH   2   9
HETATM    9  N2  UNL     1      94.262  18.660   7.611  1.00  0.00    -0.326 N
ATOM     10  H2  UNL     1      93.943  17.692   7.645  1.00  0.00     0.169 HD
BRANCH   9  11
HETATM   11  C7  UNL     1      93.323  19.638   7.959  1.00  0.00     0.121 A
HETATM   12  C8  UNL     1      92.616  19.554   9.139  1.00  0.00     0.053 A
HETATM   13  C9  UNL     1      91.707  20.533   9.439  1.00  0.00     0.049 A
HETATM   14  C10 UNL     1      91.534  21.566   8.550  1.00  0.00     0.164 A
HETATM   15  N7  UNL     1      92.244  21.612   7.411  1.00  0.00    -0.287 N
HETATM   16  N8  UNL     1      93.110  20.672   7.132  1.00  0.00    -0.284 N
ATOM     17  H7  UNL     1      92.106  22.384   6.759  1.00  0.00     0.188 HD
ATOM     18  H8  UNL     1      93.638  20.727   6.261  1.00  0.00     0.188 HD
BRANCH  14  19
HETATM   19  S1  UNL     1      90.394  22.868   8.841  1.00  0.00     0.281 S
HETATM   20  O5  UNL     1      90.159  22.901  10.335  1.00  0.00    -0.199 OA
HETATM   21  O6  UNL     1      91.038  24.141   8.368  1.00  0.00    -0.199 OA
BRANCH  19  22
HETATM   22  N3  UNL     1      88.952  22.533   7.961  1.00  0.00    -0.257 N
ATOM     23  H3  UNL     1      88.967  21.924   7.142  1.00  0.00     0.181 HD
BRANCH  22  24
HETATM   24  C11 UNL     1      87.835  23.082   8.370  1.00  0.00     0.175 A
HETATM   25  N4  UNL     1      87.639  23.897   9.412  1.00  0.00    -0.278 N
HETATM   26  N5  UNL     1      86.468  24.321   9.644  1.00  0.00    -0.281 N
ATOM     27  H4  UNL     1      88.419  24.172  10.009  1.00  0.00     0.189 HD
HETATM   28  C12 UNL     1      85.459  23.958   8.865  1.00  0.00     0.208 A
ATOM     29  H5  UNL     1      86.301  24.945  10.434  1.00  0.00     0.188 HD
HETATM   30  S3  UNL     1      86.250  22.950   7.735  1.00  0.00    -0.019 SA
BRANCH  28  31
HETATM   31  S2  UNL     1      83.752  24.418   8.997  1.00  0.00     0.280 S
HETATM   32  O7  UNL     1      83.267  24.070  10.371  1.00  0.00    -0.199 OA
HETATM   33  O8  UNL     1      82.955  23.774   7.915  1.00  0.00    -0.199 OA
BRANCH  31  34
HETATM   34  N6  UNL     1      83.655  26.152   8.839  1.00  0.00    -0.323 N
ATOM     35  H62 UNL     1      83.560  26.660   7.960  1.00  0.00     0.169 HD
ATOM     36  H61 UNL     1      83.708  26.554   9.775  1.00  0.00     0.169 HD
ENDBRANCH  31  34
ENDBRANCH  28  31
ENDBRANCH  22  24
ENDBRANCH  19  22
ENDBRANCH  14  19
ENDBRANCH   9  11
ENDBRANCH   2   9
BRANCH   1  37
HETATM   37  O4  UNL     1      95.836  16.737   6.295  1.00  0.00    -0.253 OA
BRANCH  37  38
HETATM   38  C5  UNL     1      95.744  16.059   5.121  1.00  0.00     0.234 C
BRANCH  38  39
HETATM   39  C2  UNL     1      95.831  14.556   5.208  1.00  0.00     0.189 C
BRANCH  39  40
HETATM   40  O1  UNL     1      94.564  14.057   5.522  1.00  0.00    -0.385 OA
HETATM   41  C1  UNL     1      94.198  12.960   4.785  1.00  0.00     0.202 C
ENDBRANCH  39  40
BRANCH  39  42
HETATM   42  C3  UNL     1      96.882  14.029   6.129  1.00  0.00     0.173 C
BRANCH  42  43
HETATM   43  O2  UNL     1      97.967  14.852   6.163  1.00  0.00    -0.391 OA
ATOM     44  H2  UNL     1      97.943  15.421   6.923  1.00  0.00     0.210 HD
ENDBRANCH  42  43
BRANCH  42  45
HETATM   45  C4  UNL     1      96.372  13.626   7.494  1.00  0.00     0.198 C
BRANCH  45  46
HETATM   46  O3  UNL     1      96.068  14.803   8.218  1.00  0.00    -0.398 OA
ATOM     47  H3  UNL     1      95.479  15.332   7.692  1.00  0.00     0.209 HD
ENDBRANCH  45  46
ENDBRANCH  42  45
ENDBRANCH  39  42
ENDBRANCH  38  39
BRANCH  38  48
HETATM   48  C16 UNL     1      94.338  16.352   4.541  1.00  0.00     0.052 A
HETATM   49  C17 UNL     1      94.164  16.478   3.197  1.00  0.00     0.081 A
HETATM   50  S4  UNL     1      92.488  16.806   3.080  1.00  0.00    -0.064 SA
HETATM   51  C18 UNL     1      92.116  16.761   4.744  1.00  0.00     0.142 A
HETATM   52  N11 UNL     1      93.288  16.498   5.314  1.00  0.00    -0.338 N
ATOM     53  H11 UNL     1      93.369  16.412   6.327  1.00  0.00     0.168 HD
BRANCH  51  54
HETATM   54  N10 UNL     1      90.942  16.947   5.308  1.00  0.00    -0.380 N
ATOM     55 2H10 UNL     1      90.405  16.313   5.900  1.00  0.00     0.158 HD
ATOM     56 1H10 UNL     1      90.350  17.776   5.253  1.00  0.00     0.158 HD
ENDBRANCH  51  54
ENDBRANCH  38  48
ENDBRANCH  37  38
ENDBRANCH   1  37
BRANCH   4  57
HETATM   57  O9  UNL     1      97.805  21.700   7.534  1.00  0.00    -0.346 OA
ATOM     58  H9  UNL     1      98.660  21.792   7.937  1.00  0.00     0.219 HD
ENDBRANCH   4  57
TORSDOF 18
ENDMDL