MODEL 3
REMARK VINA RESULT: -9.361347449      1.810      2.333
REMARK  18 active torsions:
REMARK  status: ('A' for Active; 'I' for Inactive)
REMARK    1  A    between atoms: C2_8  and  S1_9
REMARK    2  A    between atoms: S1_9  and  C3_10
REMARK    3  A    between atoms: C3_10  and  C4_11
REMARK    4  A    between atoms: C4_11  and  N5_12
REMARK    5  A    between atoms: C5_19  and  S2_20
REMARK    6  A    between atoms: S2_20  and  C6_21
REMARK    7  A    between atoms: C6_21  and  C7_22
REMARK    8  A    between atoms: C8_23  and  C9_24
REMARK    9  A    between atoms: C11_30  and  N10_31
REMARK   10  A    between atoms: N10_31  and  C12_33
REMARK   11  A    between atoms: C12_33  and  C13_38
REMARK   12  A    between atoms: N11_34  and  O4_36
REMARK   13  A    between atoms: C13_38  and  N14_48
REMARK       I    between atoms: N12_39  and  C14_41
REMARK   14  A    between atoms: C14_41  and  C15_43
REMARK   15  A    between atoms: C15_43  and  N13_44
REMARK   16  A    between atoms: N14_48  and  C16_50
REMARK   17  A    between atoms: C16_50  and  N15_52
REMARK   18  A    between atoms: N15_52  and  N16_54
ROOT
HETATM    1  C7  UNL     1      93.744  19.703   7.217  1.00  0.00    -0.027 C
HETATM    2  C8  UNL     1      93.982  20.945   6.844  1.00  0.00     0.119 C
HETATM    3  N9  UNL     1      93.236  22.014   7.455  1.00  0.00    -0.293 N
HETATM    4  C10 UNL     1      92.492  23.187   7.304  1.00  0.00     0.251 C
HETATM    5  O3  UNL     1      92.513  24.236   6.580  1.00  0.00    -0.271 OA
HETATM    6  C11 UNL     1      91.634  22.633   8.415  1.00  0.00     0.209 C
HETATM    7  C17 UNL     1      93.000  22.140   8.888  1.00  0.00     0.187 C
HETATM    8  S4  UNL     1      92.981  20.507   9.654  1.00  0.00    -0.136 SA
HETATM    9  C18 UNL     1      92.664  19.375   8.231  1.00  0.00     0.113 C
ENDROOT
BRANCH   6  10
HETATM   10  N10 UNL     1      91.014  23.618   9.204  1.00  0.00    -0.356 N
ATOM     11  H10 UNL     1      91.521  24.477   9.420  1.00  0.00     0.162 HD
BRANCH  10  12
HETATM   12  C12 UNL     1      89.702  23.446   9.704  1.00  0.00     0.167 C
HETATM   13  N11 UNL     1      89.518  22.878  10.883  1.00  0.00    -0.250 N
ATOM     14  H11 UNL     1      88.559  22.769  11.213  1.00  0.00     0.196 HD
BRANCH  13  15
HETATM   15  O4  UNL     1      90.520  22.431  11.685  1.00  0.00    -0.288 OA
ATOM     16  H4  UNL     1      91.282  22.943  11.930  1.00  0.00     0.244 HD
ENDBRANCH  13  15
BRANCH  12  17
HETATM   17  C13 UNL     1      88.499  23.854   9.005  1.00  0.00     0.156 C
HETATM   18  N12 UNL     1      88.444  24.444   7.948  1.00  0.00    -0.308 N
HETATM   19  C14 UNL     1      89.113  25.008   6.921  1.00  0.00     0.248 C
ATOM     20  H12 UNL     1      87.452  24.570   7.745  1.00  0.00     0.170 HD
HETATM   21  O5  UNL     1      89.880  26.042   6.990  1.00  0.00    -0.271 OA
BRANCH  19  22
HETATM   22  C15 UNL     1      89.014  24.445   5.517  1.00  0.00     0.332 C
BRANCH  22  23
HETATM   23  N13 UNL     1      90.310  24.632   4.908  1.00  0.00    -0.071 N
ATOM     24 3H13 UNL     1      90.514  25.606   4.683  1.00  0.00     0.274 HD
ATOM     25 2H13 UNL     1      91.085  24.486   5.555  1.00  0.00     0.274 HD
ATOM     26 1H13 UNL     1      90.340  24.016   4.096  1.00  0.00     0.274 HD
ENDBRANCH  22  23
ENDBRANCH  19  22
BRANCH  17  27
HETATM   27  N14 UNL     1      87.262  23.512   9.684  1.00  0.00    -0.315 N
ATOM     28  H14 UNL     1      87.210  23.513  10.702  1.00  0.00     0.170 HD
BRANCH  27  29
HETATM   29  C16 UNL     1      86.143  23.183   8.914  1.00  0.00     0.191 C
HETATM   30  S3  UNL     1      84.803  24.114   8.953  1.00  0.00    -0.039 SA
BRANCH  29  31
HETATM   31  N15 UNL     1      86.102  22.035   8.063  1.00  0.00    -0.283 N
ATOM     32  H15 UNL     1      86.112  21.110   8.493  1.00  0.00     0.188 HD
BRANCH  31  33
HETATM   33  N16 UNL     1      86.051  22.121   6.692  1.00  0.00    -0.343 N
ATOM     34 2H16 UNL     1      86.743  22.711   6.231  1.00  0.00     0.176 HD
ATOM     35 1H16 UNL     1      85.359  21.625   6.129  1.00  0.00     0.176 HD
ENDBRANCH  31  33
ENDBRANCH  29  31
ENDBRANCH  27  29
ENDBRANCH  17  27
ENDBRANCH  12  17
ENDBRANCH  10  12
ENDBRANCH   6  10
BRANCH   2  36
HETATM   36  C9  UNL     1      94.976  21.300   5.869  1.00  0.00     0.227 C
HETATM   37  O1  UNL     1      96.139  21.667   6.317  1.00  0.00    -0.643 OA
HETATM   38  O2  UNL     1      94.895  21.319   4.497  1.00  0.00    -0.643 OA
ENDBRANCH   2  36
BRANCH   1  39
HETATM   39  C6  UNL     1      94.467  18.553   6.691  1.00  0.00     0.120 C
BRANCH  39  40
HETATM   40  S2  UNL     1      96.044  18.212   7.487  1.00  0.00    -0.087 SA
BRANCH  40  41
HETATM   41  C5  UNL     1      97.285  17.503   6.471  1.00  0.00     0.178 A
HETATM   42  N5  UNL     1      97.391  16.247   6.053  1.00  0.00    -0.253 N
HETATM   43  N6  UNL     1      98.510  16.141   5.335  1.00  0.00    -0.224 N
HETATM   44  N7  UNL     1      99.110  17.302   5.292  1.00  0.00    -0.226 N
ATOM     45  H6  UNL     1      98.846  15.287   4.889  1.00  0.00     0.210 HD
HETATM   46  N8  UNL     1      98.381  18.151   5.979  1.00  0.00    -0.263 N
ATOM     47  H7  UNL     1      99.986  17.510   4.813  1.00  0.00     0.210 HD
ATOM     48  H8  UNL     1      98.598  19.137   6.122  1.00  0.00     0.190 HD
BRANCH  42  49
HETATM   49  C4  UNL     1      96.499  15.151   6.287  1.00  0.00     0.163 C
BRANCH  49  50
HETATM   50  C3  UNL     1      97.195  13.989   6.958  1.00  0.00     0.104 C
BRANCH  50  51
HETATM   51  S1  UNL     1      97.876  14.459   8.566  1.00  0.00    -0.090 SA
BRANCH  51  52
HETATM   52  C2  UNL     1      98.204  13.007   9.549  1.00  0.00     0.175 A
HETATM   53  N1  UNL     1      99.279  12.745  10.309  1.00  0.00    -0.257 N
HETATM   54  C1  UNL     1     100.440  13.598  10.517  1.00  0.00     0.177 C
HETATM   55  N2  UNL     1      99.064  11.541  10.838  1.00  0.00    -0.003 NA
HETATM   56  N3  UNL     1      97.891  11.072  10.420  1.00  0.00    -0.224 N
HETATM   57  N4  UNL     1      97.355  11.968   9.625  1.00  0.00    -0.266 N
ATOM     58  H3  UNL     1      97.482  10.173  10.673  1.00  0.00     0.205 HD
ATOM     59  H4  UNL     1      96.455  11.890   9.150  1.00  0.00     0.190 HD
ENDBRANCH  51  52
ENDBRANCH  50  51
ENDBRANCH  49  50
ENDBRANCH  42  49
ENDBRANCH  40  41
ENDBRANCH  39  40
ENDBRANCH   1  39
TORSDOF 18
ENDMDL