MODEL 2
REMARK VINA RESULT: -8.266414932      0.262      1.286
REMARK  16 active torsions:
REMARK  status: ('A' for Active; 'I' for Inactive)
REMARK    1  A    between atoms: C2_2  and  C3_3
REMARK    2  A    between atoms: C3_3  and  O1_4
REMARK    3  A    between atoms: O1_4  and  S1_5
REMARK    4  A    between atoms: S1_5  and  O4_8
REMARK    5  A    between atoms: O4_8  and  C4_9
REMARK    6  A    between atoms: C8_18  and  C9_19
REMARK    7  A    between atoms: C9_19  and  O6_21
REMARK    8  A    between atoms: C11_23  and  C12_24
REMARK    9  A    between atoms: C17_31  and  O9_32
REMARK   10  A    between atoms: C19_35  and  C20_36
REMARK   11  A    between atoms: C20_36  and  O12_38
REMARK   12  A    between atoms: O12_38  and  C21_39
REMARK   13  A    between atoms: C21_39  and  C22_40
REMARK   14  A    between atoms: C23_43  and  N4_44
REMARK   15  A    between atoms: N5_47  and  N6_48
REMARK   16  A    between atoms: C24_51  and  N7_52
ROOT
HETATM    1  C4  UNL     1      95.323  19.149   6.194  1.00  0.00     0.381 C
HETATM    2  N1  UNL     1      94.424  18.680   7.196  1.00  0.00     0.011 N
ATOM      3  H11 UNL     1      94.044  19.300   7.912  1.00  0.00     0.284 HD
ATOM      4  H12 UNL     1      94.729  18.065   7.950  1.00  0.00     0.284 HD
HETATM    5  C5  UNL     1      93.647  18.214   6.126  1.00  0.00     0.502 C
HETATM    6  C6  UNL     1      94.069  19.508   5.456  1.00  0.00     0.258 C
HETATM    7  O5  UNL     1      93.617  20.342   4.733  1.00  0.00    -0.288 OA
HETATM    8  N2  UNL     1      94.479  17.256   5.357  1.00  0.00     0.180 N
HETATM    9  C7  UNL     1      93.849  17.220   4.106  1.00  0.00     0.294 C
HETATM   10  C8  UNL     1      94.499  16.442   3.013  1.00  0.00     0.040 C
HETATM   11  C11 UNL     1      93.670  16.534   1.730  1.00  0.00     0.123 C
HETATM   12  C13 UNL     1      94.738  16.539   0.687  1.00  0.00    -0.008 C
HETATM   13  C14 UNL     1      95.891  16.924   1.206  1.00  0.00    -0.077 C
HETATM   14  C15 UNL     1      97.098  16.996   0.304  1.00  0.00     0.044 C
HETATM   15  C16 UNL     1      95.669  17.209   2.598  1.00  0.00     0.083 C
HETATM   16  C17 UNL     1      96.831  17.229   3.527  1.00  0.00     0.272 C
HETATM   17  O10 UNL     1      96.549  18.154   4.515  1.00  0.00    -0.309 OA
HETATM   18  C19 UNL     1      95.757  17.795   5.546  1.00  0.00     0.421 C
ENDROOT
BRANCH  18  19
HETATM   19  C20 UNL     1      96.579  17.185   6.635  1.00  0.00     0.332 C
HETATM   20  O11 UNL     1      97.695  17.710   6.869  1.00  0.00    -0.259 OA
BRANCH  19  21
HETATM   21  O12 UNL     1      96.236  16.109   7.400  1.00  0.00    -0.310 OA
BRANCH  21  22
HETATM   22  C21 UNL     1      96.423  14.762   7.142  1.00  0.00     0.256 C
BRANCH  22  23
HETATM   23  C22 UNL     1      97.284  14.057   8.101  1.00  0.00     0.137 A
HETATM   24  N3  UNL     1      97.007  12.893   8.711  1.00  0.00    -0.176 N
HETATM   25  C23 UNL     1      97.842  12.301   9.584  1.00  0.00     0.713 A
ATOM     26  H3  UNL     1      96.120  12.436   8.501  1.00  0.00     0.185 HD
HETATM   27  N5  UNL     1      99.025  12.876   9.890  1.00  0.00     0.083 N
HETATM   28  C24 UNL     1      99.319  14.042   9.290  1.00  0.00     0.713 A
HETATM   29  N8  UNL     1      98.474  14.621   8.418  1.00  0.00    -0.176 N
ATOM     30  H8  UNL     1      98.735  15.507   7.984  1.00  0.00     0.185 HD
BRANCH  25  31
HETATM   31  N4  UNL     1      97.575  11.187  10.168  1.00  0.00    -0.232 N
ATOM     32  H42 UNL     1      96.837  11.206  10.872  1.00  0.00     0.174 HD
ATOM     33  H41 UNL     1      98.059  10.316   9.956  1.00  0.00     0.174 HD
ENDBRANCH  25  31
BRANCH  27  34
HETATM   34  N6  UNL     1      99.897  12.263  10.799  1.00  0.00    -0.309 N
ATOM     35  H62 UNL     1     100.309  12.768  11.583  1.00  0.00     0.178 HD
ATOM     36  H61 UNL     1     100.145  11.279  10.693  1.00  0.00     0.178 HD
ENDBRANCH  27  34
BRANCH  28  37
HETATM   37  N7  UNL     1     100.456  14.600   9.581  1.00  0.00    -0.232 N
ATOM     38  H72 UNL     1     101.204  14.060  10.018  1.00  0.00     0.174 HD
ATOM     39  H71 UNL     1     100.569  15.588   9.355  1.00  0.00     0.174 HD
ENDBRANCH  28  37
ENDBRANCH  22  23
ENDBRANCH  21  22
ENDBRANCH  19  21
ENDBRANCH  18  19
BRANCH   1  40
HETATM   40  O4  UNL     1      96.269  20.035   6.418  1.00  0.00    -0.199 OA
BRANCH  40  41
HETATM   41  S1  UNL     1      95.779  21.329   7.327  1.00  0.00     0.405 S
HETATM   42  O2  UNL     1      96.936  21.841   8.143  1.00  0.00    -0.169 OA
HETATM   43  O3  UNL     1      95.359  22.436   6.381  1.00  0.00    -0.169 OA
BRANCH  41  44
HETATM   44  O1  UNL     1      94.489  20.904   8.332  1.00  0.00    -0.254 OA
BRANCH  44  45
HETATM   45  C3  UNL     1      93.690  22.016   8.528  1.00  0.00     0.192 C
BRANCH  45  46
HETATM   46  C2  UNL     1      92.347  21.798   7.843  1.00  0.00     0.023 C
HETATM   47  C1  UNL     1      91.966  23.094   7.175  1.00  0.00     0.007 C
ENDBRANCH  45  46
ENDBRANCH  44  45
ENDBRANCH  41  44
ENDBRANCH  40  41
ENDBRANCH   1  40
BRANCH  16  48
HETATM   48  O9  UNL     1      97.299  16.043   3.951  1.00  0.00    -0.365 OA
HETATM   49  C18 UNL     1      98.627  15.759   3.859  1.00  0.00     0.204 C
ENDBRANCH  16  48
BRANCH  10  50
HETATM   50  C9  UNL     1      94.550  15.019   3.361  1.00  0.00     0.126 C
HETATM   51  C10 UNL     1      93.281  14.254   3.417  1.00  0.00     0.040 C
BRANCH  50  52
HETATM   52  O6  UNL     1      95.544  14.247   2.781  1.00  0.00    -0.395 OA
ATOM     53  H6  UNL     1      96.326  14.077   3.292  1.00  0.00     0.210 HD
ENDBRANCH  50  52
ENDBRANCH  10  50
BRANCH  11  54
HETATM   54  C12 UNL     1      92.848  17.753   1.668  1.00  0.00     0.181 C
HETATM   55  O7  UNL     1      91.587  17.707   1.625  1.00  0.00    -0.647 OA
HETATM   56  O8  UNL     1      93.434  19.005   1.653  1.00  0.00    -0.647 OA
ENDBRANCH  11  54
TORSDOF 16
ENDMDL