MODEL 1
REMARK VINA RESULT: -7.467365116      0.000      0.000
REMARK  19 active torsions:
REMARK  status: ('A' for Active; 'I' for Inactive)
REMARK    1  A    between atoms: O1_2  and  C2_3
REMARK    2  A    between atoms: C2_3  and  C3_5
REMARK    3  A    between atoms: C3_5  and  C4_6
REMARK    4  A    between atoms: C4_6  and  C5_7
REMARK    5  A    between atoms: C6_8  and  C7_9
REMARK    6  A    between atoms: C8_14  and  N2_15
REMARK    7  A    between atoms: C9_16  and  C10_17
REMARK    8  A    between atoms: C11_18  and  C12_19
REMARK    9  A    between atoms: C15_22  and  O6_23
REMARK   10  A    between atoms: O6_23  and  S1_24
REMARK   11  A    between atoms: S1_24  and  N3_25
REMARK   12  A    between atoms: C18_36  and  C19_37
REMARK   13  A    between atoms: C19_37  and  N6_38
REMARK   14  A    between atoms: C19_37  and  C20_42
REMARK   15  A    between atoms: C20_42  and  O9_43
REMARK   16  A    between atoms: N7_45  and  N8_47
REMARK   17  A    between atoms: S2_51  and  N9_53
REMARK   18  A    between atoms: N9_53  and  N10_55
REMARK   19  A    between atoms: N10_55  and  N11_57
ROOT
HETATM    1  N2  UNL     1      94.716  17.108   4.410  1.00  0.00    -0.285 N
HETATM    2  C9  UNL     1      94.702  18.234   5.328  1.00  0.00     0.125 A
HETATM    3  N4  UNL     1      93.540  18.198   5.944  1.00  0.00    -0.284 N
ATOM      4  H4  UNL     1      93.244  18.871   6.652  1.00  0.00     0.188 HD
HETATM    5  N5  UNL     1      92.831  17.216   5.542  1.00  0.00    -0.285 N
ATOM      6  H5  UNL     1      91.894  16.977   5.866  1.00  0.00     0.188 HD
HETATM    7  C18 UNL     1      93.529  16.568   4.632  1.00  0.00     0.141 A
ENDROOT
BRANCH   1   8
HETATM    8  C8  UNL     1      95.859  16.865   3.687  1.00  0.00     0.299 C
HETATM    9  O5  UNL     1      95.424  16.592   2.253  1.00  0.00    -0.246 OA
HETATM   10  N1  UNL     1      96.767  16.339   1.964  1.00  0.00    -0.226 N
HETATM   11  C6  UNL     1      97.865  16.616   1.134  1.00  0.00     0.150 C
HETATM   12  C21 UNL     1      96.671  15.700   3.302  1.00  0.00     0.269 C
HETATM   13  C5  UNL     1      99.051  16.322   1.500  1.00  0.00     0.035 C
HETATM   14  C22 UNL     1      99.269  15.232   2.516  1.00  0.00     0.171 C
HETATM   15  S2  UNL     1      98.307  15.620   3.932  1.00  0.00     0.072 S
HETATM   16  O10 UNL     1      98.820  16.879   4.532  1.00  0.00    -0.246 OA
BRANCH  11  17
HETATM   17  C7  UNL     1      97.542  17.574   0.079  1.00  0.00     0.230 C
HETATM   18  O3  UNL     1      97.288  18.728   0.337  1.00  0.00    -0.643 OA
HETATM   19  O4  UNL     1      97.525  17.198  -1.245  1.00  0.00    -0.643 OA
ENDBRANCH  11  17
BRANCH  13  20
HETATM   20  C4  UNL     1     100.346  16.928   0.962  1.00  0.00    -0.111 C
BRANCH  20  21
HETATM   21  C3  UNL     1     101.281  17.364   0.580  1.00  0.00     0.138 C
BRANCH  21  22
HETATM   22  C2  UNL     1     101.753  18.488  -0.276  1.00  0.00     0.290 C
HETATM   23  O2  UNL     1     103.022  18.677  -0.429  1.00  0.00    -0.260 OA
BRANCH  22  24
HETATM   24  O1  UNL     1     100.993  19.378  -0.935  1.00  0.00    -0.323 OA
HETATM   25  C1  UNL     1     100.288  20.490  -0.458  1.00  0.00     0.213 C
ENDBRANCH  22  24
ENDBRANCH  21  22
ENDBRANCH  20  21
ENDBRANCH  13  20
BRANCH  15  26
HETATM   26  N9  UNL     1      98.465  14.512   5.063  1.00  0.00    -0.243 N
ATOM     27  H9  UNL     1      98.994  13.648   4.944  1.00  0.00     0.198 HD
BRANCH  26  28
HETATM   28  N10 UNL     1      97.801  14.860   6.230  1.00  0.00    -0.242 N
ATOM     29  H10 UNL     1      96.880  14.470   6.432  1.00  0.00     0.208 HD
BRANCH  28  30
HETATM   30  N11 UNL     1      98.401  15.748   7.126  1.00  0.00    -0.330 N
ATOM     31 2H11 UNL     1      99.415  15.731   7.241  1.00  0.00     0.178 HD
ATOM     32 1H11 UNL     1      97.821  16.400   7.653  1.00  0.00     0.178 HD
ENDBRANCH  28  30
ENDBRANCH  26  28
ENDBRANCH  15  26
ENDBRANCH   1   8
BRANCH   2  33
HETATM   33  C10 UNL     1      95.729  19.219   5.290  1.00  0.00     0.051 C
HETATM   34  C11 UNL     1      95.884  20.385   5.751  1.00  0.00     0.015 C
BRANCH  34  35
HETATM   35  C12 UNL     1      94.985  21.166   6.568  1.00  0.00    -0.036 A
HETATM   36  C13 UNL     1      95.288  21.262   7.964  1.00  0.00     0.014 A
HETATM   37  C14 UNL     1      94.425  21.815   8.848  1.00  0.00     0.039 A
HETATM   38  C15 UNL     1      93.164  22.331   8.416  1.00  0.00     0.091 A
HETATM   39  C16 UNL     1      92.862  22.256   7.114  1.00  0.00     0.039 A
HETATM   40  C17 UNL     1      93.792  21.670   6.225  1.00  0.00     0.014 A
BRANCH  38  41
HETATM   41  O6  UNL     1      92.383  22.858   9.465  1.00  0.00    -0.217 OA
BRANCH  41  42
HETATM   42  S1  UNL     1      91.566  21.645  10.383  1.00  0.00     0.360 S
HETATM   43  O7  UNL     1      92.533  20.946  11.296  1.00  0.00    -0.176 OA
HETATM   44  O8  UNL     1      90.974  20.652   9.469  1.00  0.00    -0.176 OA
BRANCH  42  45
HETATM   45  N3  UNL     1      90.312  22.397  11.339  1.00  0.00    -0.305 N
ATOM     46  H32 UNL     1      90.109  23.397  11.346  1.00  0.00     0.171 HD
ATOM     47  H31 UNL     1      89.826  21.680  11.878  1.00  0.00     0.171 HD
ENDBRANCH  42  45
ENDBRANCH  41  42
ENDBRANCH  38  41
ENDBRANCH  34  35
ENDBRANCH   2  33
BRANCH   7  48
HETATM   48  C19 UNL     1      92.936  15.346   3.942  1.00  0.00     0.327 C
BRANCH  48  49
HETATM   49  N6  UNL     1      92.010  14.766   4.914  1.00  0.00    -0.061 N
ATOM     50  H63 UNL     1      92.378  14.736   5.866  1.00  0.00     0.275 HD
ATOM     51  H62 UNL     1      91.204  15.358   5.118  1.00  0.00     0.275 HD
ATOM     52  H61 UNL     1      91.764  13.851   4.539  1.00  0.00     0.275 HD
ENDBRANCH  48  49
BRANCH  48  53
HETATM   53  C20 UNL     1      92.142  15.948   2.841  1.00  0.00     0.168 C
HETATM   54  N7  UNL     1      92.335  16.426   1.615  1.00  0.00    -0.288 N
ATOM     55  H7  UNL     1      93.258  16.396   1.183  1.00  0.00     0.188 HD
BRANCH  53  56
HETATM   56  O9  UNL     1      90.828  16.006   3.283  1.00  0.00    -0.346 OA
ATOM     57  H9  UNL     1      90.295  15.606   2.606  1.00  0.00     0.219 HD
ENDBRANCH  53  56
BRANCH  54  58
HETATM   58  N8  UNL     1      91.187  17.000   0.894  1.00  0.00    -0.343 N
ATOM     59  H82 UNL     1      90.543  17.623   1.382  1.00  0.00     0.176 HD
ATOM     60  H81 UNL     1      91.059  16.760  -0.089  1.00  0.00     0.176 HD
ENDBRANCH  54  58
ENDBRANCH  48  53
ENDBRANCH   7  48
TORSDOF 19
ENDMDL