MODEL 4
REMARK VINA RESULT: -6.593087949      0.948      1.796
REMARK  16 active torsions:
REMARK  status: ('A' for Active; 'I' for Inactive)
REMARK    1  A    between atoms: C2_2  and  O2_4
REMARK    2  A    between atoms: O2_4  and  C3_5
REMARK    3  A    between atoms: N1_7  and  O3_9
REMARK    4  A    between atoms: O3_9  and  C5_10
REMARK    5  A    between atoms: C6_11  and  O4_12
REMARK    6  A    between atoms: C7_14  and  O5_15
REMARK    7  A    between atoms: O5_15  and  C8_16
REMARK    8  A    between atoms: C11_20  and  O6_21
REMARK    9  A    between atoms: C13_24  and  C14_25
REMARK   10  A    between atoms: C14_25  and  O7_26
REMARK   11  A    between atoms: C15_28  and  O8_29
REMARK   12  A    between atoms: O8_29  and  S2_30
REMARK   13  A    between atoms: C16_34  and  O12_35
REMARK   14  A    between atoms: O12_35  and  S3_36
REMARK   15  A    between atoms: C17_40  and  O16_41
REMARK   16  A    between atoms: O16_41  and  S4_42
ROOT
HETATM    1  C5  UNL     1      97.972  15.270   5.861  1.00  0.00     0.216 C
HETATM    2  C6  UNL     1      96.807  16.116   6.349  1.00  0.00     0.183 C
HETATM    3  C7  UNL     1      96.407  17.157   5.326  1.00  0.00     0.186 C
HETATM    4  C15 UNL     1      96.037  16.425   4.062  1.00  0.00     0.209 C
HETATM    5  C16 UNL     1      97.201  15.589   3.576  1.00  0.00     0.211 C
HETATM    6  C17 UNL     1      97.570  14.543   4.593  1.00  0.00     0.212 C
ENDROOT
BRANCH   3   7
HETATM    7  O5  UNL     1      95.307  17.835   5.848  1.00  0.00    -0.373 OA
BRANCH   7   8
HETATM    8  C8  UNL     1      95.669  18.912   6.635  1.00  0.00     0.143 C
HETATM    9  C9  UNL     1      94.491  19.444   7.413  1.00  0.00     0.090 C
HETATM   10  S1  UNL     1      93.016  19.550   6.316  1.00  0.00    -0.090 SA
HETATM   11  C10 UNL     1      94.707  20.716   8.107  1.00  0.00     0.050 C
HETATM   12  C11 UNL     1      95.850  21.561   7.732  1.00  0.00     0.119 C
HETATM   13  C12 UNL     1      96.974  20.892   7.013  1.00  0.00     0.041 C
HETATM   14  C13 UNL     1      96.426  19.981   5.920  1.00  0.00     0.042 C
BRANCH  12  15
HETATM   15  O6  UNL     1      96.423  22.192   8.864  1.00  0.00    -0.396 OA
ATOM     16  H6  UNL     1      96.957  21.589   9.366  1.00  0.00     0.210 HD
ENDBRANCH  12  15
BRANCH  14  17
HETATM   17  C14 UNL     1      95.613  20.786   4.958  1.00  0.00     0.171 C
BRANCH  17  18
HETATM   18  O7  UNL     1      95.479  20.160   3.722  1.00  0.00    -0.400 OA
ATOM     19  H7  UNL     1      94.653  20.364   3.299  1.00  0.00     0.209 HD
ENDBRANCH  17  18
ENDBRANCH  14  17
ENDBRANCH   7   8
ENDBRANCH   3   7
BRANCH   2  20
HETATM   20  O4  UNL     1      95.737  15.243   6.539  1.00  0.00    -0.390 OA
ATOM     21  H4  UNL     1      96.108  14.370   6.582  1.00  0.00     0.210 HD
ENDBRANCH   2  20
BRANCH   4  22
HETATM   22  O8  UNL     1      95.675  17.262   3.024  1.00  0.00    -0.246 OA
BRANCH  22  23
HETATM   23  S2  UNL     1      94.071  16.979   2.640  1.00  0.00     0.252 S
HETATM   24  O9  UNL     1      93.271  18.208   2.949  1.00  0.00    -0.572 OA
HETATM   25  O10 UNL     1      93.572  15.779   3.381  1.00  0.00    -0.572 OA
HETATM   26  O11 UNL     1      93.905  16.653   0.999  1.00  0.00    -0.572 OA
ENDBRANCH  22  23
ENDBRANCH   4  22
BRANCH   1  27
HETATM   27  O3  UNL     1      98.284  14.380   6.913  1.00  0.00    -0.268 OA
BRANCH  27  28
HETATM   28  N1  UNL     1      97.376  13.681   7.628  1.00  0.00    -0.248 N
HETATM   29  C3  UNL     1      97.713  13.209   8.775  1.00  0.00     0.142 C
HETATM   30  C4  UNL     1      99.071  13.412   9.330  1.00  0.00     0.099 C
ATOM     31  H1  UNL     1      96.436  13.530   7.262  1.00  0.00     0.196 HD
BRANCH  29  32
HETATM   32  O2  UNL     1      96.798  12.490   9.523  1.00  0.00    -0.265 OA
BRANCH  32  33
HETATM   33  C2  UNL     1      96.225  11.297   9.074  1.00  0.00     0.261 C
HETATM   34  C1  UNL     1      96.544   9.985   9.678  1.00  0.00     0.126 C
HETATM   35  O1  UNL     1      95.415  11.386   8.119  1.00  0.00    -0.265 OA
ENDBRANCH  32  33
ENDBRANCH  29  32
ENDBRANCH  27  28
ENDBRANCH   1  27
BRANCH   5  36
HETATM   36  O12 UNL     1      98.314  16.404   3.376  1.00  0.00    -0.246 OA
BRANCH  36  37
HETATM   37  S3  UNL     1      98.980  16.198   1.852  1.00  0.00     0.252 S
HETATM   38  O13 UNL     1      98.993  14.779   1.408  1.00  0.00    -0.572 OA
HETATM   39  O14 UNL     1      98.150  16.982   0.882  1.00  0.00    -0.572 OA
HETATM   40  O15 UNL     1     100.549  16.802   1.779  1.00  0.00    -0.572 OA
ENDBRANCH  36  37
ENDBRANCH   5  36
BRANCH   6  41
HETATM   41  O16 UNL     1      96.528  13.697   4.909  1.00  0.00    -0.246 OA
BRANCH  41  42
HETATM   42  S4  UNL     1      96.383  12.417   3.845  1.00  0.00     0.252 S
HETATM   43  O17 UNL     1      97.770  12.105   3.330  1.00  0.00    -0.572 OA
HETATM   44  O18 UNL     1      95.739  11.232   4.485  1.00  0.00    -0.572 OA
HETATM   45  O19 UNL     1      95.453  12.823   2.499  1.00  0.00    -0.572 OA
ENDBRANCH  41  42
ENDBRANCH   6  41
TORSDOF 16
ENDMDL