MODEL 1
REMARK VINA RESULT: -7.376539018      0.000      0.000
REMARK  10 active torsions:
REMARK  status: ('A' for Active; 'I' for Inactive)
REMARK    1  A    between atoms: C2_2  and  C3_3
REMARK    2  A    between atoms: C4_7  and  C5_8
REMARK    3  A    between atoms: C5_8  and  C6_9
REMARK    4  A    between atoms: C6_9  and  C7_10
REMARK       I    between atoms: C7_10  and  N2_12
REMARK    5  A    between atoms: N2_12  and  C8_14
REMARK    6  A    between atoms: C8_14  and  C9_15
REMARK    7  A    between atoms: C9_15  and  C10_16
REMARK    8  A    between atoms: C10_16  and  C11_17
REMARK    9  A    between atoms: C11_17  and  N3_18
REMARK   10  A    between atoms: C17_27  and  C18_28
ROOT
HETATM    1  C7  UNL     1       2.594  11.301   7.023  1.00  0.00     0.217 C
HETATM    2  O2  UNL     1       2.647  11.573   5.780  1.00  0.00    -0.274 OA
HETATM    3  N2  UNL     1       2.973  12.309   7.923  1.00  0.00    -0.361 N
ATOM      4  H2  UNL     1       2.936  12.104   8.921  1.00  0.00     0.162 HD
ENDROOT
BRANCH   1   5
HETATM    5  C6  UNL     1       2.143   9.960   7.406  1.00  0.00     0.109 C
BRANCH   5   6
HETATM    6  C5  UNL     1       0.606   9.867   7.392  1.00  0.00     0.077 C
BRANCH   6   7
HETATM    7  C4  UNL     1       0.243   8.709   6.567  1.00  0.00     0.085 A
HETATM    8  O1  UNL     1       1.072   7.847   5.979  1.00  0.00    -0.242 OA
HETATM    9  N1  UNL     1       0.405   6.950   5.332  1.00  0.00    -0.265 N
HETATM   10  C3  UNL     1      -0.909   7.201   5.478  1.00  0.00     0.041 A
ATOM     11  H1  UNL     1       0.807   6.178   4.799  1.00  0.00     0.194 HD
HETATM   12  C17 UNL     1      -1.049   8.325   6.267  1.00  0.00     0.002 A
BRANCH  10  13
HETATM   13  C2  UNL     1      -1.997   6.360   4.885  1.00  0.00     0.055 C
HETATM   14  C1  UNL     1      -1.379   5.242   4.105  1.00  0.00     0.011 C
ENDBRANCH  10  13
BRANCH  12  15
HETATM   15  C18 UNL     1      -2.327   8.907   6.616  1.00  0.00     0.023 C
HETATM   16  C19 UNL     1      -2.762  10.121   5.835  1.00  0.00     0.009 C
HETATM   17  C20 UNL     1      -4.121  10.338   6.551  1.00  0.00     0.001 C
HETATM   18  C21 UNL     1      -4.683   8.910   6.595  1.00  0.00     0.001 C
HETATM   19  C22 UNL     1      -3.509   7.995   6.325  1.00  0.00     0.009 C
ENDBRANCH  12  15
ENDBRANCH   6   7
ENDBRANCH   5   6
ENDBRANCH   1   5
BRANCH   3  20
HETATM   20  C8  UNL     1       3.416  13.628   7.508  1.00  0.00     0.123 C
BRANCH  20  21
HETATM   21  C9  UNL     1       4.909  13.718   7.758  1.00  0.00     0.025 C
BRANCH  21  22
HETATM   22  C10 UNL     1       5.390  13.064   8.981  1.00  0.00     0.046 C
BRANCH  22  23
HETATM   23  C11 UNL     1       5.519  13.809  10.249  1.00  0.00     0.064 C
BRANCH  23  24
HETATM   24  N3  UNL     1       5.309  13.175  11.462  1.00  0.00    -0.359 N
HETATM   25  C12 UNL     1       5.906  11.970  11.777  1.00  0.00     0.164 C
HETATM   26  C13 UNL     1       6.719  12.041  13.052  1.00  0.00     0.256 C
HETATM   27  O3  UNL     1       7.872  11.562  13.118  1.00  0.00    -0.267 OA
HETATM   28  N4  UNL     1       6.082  12.680  14.147  1.00  0.00    -0.354 N
HETATM   29  C14 UNL     1       4.820  13.336  13.880  1.00  0.00     0.148 C
ATOM     30  H4  UNL     1       6.495  12.679  15.079  1.00  0.00     0.162 HD
HETATM   31  C15 UNL     1       4.770  13.969  12.525  1.00  0.00     0.102 C
HETATM   32  C16 UNL     1       3.379  14.472  12.281  1.00  0.00     0.034 C
ENDBRANCH  23  24
ENDBRANCH  22  23
ENDBRANCH  21  22
ENDBRANCH  20  21
ENDBRANCH   3  20
TORSDOF 10
ENDMDL