MODEL 5
REMARK VINA RESULT: -5.947305284      1.189      1.963
REMARK  12 active torsions:
REMARK  status: ('A' for Active; 'I' for Inactive)
REMARK    1  A    between atoms: C2_2  and  N1_3
REMARK    2  A    between atoms: N1_3  and  C3_5
REMARK    3  A    between atoms: C3_5  and  C4_6
REMARK    4  A    between atoms: C3_5  and  C16_25
REMARK    5  A    between atoms: C4_6  and  C5_7
REMARK    6  A    between atoms: C5_7  and  C6_8
REMARK    7  A    between atoms: C6_8  and  C7_9
REMARK    8  A    between atoms: C7_9  and  C8_10
REMARK    9  A    between atoms: C8_10  and  C9_11
REMARK   10  A    between atoms: C9_11  and  N2_12
REMARK       I    between atoms: C10_14  and  N3_15
REMARK       I    between atoms: C10_14  and  N5_19
REMARK   11  A    between atoms: C16_25  and  N6_27
REMARK   12  A    between atoms: N6_27  and  C18_30
ROOT
HETATM    1  N2  UNL     1       0.102  12.233   7.611  1.00  0.00    -0.205 N
ATOM      2  H2  UNL     1       0.375  11.704   8.439  1.00  0.00     0.183 HD
HETATM    3  C10 UNL     1       0.218  11.454   6.708  1.00  0.00     0.689 C
HETATM    4  N3  UNL     1      -0.056  11.745   5.333  1.00  0.00    -0.126 N
ATOM      5  H3  UNL     1      -0.955  11.463   4.942  1.00  0.00     0.197 HD
HETATM    6  C11 UNL     1       0.854  12.399   4.513  1.00  0.00     0.196 C
HETATM    7  N4  UNL     1       1.599  12.956   3.824  1.00  0.00    -0.171 NA
HETATM    8  N5  UNL     1       0.675  10.114   6.995  1.00  0.00    -0.213 N
HETATM    9  C12 UNL     1       2.054   9.883   7.398  1.00  0.00     0.167 C
HETATM   10  C13 UNL     1       2.433   8.500   6.927  1.00  0.00     0.188 C
HETATM   11  O1  UNL     1       1.652   7.511   7.473  1.00  0.00    -0.388 OA
HETATM   12  C14 UNL     1       0.387   7.914   7.816  1.00  0.00     0.188 C
HETATM   13  C15 UNL     1      -0.199   8.971   6.903  1.00  0.00     0.167 C
ENDROOT
BRANCH   1  14
HETATM   14  C9  UNL     1      -0.212  13.478   8.090  1.00  0.00     0.079 C
BRANCH  14  15
HETATM   15  C8  UNL     1       0.973  14.265   8.583  1.00  0.00     0.045 C
BRANCH  15  16
HETATM   16  C7  UNL     1       1.664  14.952   7.461  1.00  0.00     0.005 C
BRANCH  16  17
HETATM   17  C6  UNL     1       3.005  14.269   7.239  1.00  0.00     0.001 C
BRANCH  17  18
HETATM   18  C5  UNL     1       3.451  13.421   8.385  1.00  0.00     0.006 C
BRANCH  18  19
HETATM   19  C4  UNL     1       4.925  13.231   8.427  1.00  0.00     0.054 C
BRANCH  19  20
HETATM   20  C3  UNL     1       5.545  13.955   9.610  1.00  0.00     0.016 C
BRANCH  20  21
HETATM   21  N1  UNL     1       5.638  15.124   9.717  1.00  0.00    -0.375 N
ATOM     22  H1  UNL     1       6.583  15.216  10.091  1.00  0.00     0.164 HD
BRANCH  21  23
HETATM   23  C2  UNL     1       5.255  16.415   9.645  1.00  0.00     0.056 C
HETATM   24  C1  UNL     1       3.839  16.711  10.127  1.00  0.00     0.054 C
ENDBRANCH  21  23
ENDBRANCH  20  21
BRANCH  20  25
HETATM   25  C16 UNL     1       6.048  12.989  10.662  1.00  0.00     0.227 C
HETATM   26  C17 UNL     1       7.076  13.635  11.552  1.00  0.00     0.046 C
BRANCH  25  27
HETATM   27  N6  UNL     1       5.006  12.346  11.377  1.00  0.00    -0.062 N
ATOM     28  H62 UNL     1       4.156  12.281  10.818  1.00  0.00     0.278 HD
ATOM     29  H61 UNL     1       5.195  11.350  11.496  1.00  0.00     0.278 HD
BRANCH  27  30
HETATM   30  C18 UNL     1       4.756  12.978  12.626  1.00  0.00     0.186 C
HETATM   31  C19 UNL     1       4.351  12.002  13.731  1.00  0.00     0.033 C
HETATM   32  C20 UNL     1       3.792  12.922  14.798  1.00  0.00     0.002 C
HETATM   33  C21 UNL     1       3.439  14.227  14.092  1.00  0.00     0.002 C
HETATM   34  C22 UNL     1       3.510  13.873  12.620  1.00  0.00     0.033 C
ENDBRANCH  27  30
ENDBRANCH  25  27
ENDBRANCH  20  25
ENDBRANCH  19  20
ENDBRANCH  18  19
ENDBRANCH  17  18
ENDBRANCH  16  17
ENDBRANCH  15  16
ENDBRANCH  14  15
ENDBRANCH   1  14
TORSDOF 12
ENDMDL