MODEL 2
REMARK VINA RESULT: -6.283006926      0.913      1.474
REMARK  10 active torsions:
REMARK  status: ('A' for Active; 'I' for Inactive)
REMARK    1  A    between atoms: C2_2  and  C3_3
REMARK    2  A    between atoms: C3_3  and  C4_4
REMARK    3  A    between atoms: C4_4  and  N1_5
REMARK       I    between atoms: N1_5  and  C5_6
REMARK    4  A    between atoms: N1_5  and  C14_17
REMARK    5  A    between atoms: C5_6  and  C6_8
REMARK    6  A    between atoms: C6_8  and  C7_9
REMARK    7  A    between atoms: C7_9  and  N2_10
REMARK    8  A    between atoms: N4_20  and  C16_21
REMARK    9  A    between atoms: C16_21  and  C17_22
REMARK   10  A    between atoms: C17_22  and  C18_23
ROOT
HETATM    1  N1  UNL     1       1.981  12.789   6.383  1.00  0.00    -0.310 N
HETATM    2  C5  UNL     1       1.593  13.340   5.111  1.00  0.00     0.226 C
HETATM    3  O1  UNL     1       1.861  14.539   4.859  1.00  0.00    -0.273 OA
ENDROOT
BRANCH   1   4
HETATM    4  C4  UNL     1       2.603  13.631   7.362  1.00  0.00     0.132 C
BRANCH   4   5
HETATM    5  C3  UNL     1       1.753  14.059   8.503  1.00  0.00     0.020 C
BRANCH   5   6
HETATM    6  C2  UNL     1       1.237  15.461   8.205  1.00  0.00    -0.003 C
HETATM    7  C1  UNL     1      -0.198  15.419   7.761  1.00  0.00     0.005 C
ENDBRANCH   5   6
ENDBRANCH   4   5
ENDBRANCH   1   4
BRANCH   1   8
HETATM    8  C14 UNL     1       1.716  11.425   6.661  1.00  0.00     0.147 A
HETATM    9  C15 UNL     1       0.513  10.934   7.090  1.00  0.00     0.155 A
HETATM   10  N3  UNL     1      -0.591  11.791   7.286  1.00  0.00    -0.080 NA
HETATM   11  N4  UNL     1       0.333   9.593   7.347  1.00  0.00    -0.285 N
HETATM   12  C20 UNL     1       1.357   8.763   7.171  1.00  0.00     0.330 A
HETATM   13  O2  UNL     1       1.319   7.514   7.378  1.00  0.00    -0.246 OA
HETATM   14  N5  UNL     1       2.554   9.252   6.743  1.00  0.00    -0.273 N
HETATM   15  C21 UNL     1       2.782  10.544   6.479  1.00  0.00     0.279 A
ATOM     16  H5  UNL     1       3.323   8.594   6.616  1.00  0.00     0.173 HD
HETATM   17  O3  UNL     1       3.904  10.948   6.086  1.00  0.00    -0.265 OA
BRANCH  11  18
HETATM   18  C16 UNL     1      -0.944   9.148   7.834  1.00  0.00     0.135 C
BRANCH  18  19
HETATM   19  C17 UNL     1      -2.008   8.919   6.842  1.00  0.00     0.020 C
BRANCH  19  20
HETATM   20  C18 UNL     1      -2.452   7.561   6.503  1.00  0.00    -0.003 C
HETATM   21  C19 UNL     1      -1.648   6.811   5.489  1.00  0.00     0.005 C
ENDBRANCH  19  20
ENDBRANCH  18  19
ENDBRANCH  11  18
ENDBRANCH   1   8
BRANCH   2  22
HETATM   22  C6  UNL     1       0.871  12.501   4.085  1.00  0.00     0.131 C
BRANCH  22  23
HETATM   23  C7  UNL     1      -0.053  13.382   3.317  1.00  0.00     0.246 C
BRANCH  23  24
HETATM   24  N2  UNL     1      -0.104  13.221   1.913  1.00  0.00    -0.070 N
HETATM   25  C8  UNL     1       0.545  14.415   1.329  1.00  0.00     0.272 C
HETATM   26  C9  UNL     1       0.779  12.120   1.534  1.00  0.00     0.237 C
HETATM   27  C10 UNL     1       1.063  12.217   0.073  1.00  0.00     0.028 C
HETATM   28  C11 UNL     1      -0.214  12.142  -0.704  1.00  0.00     0.003 C
HETATM   29  C12 UNL     1      -1.408  12.084   0.190  1.00  0.00     0.028 C
HETATM   30  C13 UNL     1      -1.383  13.127   1.294  1.00  0.00     0.237 C
ENDBRANCH  23  24
ENDBRANCH  22  23
ENDBRANCH   2  22
TORSDOF 10
ENDMDL