MODEL 5
REMARK VINA RESULT: -5.962778773      2.010      3.862
REMARK  11 active torsions:
REMARK  status: ('A' for Active; 'I' for Inactive)
REMARK    1  A    between atoms: C2_2  and  C3_3
REMARK    2  A    between atoms: C3_3  and  C4_4
REMARK    3  A    between atoms: C4_4  and  N1_5
REMARK    4  A    between atoms: C5_6  and  C6_7
REMARK    5  A    between atoms: C6_7  and  C7_8
REMARK    6  A    between atoms: C7_8  and  N2_9
REMARK    7  A    between atoms: C9_12  and  C10_13
REMARK    8  A    between atoms: C10_13  and  C11_14
REMARK    9  A    between atoms: C19_23  and  N4_24
REMARK   10  A    between atoms: N4_24  and  C20_26
REMARK   11  A    between atoms: C20_26  and  C21_27
ROOT
HETATM    1  N1  UNL     1      -3.789   8.652   4.858  1.00  0.00    -0.336 N
HETATM    2  C5  UNL     1      -3.259   8.938   6.061  1.00  0.00     0.015 A
HETATM    3  C14 UNL     1      -2.310   7.981   6.336  1.00  0.00     0.040 A
HETATM    4  C15 UNL     1      -2.258   7.082   5.267  1.00  0.00     0.012 A
HETATM    5  C16 UNL     1      -1.515   5.963   5.009  1.00  0.00     0.041 A
HETATM    6  C17 UNL     1      -1.735   5.296   3.805  1.00  0.00     0.089 A
HETATM    7  C18 UNL     1      -0.952   4.102   3.514  1.00  0.00     0.103 C
HETATM    8  N3  UNL     1      -0.326   3.176   3.313  1.00  0.00    -0.191 NA
HETATM    9  C19 UNL     1      -2.668   5.746   2.907  1.00  0.00     0.128 A
HETATM   10  N5  UNL     1      -3.384   6.883   3.233  1.00  0.00    -0.327 N
ATOM     11  H5  UNL     1      -4.081   7.230   2.575  1.00  0.00     0.169 HD
HETATM   12  C22 UNL     1      -3.196   7.539   4.371  1.00  0.00     0.119 A
ENDROOT
BRANCH   9  13
HETATM   13  N4  UNL     1      -2.952   5.248   1.820  1.00  0.00    -0.345 N
ATOM     14  H4  UNL     1      -2.300   4.478   1.671  1.00  0.00     0.167 HD
BRANCH  13  15
HETATM   15  C20 UNL     1      -3.773   5.287   0.724  1.00  0.00     0.174 C
BRANCH  15  16
HETATM   16  C21 UNL     1      -5.088   4.580   0.884  1.00  0.00     0.214 C
HETATM   17  O2  UNL     1      -5.153   3.394   0.565  1.00  0.00    -0.643 OA
HETATM   18  O3  UNL     1      -6.170   5.264   1.375  1.00  0.00    -0.643 OA
ENDBRANCH  15  16
ENDBRANCH  13  15
ENDBRANCH   9  13
BRANCH   2  19
HETATM   19  C6  UNL     1      -3.589  10.060   6.974  1.00  0.00     0.077 C
BRANCH  19  20
HETATM   20  C7  UNL     1      -2.918  11.359   6.560  1.00  0.00     0.135 C
BRANCH  20  21
HETATM   21  N2  UNL     1      -1.495  11.235   6.414  1.00  0.00    -0.345 N
HETATM   22  C8  UNL     1      -0.798  11.439   5.262  1.00  0.00     0.235 A
HETATM   23  O1  UNL     1       0.484  11.248   5.471  1.00  0.00    -0.309 OA
HETATM   24  C9  UNL     1       0.703  10.919   6.727  1.00  0.00     0.070 A
HETATM   25  C13 UNL     1      -0.541  10.912   7.316  1.00  0.00     0.124 A
BRANCH  24  26
HETATM   26  C10 UNL     1       2.020  10.635   7.300  1.00  0.00     0.066 C
BRANCH  26  27
HETATM   27  C11 UNL     1       3.136  11.384   6.597  1.00  0.00     0.002 C
HETATM   28  C12 UNL     1       3.419  12.705   7.263  1.00  0.00     0.005 C
ENDBRANCH  26  27
ENDBRANCH  24  26
ENDBRANCH  20  21
ENDBRANCH  19  20
ENDBRANCH   2  19
BRANCH   1  29
HETATM   29  C4  UNL     1      -4.822   9.403   4.187  1.00  0.00     0.130 C
BRANCH  29  30
HETATM   30  C3  UNL     1      -4.250  10.451   3.259  1.00  0.00     0.020 C
BRANCH  30  31
HETATM   31  C2  UNL     1      -4.556  10.118   1.806  1.00  0.00    -0.003 C
HETATM   32  C1  UNL     1      -5.714   9.120   1.723  1.00  0.00     0.005 C
ENDBRANCH  30  31
ENDBRANCH  29  30
ENDBRANCH   1  29
TORSDOF 11
ENDMDL