MODEL 1
REMARK VINA RESULT: -6.440876593      0.000      0.000
REMARK  11 active torsions:
REMARK  status: ('A' for Active; 'I' for Inactive)
REMARK    1  A    between atoms: O1_2  and  C2_3
REMARK    2  A    between atoms: C7_8  and  O2_9
REMARK    3  A    between atoms: O2_9  and  C8_10
REMARK    4  A    between atoms: C8_10  and  C9_11
REMARK    5  A    between atoms: C9_11  and  C10_12
REMARK    6  A    between atoms: C10_12  and  N1_13
REMARK       I    between atoms: N1_13  and  C11_15
REMARK       I    between atoms: C11_15  and  N3_24
REMARK    7  A    between atoms: N2_16  and  C12_18
REMARK    8  A    between atoms: C12_18  and  C13_19
REMARK    9  A    between atoms: C13_19  and  C14_20
REMARK   10  A    between atoms: C14_20  and  C15_21
REMARK   11  A    between atoms: C15_21  and  O3_22
ROOT
HETATM    1  C10 UNL     1       2.227  10.054   7.340  1.00  0.00     0.140 C
ENDROOT
BRANCH   1   2
HETATM    2  C9  UNL     1       2.233   8.545   7.164  1.00  0.00     0.047 C
BRANCH   2   3
HETATM    3  C8  UNL     1       0.918   7.904   7.502  1.00  0.00     0.177 C
BRANCH   3   4
HETATM    4  O2  UNL     1       0.437   7.060   6.502  1.00  0.00    -0.348 OA
BRANCH   4   5
HETATM    5  C7  UNL     1      -0.829   7.284   5.970  1.00  0.00     0.102 A
HETATM    6  C2  UNL     1      -1.187   6.583   4.837  1.00  0.00     0.102 A
HETATM    7  C3  UNL     1      -2.443   6.813   4.316  1.00  0.00     0.055 A
HETATM    8  C4  UNL     1      -3.326   7.717   4.906  1.00  0.00     0.019 A
HETATM    9  C5  UNL     1      -2.964   8.416   6.039  1.00  0.00    -0.041 A
HETATM   10  C22 UNL     1      -4.672   8.134   4.568  1.00  0.00     0.160 C
HETATM   11  C6  UNL     1      -1.712   8.186   6.557  1.00  0.00     0.047 A
HETATM   12  C20 UNL     1      -4.069   9.313   6.477  1.00  0.00     0.047 C
HETATM   13  C21 UNL     1      -5.282   8.797   5.751  1.00  0.00     0.088 C
HETATM   14  O4  UNL     1      -5.225   7.955   3.441  1.00  0.00    -0.292 OA
BRANCH   6  15
HETATM   15  O1  UNL     1      -0.312   5.671   4.232  1.00  0.00    -0.353 OA
HETATM   16  C1  UNL     1      -0.857   4.663   3.406  1.00  0.00     0.210 C
ENDBRANCH   6  15
ENDBRANCH   4   5
ENDBRANCH   3   4
ENDBRANCH   2   3
ENDBRANCH   1   2
BRANCH   1  17
HETATM   17  N1  UNL     1       2.189  10.778   6.101  1.00  0.00    -0.226 N
HETATM   18  C11 UNL     1       2.259  12.193   6.033  1.00  0.00     0.671 C
HETATM   19  N2  UNL     1       1.624  12.855   5.140  1.00  0.00    -0.226 N
HETATM   20  N3  UNL     1       3.035  12.957   6.945  1.00  0.00    -0.218 N
ATOM     21  H2  UNL     1       1.693  13.873   5.115  1.00  0.00     0.177 HD
HETATM   22  C16 UNL     1       2.487  14.062   7.705  1.00  0.00     0.141 C
HETATM   23  C19 UNL     1       4.427  12.859   7.325  1.00  0.00     0.141 C
HETATM   24  C17 UNL     1       3.410  14.288   8.870  1.00  0.00     0.022 C
HETATM   25  C18 UNL     1       4.348  13.098   8.818  1.00  0.00     0.022 C
ATOM     26  H1  UNL     1       2.108  10.250   5.232  1.00  0.00     0.177 HD
BRANCH  19  27
HETATM   27  C12 UNL     1       0.802  12.158   4.163  1.00  0.00     0.138 C
BRANCH  27  28
HETATM   28  C13 UNL     1      -0.628  12.589   4.334  1.00  0.00     0.022 C
BRANCH  28  29
HETATM   29  C14 UNL     1      -1.352  11.622   5.226  1.00  0.00     0.028 C
BRANCH  29  30
HETATM   30  C15 UNL     1      -1.660  12.290   6.542  1.00  0.00     0.164 C
BRANCH  30  31
HETATM   31  O3  UNL     1      -1.032  11.499   7.531  1.00  0.00    -0.401 OA
ATOM     32  H3  UNL     1      -0.100  11.652   7.431  1.00  0.00     0.209 HD
ENDBRANCH  30  31
ENDBRANCH  29  30
ENDBRANCH  28  29
ENDBRANCH  27  28
ENDBRANCH  19  27
ENDBRANCH   1  17
TORSDOF 11
ENDMDL