MODEL 3
REMARK VINA RESULT: -5.139427232      0.932      1.181
REMARK  11 active torsions:
REMARK  status: ('A' for Active; 'I' for Inactive)
REMARK    1  A    between atoms: C2_2  and  C3_3
REMARK    2  A    between atoms: C3_3  and  C4_4
REMARK    3  A    between atoms: C4_4  and  N1_5
REMARK    4  A    between atoms: N1_5  and  C5_6
REMARK    5  A    between atoms: N1_5  and  S1_24
REMARK    6  A    between atoms: N3_9  and  C7_10
REMARK    7  A    between atoms: C7_10  and  C8_11
REMARK    8  A    between atoms: C8_11  and  C9_12
REMARK    9  A    between atoms: N5_19  and  C13_21
REMARK   10  A    between atoms: S1_24  and  C16_27
REMARK   11  A    between atoms: C16_27  and  C17_28
ROOT
HETATM    1  C5  UNL     1       0.277  11.442   6.329  1.00  0.00     0.130 A
HETATM    2  C6  UNL     1      -0.473  10.279   6.181  1.00  0.00     0.154 A
HETATM    3  N2  UNL     1      -1.729  10.235   5.538  1.00  0.00    -0.080 NA
HETATM    4  N3  UNL     1      -0.046   9.077   6.669  1.00  0.00    -0.285 N
HETATM    5  C11 UNL     1       1.128   9.010   7.309  1.00  0.00     0.329 A
HETATM    6  O1  UNL     1       1.561   7.903   7.781  1.00  0.00    -0.246 OA
HETATM    7  N4  UNL     1       1.898  10.086   7.486  1.00  0.00    -0.292 N
ATOM      8  H4  UNL     1       2.788  10.011   7.977  1.00  0.00     0.172 HD
HETATM    9  C12 UNL     1       1.473  11.291   6.999  1.00  0.00     0.137 A
HETATM   10  N5  UNL     1       2.221  12.293   7.138  1.00  0.00    -0.370 N
ATOM     11  H5  UNL     1       1.849  13.147   6.724  1.00  0.00     0.161 HD
ENDROOT
BRANCH   1  12
HETATM   12  N1  UNL     1      -0.228  12.699   5.850  1.00  0.00    -0.269 N
BRANCH  12  13
HETATM   13  C4  UNL     1      -1.345  13.331   6.571  1.00  0.00     0.142 C
BRANCH  13  14
HETATM   14  C3  UNL     1      -1.063  13.707   7.972  1.00  0.00     0.021 C
BRANCH  14  15
HETATM   15  C2  UNL     1      -0.167  14.960   7.920  1.00  0.00    -0.003 C
HETATM   16  C1  UNL     1       0.289  15.269   9.330  1.00  0.00     0.005 C
ENDBRANCH  14  15
ENDBRANCH  13  14
ENDBRANCH  12  13
BRANCH  12  17
HETATM   17  S1  UNL     1       0.302  13.499   4.446  1.00  0.00     0.233 S
HETATM   18  O2  UNL     1       1.567  14.282   4.836  1.00  0.00    -0.205 OA
HETATM   19  O3  UNL     1      -0.697  14.592   4.116  1.00  0.00    -0.205 OA
BRANCH  17  20
HETATM   20  C16 UNL     1       0.735  12.549   3.068  1.00  0.00     0.167 C
BRANCH  20  21
HETATM   21  C17 UNL     1       0.669  13.175   1.728  1.00  0.00    -0.007 C
HETATM   22  C18 UNL     1       0.747  12.014   0.718  1.00  0.00     0.010 C
HETATM   23  C19 UNL     1       1.919  14.004   1.417  1.00  0.00     0.010 C
ENDBRANCH  20  21
ENDBRANCH  17  20
ENDBRANCH  12  17
ENDBRANCH   1  12
BRANCH   4  24
HETATM   24  C7  UNL     1      -0.860   7.907   6.496  1.00  0.00     0.135 C
BRANCH  24  25
HETATM   25  C8  UNL     1      -0.424   6.969   5.430  1.00  0.00     0.020 C
BRANCH  25  26
HETATM   26  C9  UNL     1      -1.326   5.815   5.155  1.00  0.00    -0.003 C
HETATM   27  C10 UNL     1      -0.905   5.223   3.800  1.00  0.00     0.005 C
ENDBRANCH  25  26
ENDBRANCH  24  25
ENDBRANCH   4  24
BRANCH  10  28
HETATM   28  C13 UNL     1       3.482  12.460   7.761  1.00  0.00     0.075 C
HETATM   29  C14 UNL     1       3.593  13.761   8.538  1.00  0.00     0.031 C
HETATM   30  C15 UNL     1       4.671  12.238   6.883  1.00  0.00     0.031 C
ENDBRANCH  10  28
TORSDOF 11
ENDMDL