MODEL 3
REMARK VINA RESULT: -6.379789050      3.259     10.036
REMARK  10 active torsions:
REMARK  status: ('A' for Active; 'I' for Inactive)
REMARK    1  A    between atoms: C11_11  and  C12_12
REMARK       I    between atoms: C12_12  and  N1_14
REMARK    2  A    between atoms: N1_14  and  C13_16
REMARK    3  A    between atoms: C13_16  and  C14_17
REMARK    4  A    between atoms: C14_17  and  C15_18
REMARK    5  A    between atoms: C15_18  and  C16_19
REMARK    6  A    between atoms: C16_19  and  C17_20
REMARK       I    between atoms: C17_20  and  N2_22
REMARK    7  A    between atoms: N2_22  and  C18_24
REMARK    8  A    between atoms: C18_24  and  C19_25
REMARK    9  A    between atoms: C19_25  and  C20_26
REMARK   10  A    between atoms: C20_26  and  N3_27
ROOT
HETATM    1  C12 UNL     1       4.625  13.495   9.109  1.00  0.00     0.222 C
HETATM    2  O1  UNL     1       5.472  13.189   8.254  1.00  0.00    -0.273 OA
HETATM    3  N1  UNL     1       3.233  13.566   8.886  1.00  0.00    -0.361 N
ATOM      4  H1  UNL     1       2.609  13.823   9.652  1.00  0.00     0.162 HD
ENDROOT
BRANCH   3   5
HETATM    5  C13 UNL     1       2.691  13.277   7.587  1.00  0.00     0.122 C
BRANCH   5   6
HETATM    6  C14 UNL     1       1.287  12.781   7.716  1.00  0.00     0.020 C
BRANCH   6   7
HETATM    7  C15 UNL     1       1.202  11.314   7.370  1.00  0.00     0.011 C
BRANCH   7   8
HETATM    8  C16 UNL     1      -0.220  10.837   7.349  1.00  0.00     0.103 C
BRANCH   8   9
HETATM    9  C17 UNL     1      -0.234   9.369   7.418  1.00  0.00     0.217 C
HETATM   10  O2  UNL     1      -0.390   8.786   8.502  1.00  0.00    -0.274 OA
HETATM   11  N2  UNL     1      -0.069   8.610   6.230  1.00  0.00    -0.361 N
ATOM     12  H2  UNL     1       0.057   9.101   5.345  1.00  0.00     0.162 HD
BRANCH  11  13
HETATM   13  C18 UNL     1      -0.072   7.165   6.232  1.00  0.00     0.124 C
BRANCH  13  14
HETATM   14  C19 UNL     1      -0.097   6.669   4.815  1.00  0.00     0.050 C
BRANCH  14  15
HETATM   15  C20 UNL     1      -1.182   5.664   4.662  1.00  0.00     0.273 C
BRANCH  15  16
HETATM   16  N3  UNL     1      -0.998   4.799   3.510  1.00  0.00     0.080 N
HETATM   17  C21 UNL     1      -2.043   5.138   2.554  1.00  0.00     0.309 C
HETATM   18  C22 UNL     1      -1.201   3.435   3.963  1.00  0.00     0.309 C
ENDBRANCH  15  16
ENDBRANCH  14  15
ENDBRANCH  13  14
ENDBRANCH  11  13
ENDBRANCH   8   9
ENDBRANCH   7   8
ENDBRANCH   6   7
ENDBRANCH   5   6
ENDBRANCH   3   5
BRANCH   1  19
HETATM   19  C11 UNL     1       5.108  13.813  10.479  1.00  0.00     0.085 C
HETATM   20  C7  UNL     1       5.050  12.629  11.383  1.00  0.00     0.004 C
HETATM   21  C6  UNL     1       4.801  12.713  12.821  1.00  0.00     0.046 C
HETATM   22  C8  UNL     1       6.527  12.334  11.398  1.00  0.00     0.047 C
HETATM   23  C4  UNL     1       5.812  13.116  13.776  1.00  0.00     0.093 C
HETATM   24  C3  UNL     1       7.253  12.835  13.755  1.00  0.00     0.048 C
HETATM   25  C5  UNL     1       5.289  12.890  15.187  1.00  0.00     0.049 C
HETATM   26  O4  UNL     1       5.866  14.544  13.637  1.00  0.00    -0.229 OA
HETATM   27  C2  UNL     1       8.002  13.575  12.599  1.00  0.00     0.022 C
HETATM   28  C1  UNL     1       8.747  14.768  13.077  1.00  0.00     0.013 C
HETATM   29  C9  UNL     1       6.915  13.765  11.743  1.00  0.00     0.101 C
HETATM   30  C10 UNL     1       6.622  14.240  10.401  1.00  0.00     0.056 C
HETATM   31  O3  UNL     1       6.034  14.605  12.386  1.00  0.00    -0.228 OA
ENDBRANCH   1  19
TORSDOF 10
ENDMDL