MODEL 1
REMARK VINA RESULT: -6.238654294      0.000      0.000
REMARK  10 active torsions:
REMARK  status: ('A' for Active; 'I' for Inactive)
REMARK    1  A    between atoms: O1_2  and  C2_3
REMARK    2  A    between atoms: C2_3  and  C3_4
REMARK    3  A    between atoms: C3_4  and  C4_5
REMARK    4  A    between atoms: C4_5  and  S1_6
REMARK    5  A    between atoms: S1_6  and  N1_9
REMARK    6  A    between atoms: N1_9  and  C5_11
REMARK    7  A    between atoms: C5_11  and  C6_12
REMARK    8  A    between atoms: C10_16  and  O4_17
REMARK    9  A    between atoms: N3_24  and  C14_25
REMARK   10  A    between atoms: C14_25  and  C15_26
ROOT
HETATM    1  C6  UNL     1      -0.796  11.839   5.657  1.00  0.00     0.010 C
HETATM    2  C7  UNL     1      -0.804  13.207   6.229  1.00  0.00     0.042 C
HETATM    3  C8  UNL     1       0.507  13.904   6.308  1.00  0.00     0.230 C
HETATM    4  C9  UNL     1       1.326  13.513   7.514  1.00  0.00     0.097 C
HETATM    5  C10 UNL     1       2.734  13.237   7.018  1.00  0.00     0.325 C
HETATM    6  N2  UNL     1       2.651  12.065   6.182  1.00  0.00    -0.017 N
ATOM      7  H21 UNL     1       2.464  11.223   6.727  1.00  0.00     0.282 HD
ATOM      8  H22 UNL     1       3.562  11.803   5.804  1.00  0.00     0.282 HD
HETATM    9  C12 UNL     1       1.648  12.262   5.113  1.00  0.00     0.423 C
HETATM   10  C13 UNL     1       0.520  11.285   5.285  1.00  0.00     0.072 C
HETATM   11  N3  UNL     1       1.286  13.628   5.121  1.00  0.00     0.124 N
ENDROOT
BRANCH   1  12
HETATM   12  C5  UNL     1      -1.497  10.917   6.653  1.00  0.00     0.136 C
BRANCH  12  13
HETATM   13  N1  UNL     1      -0.649  10.565   7.746  1.00  0.00    -0.319 N
ATOM     14  H1  UNL     1      -0.293  11.230   8.433  1.00  0.00     0.172 HD
BRANCH  13  15
HETATM   15  S1  UNL     1      -0.301   8.878   7.762  1.00  0.00     0.226 S
HETATM   16  O2  UNL     1      -0.677   8.269   9.077  1.00  0.00    -0.206 OA
HETATM   17  O3  UNL     1       1.176   8.667   7.573  1.00  0.00    -0.206 OA
BRANCH  15  18
HETATM   18  C4  UNL     1      -1.197   8.064   6.462  1.00  0.00     0.165 C
BRANCH  18  19
HETATM   19  C3  UNL     1      -0.279   7.142   5.701  1.00  0.00     0.043 C
BRANCH  19  20
HETATM   20  C2  UNL     1      -1.014   6.055   4.987  1.00  0.00     0.168 C
BRANCH  20  21
HETATM   21  O1  UNL     1      -0.271   5.481   3.969  1.00  0.00    -0.396 OA
HETATM   22  C1  UNL     1      -0.994   4.594   3.200  1.00  0.00     0.201 C
ENDBRANCH  20  21
ENDBRANCH  19  20
ENDBRANCH  18  19
ENDBRANCH  15  18
ENDBRANCH  13  15
ENDBRANCH  12  13
ENDBRANCH   1  12
BRANCH  11  23
HETATM   23  C14 UNL     1       0.722  14.184   3.943  1.00  0.00     0.280 C
BRANCH  23  24
HETATM   24  C15 UNL     1       1.136  13.409   2.721  1.00  0.00     0.014 C
HETATM   25  C16 UNL     1      -0.156  12.988   1.979  1.00  0.00     0.006 C
HETATM   26  C17 UNL     1       0.313  12.071   0.865  1.00  0.00     0.000 C
HETATM   27  C18 UNL     1       1.087  12.896  -0.112  1.00  0.00     0.000 C
HETATM   28  C19 UNL     1       2.222  13.660   0.475  1.00  0.00     0.000 C
HETATM   29  C20 UNL     1       1.922  14.288   1.805  1.00  0.00     0.006 C
ENDBRANCH  23  24
ENDBRANCH  11  23
BRANCH   5  30
HETATM   30  O4  UNL     1       3.608  12.985   8.050  1.00  0.00    -0.364 OA
HETATM   31  C11 UNL     1       4.890  13.417   7.756  1.00  0.00     0.204 C
ENDBRANCH   5  30
TORSDOF 10
ENDMDL