MODEL 4
REMARK VINA RESULT: -6.421034254      1.844      8.055
REMARK  11 active torsions:
REMARK  status: ('A' for Active; 'I' for Inactive)
REMARK    1  A    between atoms: C2_2  and  C3_3
REMARK    2  A    between atoms: C3_3  and  C4_4
REMARK    3  A    between atoms: C4_4  and  N1_5
REMARK    4  A    between atoms: N1_5  and  C5_6
REMARK    5  A    between atoms: C6_9  and  N3_10
REMARK    6  A    between atoms: N3_10  and  C8_12
REMARK    7  A    between atoms: C8_12  and  C9_13
REMARK    8  A    between atoms: C9_13  and  N4_14
REMARK    9  A    between atoms: N5_19  and  C14_21
REMARK   10  A    between atoms: C14_21  and  C17_24
REMARK   11  A    between atoms: C17_24  and  C18_25
ROOT
HETATM    1  C5  UNL     1       1.816  10.456   6.930  1.00  0.00     0.261 A
HETATM    2  N2  UNL     1       1.434  11.043   5.754  1.00  0.00    -0.302 N
ATOM      3  H2  UNL     1       0.914  10.492   5.071  1.00  0.00     0.171 HD
HETATM    4  C6  UNL     1       1.721  12.309   5.477  1.00  0.00     0.109 A
HETATM    5  C12 UNL     1       2.421  13.044   6.400  1.00  0.00     0.096 A
HETATM    6  C13 UNL     1       2.823  12.475   7.603  1.00  0.00     0.108 A
HETATM    7  N5  UNL     1       3.472  13.074   8.518  1.00  0.00    -0.367 N
ATOM      8  H5  UNL     1       3.678  12.492   9.330  1.00  0.00     0.162 HD
HETATM    9  N7  UNL     1       2.506  11.197   7.827  1.00  0.00    -0.302 N
ATOM     10  H7  UNL     1       2.793  10.765   8.705  1.00  0.00     0.171 HD
ENDROOT
BRANCH   7  11
HETATM   11  C14 UNL     1       3.960  14.392   8.620  1.00  0.00     0.029 C
HETATM   12  C15 UNL     1       5.329  14.493   7.985  1.00  0.00     0.038 C
HETATM   13  C16 UNL     1       3.007  15.381   7.952  1.00  0.00     0.038 C
BRANCH  11  14
HETATM   14  C17 UNL     1       4.029  14.795  10.085  1.00  0.00     0.087 C
BRANCH  14  15
HETATM   15  C18 UNL     1       4.765  13.828  10.924  1.00  0.00     0.011 A
HETATM   16  C19 UNL     1       6.052  13.404  10.568  1.00  0.00     0.025 A
HETATM   17  C20 UNL     1       6.767  12.507  11.306  1.00  0.00     0.004 A
HETATM   18  C21 UNL     1       6.231  11.973  12.460  1.00  0.00     0.024 A
HETATM   19  C22 UNL     1       4.963  12.393  12.808  1.00  0.00     0.005 A
HETATM   20  C23 UNL     1       4.369  11.829  14.047  1.00  0.00     0.068 C
HETATM   21  N6  UNL     1       4.289  13.279  12.055  1.00  0.00    -0.363 N
ATOM     22  H6  UNL     1       3.355  13.553  12.361  1.00  0.00     0.165 HD
ENDBRANCH  14  15
ENDBRANCH  11  14
ENDBRANCH   7  11
BRANCH   4  23
HETATM   23  N3  UNL     1       1.295  12.913   4.230  1.00  0.00    -0.370 N
HETATM   24  C7  UNL     1       1.656  14.334   4.091  1.00  0.00     0.151 C
BRANCH  23  25
HETATM   25  C8  UNL     1       0.593  12.179   3.227  1.00  0.00     0.154 C
BRANCH  25  26
HETATM   26  C9  UNL     1       0.492  12.780   1.884  1.00  0.00     0.291 C
BRANCH  26  27
HETATM   27  N4  UNL     1       1.242  12.349   0.805  1.00  0.00     0.081 N
HETATM   28  C10 UNL     1       2.214  13.233   0.245  1.00  0.00     0.309 C
HETATM   29  C11 UNL     1       0.353  11.935  -0.273  1.00  0.00     0.309 C
ENDBRANCH  26  27
ENDBRANCH  25  26
ENDBRANCH  23  25
ENDBRANCH   4  23
BRANCH   1  30
HETATM   30  N1  UNL     1       1.535   9.305   7.141  1.00  0.00    -0.388 NA
BRANCH  30  31
HETATM   31  C4  UNL     1       1.154   8.049   7.340  1.00  0.00     0.159 C
BRANCH  31  32
HETATM   32  C3  UNL     1       0.183   7.462   6.289  1.00  0.00     0.059 C
BRANCH  32  33
HETATM   33  C2  UNL     1      -1.138   8.169   6.554  1.00  0.00     0.002 C
HETATM   34  C1  UNL     1      -2.294   7.369   5.979  1.00  0.00     0.005 C
ENDBRANCH  32  33
ENDBRANCH  31  32
ENDBRANCH  30  31
ENDBRANCH   1  30
TORSDOF 11
ENDMDL