MODEL 2
REMARK VINA RESULT: -5.969720707      0.904      1.686
REMARK  11 active torsions:
REMARK  status: ('A' for Active; 'I' for Inactive)
REMARK    1  A    between atoms: C3_3  and  C4_4
REMARK    2  A    between atoms: C7_7  and  C8_8
REMARK    3  A    between atoms: C10_11  and  C11_12
REMARK    4  A    between atoms: C11_12  and  C12_13
REMARK    5  A    between atoms: C11_12  and  C16_17
REMARK    6  A    between atoms: C12_13  and  C13_14
REMARK    7  A    between atoms: C13_14  and  C14_15
REMARK    8  A    between atoms: C16_17  and  O2_18
REMARK    9  A    between atoms: C16_17  and  C17_20
REMARK   10  A    between atoms: C17_20  and  N1_21
REMARK   11  A    between atoms: N2_24  and  C20_25
ROOT
HETATM    1  C1  UNL     1      -0.618   6.539   5.592  1.00  0.00     0.012 C
HETATM    2  C2  UNL     1      -0.981   7.690   5.735  1.00  0.00    -0.117 C
HETATM    3  C3  UNL     1      -1.441   9.068   5.899  1.00  0.00     0.102 C
ENDROOT
BRANCH   3   4
HETATM    4  C4  UNL     1      -0.563   9.726   6.971  1.00  0.00    -0.028 A
HETATM    5  C5  UNL     1      -0.364   8.866   8.174  1.00  0.00     0.016 C
HETATM    6  C6  UNL     1      -0.885  11.191   7.236  1.00  0.00     0.018 A
HETATM    7  C7  UNL     1       0.382  10.766   6.561  1.00  0.00     0.028 A
BRANCH   7   8
HETATM    8  C8  UNL     1       1.654  11.038   7.305  1.00  0.00     0.217 C
HETATM    9  C9  UNL     1       2.802  11.180   6.293  1.00  0.00     0.204 C
HETATM   10  O1  UNL     1       3.709  11.880   7.054  1.00  0.00    -0.357 OA
HETATM   11  C10 UNL     1       2.989  12.905   7.588  1.00  0.00     0.328 C
HETATM   12  N3  UNL     1       1.694  12.343   7.911  1.00  0.00    -0.042 N
ATOM     13  H32 UNL     1       0.914  12.940   7.637  1.00  0.00     0.280 HD
ATOM     14  H31 UNL     1       1.497  12.329   8.912  1.00  0.00     0.280 HD
BRANCH  11  15
HETATM   15  C11 UNL     1       3.590  13.679   8.693  1.00  0.00     0.072 C
BRANCH  15  16
HETATM   16  C12 UNL     1       2.784  14.930   8.968  1.00  0.00     0.011 C
BRANCH  16  17
HETATM   17  C13 UNL     1       2.317  15.073  10.378  1.00  0.00     0.000 C
BRANCH  17  18
HETATM   18  C14 UNL     1       0.982  15.820  10.382  1.00  0.00    -0.005 C
HETATM   19  C15 UNL     1       0.129  15.318   9.243  1.00  0.00     0.005 C
ENDBRANCH  17  18
ENDBRANCH  16  17
ENDBRANCH  15  16
BRANCH  15  20
HETATM   20  C16 UNL     1       5.062  13.938   8.638  1.00  0.00     0.144 C
BRANCH  20  21
HETATM   21  O2  UNL     1       5.516  13.890   7.320  1.00  0.00    -0.393 OA
ATOM     22  H2  UNL     1       5.701  12.994   7.065  1.00  0.00     0.210 HD
ENDBRANCH  20  21
BRANCH  20  23
HETATM   23  C17 UNL     1       5.843  13.108   9.587  1.00  0.00     0.154 C
BRANCH  23  24
HETATM   24  N1  UNL     1       5.438  13.165  10.945  1.00  0.00    -0.387 N
HETATM   25  C18 UNL     1       5.413  11.977  11.689  1.00  0.00     0.088 C
HETATM   26  C19 UNL     1       4.982  12.322  13.115  1.00  0.00     0.317 C
HETATM   27  N2  UNL     1       6.097  13.030  13.698  1.00  0.00     0.098 N
HETATM   28  C22 UNL     1       6.543  14.140  12.910  1.00  0.00     0.237 C
HETATM   29  C23 UNL     1       8.016  13.947  12.619  1.00  0.00     0.044 C
HETATM   30  C24 UNL     1       5.774  14.354  11.644  1.00  0.00     0.157 C
BRANCH  27  31
HETATM   31  C20 UNL     1       5.849  13.395  15.078  1.00  0.00     0.269 C
HETATM   32  C21 UNL     1       4.652  12.659  15.614  1.00  0.00     0.037 C
ENDBRANCH  27  31
ENDBRANCH  23  24
ENDBRANCH  20  23
ENDBRANCH  15  20
ENDBRANCH  11  15
ENDBRANCH   7   8
ENDBRANCH   3   4
TORSDOF 11
ENDMDL