MODEL 4
REMARK VINA RESULT: -8.683259913      3.616      5.518
REMARK  8 active torsions:
REMARK  status: ('A' for Active; 'I' for Inactive)
REMARK    1  A    between atoms: N1_1  and  C1_4
REMARK    2  A    between atoms: C4_10  and  S1_11
REMARK    3  A    between atoms: S1_11  and  C5_12
REMARK    4  A    between atoms: C6_13  and  C7_14
REMARK    5  A    between atoms: N6_21  and  C8_22
REMARK    6  A    between atoms: C8_22  and  N7_23
REMARK    7  A    between atoms: N7_23  and  O3_25
REMARK    8  A    between atoms: N9_29  and  N10_30
ROOT
HETATM    1  C1  UNL     1      17.101  12.281   3.975  1.00  0.00     0.680 A
HETATM    2  N2  UNL     1      16.878  13.613   3.902  1.00  0.00    -0.155 N
ATOM      3  H2  UNL     1      16.480  14.025   3.058  1.00  0.00     0.187 HD
HETATM    4  C2  UNL     1      17.186  14.380   4.945  1.00  0.00     0.276 A
HETATM    5  O1  UNL     1      16.980  15.606   4.889  1.00  0.00    -0.267 OA
HETATM    6  C3  UNL     1      17.728  13.882   6.115  1.00  0.00     0.116 A
HETATM    7  C4  UNL     1      18.126  14.387   7.328  1.00  0.00     0.112 A
HETATM    8  N8  UNL     1      18.547  13.302   8.023  1.00  0.00    -0.270 N
ATOM      9  H8  UNL     1      18.908  13.341   8.977  1.00  0.00     0.190 HD
HETATM   10  N9  UNL     1      18.437  12.196   7.326  1.00  0.00    -0.184 N
HETATM   11  C9  UNL     1      17.927  12.498   6.112  1.00  0.00     0.178 A
HETATM   12  N11 UNL     1      17.624  11.710   5.073  1.00  0.00    -0.172 N
ATOM     13  H11 UNL     1      17.785  10.703   5.114  1.00  0.00     0.186 HD
ENDROOT
BRANCH   7  14
HETATM   14  S1  UNL     1      18.152  16.091   7.815  1.00  0.00    -0.048 SA
BRANCH  14  15
HETATM   15  C5  UNL     1      19.240  17.109   6.843  1.00  0.00     0.135 A
HETATM   16  C6  UNL     1      20.617  16.844   6.770  1.00  0.00     0.150 A
HETATM   17  N4  UNL     1      21.115  17.780   5.948  1.00  0.00    -0.278 N
HETATM   18  N5  UNL     1      20.142  18.559   5.546  1.00  0.00    -0.234 N
ATOM     19  H4  UNL     1      22.095  17.871   5.680  1.00  0.00     0.189 HD
HETATM   20  N6  UNL     1      18.980  18.170   6.080  1.00  0.00    -0.227 N
ATOM     21  H5  UNL     1      20.254  19.351   4.913  1.00  0.00     0.209 HD
BRANCH  16  22
HETATM   22  C7  UNL     1      21.365  15.798   7.475  1.00  0.00     0.285 C
HETATM   23  N3  UNL     1      21.439  14.460   7.029  1.00  0.00    -0.056 NA
HETATM   24  O2  UNL     1      21.988  16.091   8.551  1.00  0.00    -0.269 OA
ENDBRANCH  16  22
BRANCH  20  25
HETATM   25  C8  UNL     1      17.740  18.810   5.856  1.00  0.00     0.232 C
BRANCH  25  26
HETATM   26  N7  UNL     1      17.218  19.548   6.778  1.00  0.00    -0.263 N
ATOM     27  H7  UNL     1      17.781  20.292   7.190  1.00  0.00     0.195 HD
BRANCH  26  28
HETATM   28  O3  UNL     1      15.931  19.367   7.225  1.00  0.00    -0.289 OA
ATOM     29  H3  UNL     1      15.404  20.082   7.562  1.00  0.00     0.244 HD
ENDBRANCH  26  28
ENDBRANCH  25  26
ENDBRANCH  20  25
ENDBRANCH  14  15
ENDBRANCH   7  14
BRANCH  10  30
HETATM   30  N10 UNL     1      18.777  10.879   7.722  1.00  0.00    -0.322 N
ATOM     31 2H10 UNL     1      19.598  10.383   7.372  1.00  0.00     0.179 HD
ATOM     32 1H10 UNL     1      18.282  10.272   8.374  1.00  0.00     0.179 HD
ENDBRANCH  10  30
BRANCH   1  33
HETATM   33  N1  UNL     1      16.800  11.554   2.961  1.00  0.00    -0.234 N
ATOM     34  H12 UNL     1      15.859  11.172   2.874  1.00  0.00     0.174 HD
ATOM     35  H11 UNL     1      17.520  11.374   2.260  1.00  0.00     0.174 HD
ENDBRANCH   1  33
TORSDOF 8
ENDMDL