MODEL 2
REMARK VINA RESULT: -8.557469740      2.644      6.632
REMARK  10 active torsions:
REMARK  status: ('A' for Active; 'I' for Inactive)
REMARK    1  A    between atoms: O1_2  and  C2_3
REMARK    2  A    between atoms: C2_3  and  C3_5
REMARK    3  A    between atoms: C4_8  and  N2_9
REMARK    4  A    between atoms: N2_9  and  N3_11
REMARK    5  A    between atoms: C5_16  and  N5_17
REMARK    6  A    between atoms: N5_17  and  C6_19
REMARK    7  A    between atoms: C7_22  and  C8_23
REMARK    8  A    between atoms: C8_23  and  O3_24
REMARK    9  A    between atoms: C8_23  and  O4_26
REMARK   10  A    between atoms: C10_31  and  N8_32
ROOT
HETATM    1  C3  UNL     1      20.091  16.096   6.987  1.00  0.00     0.161 A
HETATM    2  N1  UNL     1      20.209  15.200   8.019  1.00  0.00    -0.182 N
ATOM      3  H1  UNL     1      20.827  15.415   8.801  1.00  0.00     0.184 HD
HETATM    4  C4  UNL     1      19.527  14.054   8.017  1.00  0.00     0.698 A
HETATM    5  N4  UNL     1      18.684  13.707   7.004  1.00  0.00    -0.172 N
ATOM      6  H4  UNL     1      18.181  12.820   7.040  1.00  0.00     0.186 HD
HETATM    7  C5  UNL     1      18.516  14.518   5.973  1.00  0.00     0.159 A
HETATM    8  C10 UNL     1      19.250  15.746   5.982  1.00  0.00     0.180 A
ENDROOT
BRANCH   7   9
HETATM    9  N5  UNL     1      17.753  14.299   5.001  1.00  0.00    -0.320 N
ATOM     10  H5  UNL     1      17.632  15.075   4.349  1.00  0.00     0.169 HD
BRANCH   9  11
HETATM   11  C6  UNL     1      17.045  13.132   4.693  1.00  0.00     0.152 A
HETATM   12  N6  UNL     1      16.399  12.236   5.410  1.00  0.00    -0.334 N
HETATM   13  C7  UNL     1      15.805  11.230   4.877  1.00  0.00     0.098 A
ATOM     14  H6  UNL     1      16.370  12.346   6.423  1.00  0.00     0.168 HD
HETATM   15  C9  UNL     1      15.866  11.113   3.506  1.00  0.00     0.118 A
HETATM   16  N7  UNL     1      15.284  10.091   2.690  1.00  0.00    -0.092 NA
HETATM   17  S1  UNL     1      16.787  12.480   3.079  1.00  0.00    -0.037 SA
BRANCH  13  18
HETATM   18  C8  UNL     1      15.061  10.180   5.691  1.00  0.00     0.307 C
BRANCH  18  19
HETATM   19  O3  UNL     1      15.370   8.921   5.239  1.00  0.00    -0.366 OA
ATOM     20  H3  UNL     1      15.328   8.296   5.953  1.00  0.00     0.213 HD
ENDBRANCH  18  19
BRANCH  18  21
HETATM   21  O4  UNL     1      15.565  10.301   7.000  1.00  0.00    -0.366 OA
ATOM     22  H4  UNL     1      15.459   9.440   7.388  1.00  0.00     0.213 HD
ENDBRANCH  18  21
ENDBRANCH  13  18
ENDBRANCH   9  11
ENDBRANCH   7   9
BRANCH   8  23
HETATM   23  N8  UNL     1      19.044  16.591   4.858  1.00  0.00    -0.109 N
HETATM   24  O5  UNL     1      18.259  17.562   4.931  1.00  0.00    -0.532 OA
HETATM   25  O6  UNL     1      19.670  16.359   3.662  1.00  0.00    -0.532 OA
ENDBRANCH   8  23
BRANCH   4  26
HETATM   26  N2  UNL     1      19.641  13.219   8.986  1.00  0.00    -0.138 N
ATOM     27  H2  UNL     1      20.202  13.482   9.797  1.00  0.00     0.205 HD
BRANCH  26  28
HETATM   28  N3  UNL     1      19.030  11.975   8.973  1.00  0.00    -0.331 N
ATOM     29  H32 UNL     1      19.086  11.427   8.114  1.00  0.00     0.177 HD
ATOM     30  H31 UNL     1      18.535  11.599   9.782  1.00  0.00     0.177 HD
ENDBRANCH  26  28
ENDBRANCH   4  26
BRANCH   1  31
HETATM   31  C2  UNL     1      20.856  17.334   7.022  1.00  0.00     0.312 C
HETATM   32  O2  UNL     1      21.887  17.436   6.337  1.00  0.00    -0.258 OA
BRANCH  31  33
HETATM   33  O1  UNL     1      20.474  18.404   7.795  1.00  0.00    -0.321 OA
HETATM   34  C1  UNL     1      19.173  18.662   8.246  1.00  0.00     0.213 C
ENDBRANCH  31  33
ENDBRANCH   1  31
TORSDOF 10
ENDMDL