MODEL 1
REMARK VINA RESULT: -9.592916018      0.000      0.000
REMARK  8 active torsions:
REMARK  status: ('A' for Active; 'I' for Inactive)
REMARK    1  A    between atoms: O1_2  and  N1_3
REMARK    2  A    between atoms: N1_3  and  C2_4
REMARK    3  A    between atoms: N1_3  and  C8_26
REMARK    4  A    between atoms: C4_10  and  N4_11
REMARK    5  A    between atoms: N6_17  and  O2_19
REMARK    6  A    between atoms: O2_19  and  C6_20
REMARK    7  A    between atoms: C9_31  and  N11_32
REMARK    8  A    between atoms: N11_32  and  O4_34
ROOT
HETATM    1  C2  UNL     1      18.484  12.818   7.016  1.00  0.00     0.754 A
HETATM    2  N2  UNL     1      18.590  11.979   8.051  1.00  0.00    -0.015 N
ATOM      3  H2  UNL     1      19.269  12.046   8.809  1.00  0.00     0.203 HD
HETATM    4  C3  UNL     1      17.649  11.035   7.919  1.00  0.00     0.748 A
HETATM    5  N3  UNL     1      17.312   9.951   8.686  1.00  0.00    -0.019 N
ATOM      6  H3  UNL     1      17.822   9.737   9.543  1.00  0.00     0.203 HD
HETATM    7  C4  UNL     1      16.304   9.189   8.285  1.00  0.00     0.705 A
HETATM    8  N5  UNL     1      15.625   9.469   7.153  1.00  0.00    -0.018 N
ATOM      9  H5  UNL     1      14.855   8.863   6.873  1.00  0.00     0.203 HD
HETATM   10  C5  UNL     1      15.938  10.529   6.382  1.00  0.00     0.753 A
HETATM   11  N6  UNL     1      15.291  10.779   5.309  1.00  0.00    -0.085 N
ATOM     12  H6  UNL     1      14.530  10.147   5.058  1.00  0.00     0.214 HD
HETATM   13  N7  UNL     1      16.967  11.300   6.800  1.00  0.00     0.108 N
HETATM   14  N8  UNL     1      17.479  12.383   6.258  1.00  0.00    -0.092 N
ATOM     15  H8  UNL     1      17.158  12.820   5.395  1.00  0.00     0.207 HD
ENDROOT
BRANCH   1  16
HETATM   16  N1  UNL     1      19.337  13.944   6.855  1.00  0.00     0.132 N
BRANCH  16  17
HETATM   17  O1  UNL     1      20.670  13.857   6.867  1.00  0.00    -0.251 OA
HETATM   18  C1  UNL     1      21.296  14.834   7.630  1.00  0.00     0.239 C
ENDBRANCH  16  17
BRANCH  16  19
HETATM   19  C8  UNL     1      18.718  15.207   6.693  1.00  0.00     0.753 A
HETATM   20  N9  UNL     1      17.889  15.832   7.586  1.00  0.00    -0.114 N
HETATM   21  N10 UNL     1      17.502  16.994   7.095  1.00  0.00    -0.115 N
ATOM     22  H9  UNL     1      17.613  15.456   8.493  1.00  0.00     0.206 HD
HETATM   23  C9  UNL     1      18.059  17.166   5.880  1.00  0.00     0.731 A
ATOM     24  H10 UNL     1      16.882  17.657   7.560  1.00  0.00     0.206 HD
HETATM   25  N12 UNL     1      18.796  16.065   5.654  1.00  0.00    -0.015 N
ATOM     26  H12 UNL     1      19.343  15.899   4.809  1.00  0.00     0.203 HD
BRANCH  23  27
HETATM   27  N11 UNL     1      17.878  18.212   5.128  1.00  0.00    -0.097 N
ATOM     28  H11 UNL     1      18.115  18.149   4.138  1.00  0.00     0.213 HD
BRANCH  27  29
HETATM   29  O4  UNL     1      17.384  19.388   5.606  1.00  0.00    -0.276 OA
ATOM     30  H4  UNL     1      17.325  20.176   5.077  1.00  0.00     0.245 HD
ENDBRANCH  27  29
ENDBRANCH  23  27
ENDBRANCH  16  19
ENDBRANCH   1  16
BRANCH   7  31
HETATM   31  N4  UNL     1      15.953   8.149   8.988  1.00  0.00    -0.234 N
ATOM     32  H42 UNL     1      16.101   8.163   9.997  1.00  0.00     0.174 HD
ATOM     33  H41 UNL     1      15.538   7.338   8.528  1.00  0.00     0.174 HD
ENDBRANCH   7  31
BRANCH  11  34
HETATM   34  O2  UNL     1      15.542  11.832   4.471  1.00  0.00    -0.185 OA
BRANCH  34  35
HETATM   35  C6  UNL     1      15.897  11.542   3.160  1.00  0.00     0.278 C
HETATM   36  C7  UNL     1      16.122  10.131   2.704  1.00  0.00     0.128 C
HETATM   37  O3  UNL     1      16.054  12.445   2.269  1.00  0.00    -0.264 OA
ENDBRANCH  34  35
ENDBRANCH  11  34
TORSDOF 8
ENDMDL