MODEL 2
REMARK VINA RESULT: -8.476845353      1.456      1.647
REMARK  8 active torsions:
REMARK  status: ('A' for Active; 'I' for Inactive)
REMARK    1  A    between atoms: C3_6  and  C4_7
REMARK    2  A    between atoms: C5_10  and  O2_11
REMARK    3  A    between atoms: N4_13  and  C6_14
REMARK    4  A    between atoms: C6_14  and  C7_15
REMARK       I    between atoms: C7_15  and  N5_17
REMARK    5  A    between atoms: N5_17  and  N6_19
REMARK    6  A    between atoms: C8_20  and  N7_21
REMARK    7  A    between atoms: N7_21  and  N8_23
REMARK    8  A    between atoms: C9_29  and  N10_30
ROOT
HETATM    1  N1  UNL     1      21.714  17.855   5.831  1.00  0.00    -0.188 NA
HETATM    2  C1  UNL     1      20.709  18.294   6.252  1.00  0.00     0.137 C
HETATM    3  C2  UNL     1      19.492  18.838   6.785  1.00  0.00     0.193 A
HETATM    4  N2  UNL     1      19.392  19.895   7.640  1.00  0.00    -0.326 N
ATOM      5  H2  UNL     1      20.175  20.435   8.010  1.00  0.00     0.168 HD
HETATM    6  C3  UNL     1      18.094  20.109   7.915  1.00  0.00     0.151 A
HETATM    7  C5  UNL     1      17.402  19.152   7.204  1.00  0.00     0.177 A
HETATM    8  N4  UNL     1      18.259  18.374   6.512  1.00  0.00    -0.294 N
ENDROOT
BRANCH   8   9
HETATM    9  C6  UNL     1      17.926  17.270   5.654  1.00  0.00     0.238 C
BRANCH   9  10
HETATM   10  C7  UNL     1      17.862  15.994   6.511  1.00  0.00     0.255 C
HETATM   11  O3  UNL     1      17.474  16.120   7.660  1.00  0.00    -0.270 OA
HETATM   12  N5  UNL     1      18.269  14.851   5.828  1.00  0.00    -0.245 N
ATOM     13  H5  UNL     1      18.561  15.006   4.863  1.00  0.00     0.191 HD
BRANCH  12  14
HETATM   14  N6  UNL     1      18.340  13.502   6.269  1.00  0.00    -0.058 N
HETATM   15  C8  UNL     1      19.163  13.173   7.270  1.00  0.00     0.726 A
HETATM   16  N9  UNL     1      19.214  11.847   7.583  1.00  0.00    -0.154 N
HETATM   17  S1  UNL     1      18.170  11.123   6.539  1.00  0.00     0.041 SA
ATOM     18  H9  UNL     1      19.778  11.401   8.308  1.00  0.00     0.193 HD
HETATM   19  C9  UNL     1      17.655  12.534   5.679  1.00  0.00     0.198 A
BRANCH  15  20
HETATM   20  N7  UNL     1      19.904  13.915   8.019  1.00  0.00    -0.136 N
ATOM     21  H7  UNL     1      19.664  13.796   9.004  1.00  0.00     0.205 HD
BRANCH  20  22
HETATM   22  N8  UNL     1      20.884  14.785   7.871  1.00  0.00    -0.331 N
ATOM     23  H82 UNL     1      21.726  14.302   7.558  1.00  0.00     0.177 HD
ATOM     24  H81 UNL     1      21.028  15.789   7.981  1.00  0.00     0.177 HD
ENDBRANCH  20  22
ENDBRANCH  15  20
BRANCH  19  25
HETATM   25  N10 UNL     1      16.796  12.516   4.683  1.00  0.00    -0.377 N
ATOM     26 2H10 UNL     1      16.216  13.311   4.416  1.00  0.00     0.158 HD
ATOM     27 1H10 UNL     1      16.513  11.796   4.018  1.00  0.00     0.158 HD
ENDBRANCH  19  25
ENDBRANCH  12  14
ENDBRANCH   9  10
ENDBRANCH   8   9
BRANCH   6  28
HETATM   28  C4  UNL     1      17.520  21.151   8.795  1.00  0.00     0.285 C
HETATM   29  N3  UNL     1      16.323  20.857   9.488  1.00  0.00    -0.056 NA
HETATM   30  O1  UNL     1      18.112  22.249   8.893  1.00  0.00    -0.269 OA
ENDBRANCH   6  28
BRANCH   7  31
HETATM   31  O2  UNL     1      16.006  19.006   7.198  1.00  0.00    -0.344 OA
ATOM     32  H2  UNL     1      15.453  19.025   7.970  1.00  0.00     0.219 HD
ENDBRANCH   7  31
TORSDOF 8
ENDMDL