MODEL 2
REMARK VINA RESULT: -9.136807313      4.681      8.236
REMARK  10 active torsions:
REMARK  status: ('A' for Active; 'I' for Inactive)
REMARK    1  A    between atoms: N2_5  and  C3_6
REMARK    2  A    between atoms: C3_6  and  N3_7
REMARK    3  A    between atoms: N3_7  and  N4_8
REMARK    4  A    between atoms: N3_7  and  C9_26
REMARK    5  A    between atoms: N5_10  and  C4_12
REMARK    6  A    between atoms: C7_18  and  N8_19
REMARK    7  A    between atoms: C9_26  and  O2_27
REMARK    8  A    between atoms: N10_29  and  O3_31
REMARK    9  A    between atoms: C10_33  and  N11_34
REMARK   10  A    between atoms: N12_37  and  N13_38
ROOT
HETATM    1  C4  UNL     1      16.923  11.089   6.539  1.00  0.00     0.156 A
HETATM    2  C5  UNL     1      17.420  10.985   7.817  1.00  0.00     0.163 A
HETATM    3  C6  UNL     1      18.378  11.953   8.277  1.00  0.00     0.121 C
HETATM    4  N6  UNL     1      19.161  12.734   8.672  1.00  0.00    -0.190 NA
HETATM    5  N7  UNL     1      17.008   9.975   8.637  1.00  0.00    -0.180 N
ATOM      6  H7  UNL     1      17.384   9.907   9.583  1.00  0.00     0.185 HD
HETATM    7  C7  UNL     1      16.121   9.080   8.212  1.00  0.00     0.679 A
HETATM    8  N9  UNL     1      15.619   9.157   6.968  1.00  0.00    -0.154 N
ATOM      9  H9  UNL     1      14.941   8.464   6.654  1.00  0.00     0.187 HD
HETATM   10  C8  UNL     1      16.006  10.149   6.124  1.00  0.00     0.290 A
HETATM   11  O1  UNL     1      15.500  10.160   4.983  1.00  0.00    -0.265 OA
ENDROOT
BRANCH   1  12
HETATM   12  N5  UNL     1      17.350  12.126   5.706  1.00  0.00    -0.278 N
HETATM   13  N4  UNL     1      16.725  13.220   5.540  1.00  0.00    -0.235 N
ATOM     14  H4  UNL     1      15.847  13.408   6.024  1.00  0.00     0.208 HD
ATOM     15  H5  UNL     1      18.224  11.995   5.196  1.00  0.00     0.189 HD
BRANCH  13  16
HETATM   16  N3  UNL     1      17.300  14.173   4.654  1.00  0.00    -0.220 N
BRANCH  16  17
HETATM   17  C3  UNL     1      17.299  15.549   5.027  1.00  0.00     0.322 C
BRANCH  17  18
HETATM   18  N2  UNL     1      18.532  15.928   5.680  1.00  0.00    -0.101 N
HETATM   19  N1  UNL     1      19.194  15.251   6.631  1.00  0.00    -0.269 N
HETATM   20  C2  UNL     1      20.299  15.932   6.976  1.00  0.00     0.132 A
ATOM     21  H1  UNL     1      18.903  14.358   7.030  1.00  0.00     0.189 HD
HETATM   22  C1  UNL     1      21.339  15.577   7.986  1.00  0.00     0.093 C
HETATM   23  N12 UNL     1      20.364  17.063   6.248  1.00  0.00    -0.078 N
HETATM   24  C10 UNL     1      19.260  17.035   5.455  1.00  0.00     0.716 A
BRANCH  23  25
HETATM   25  N13 UNL     1      21.355  18.045   6.303  1.00  0.00    -0.323 N
ATOM     26 2H13 UNL     1      21.423  18.830   6.951  1.00  0.00     0.178 HD
ATOM     27 1H13 UNL     1      22.172  18.132   5.699  1.00  0.00     0.178 HD
ENDBRANCH  23  25
BRANCH  24  28
HETATM   28  N11 UNL     1      19.001  17.995   4.617  1.00  0.00    -0.231 N
ATOM     29 2H11 UNL     1      18.568  17.810   3.712  1.00  0.00     0.174 HD
ATOM     30 1H11 UNL     1      19.188  18.991   4.737  1.00  0.00     0.174 HD
ENDBRANCH  24  28
ENDBRANCH  17  18
ENDBRANCH  16  17
BRANCH  16  31
HETATM   31  C9  UNL     1      17.866  13.732   3.440  1.00  0.00     0.261 C
HETATM   32  N10 UNL     1      17.231  12.913   2.650  1.00  0.00    -0.231 N
ATOM     33  H10 UNL     1      17.658  12.607   1.776  1.00  0.00     0.198 HD
BRANCH  31  34
HETATM   34  O2  UNL     1      19.110  14.133   3.019  1.00  0.00    -0.330 OA
ATOM     35  H2  UNL     1      19.748  13.525   2.663  1.00  0.00     0.221 HD
ENDBRANCH  31  34
BRANCH  32  36
HETATM   36  O3  UNL     1      15.983  12.469   3.004  1.00  0.00    -0.287 OA
ATOM     37  H3  UNL     1      15.805  11.535   3.009  1.00  0.00     0.244 HD
ENDBRANCH  32  36
ENDBRANCH  16  31
ENDBRANCH  13  16
ENDBRANCH   1  12
BRANCH   7  38
HETATM   38  N8  UNL     1      15.748   8.135   9.009  1.00  0.00    -0.234 N
ATOM     39  H82 UNL     1      16.351   7.839   9.778  1.00  0.00     0.174 HD
ATOM     40  H81 UNL     1      14.842   7.688   8.863  1.00  0.00     0.174 HD
ENDBRANCH   7  38
TORSDOF 10
ENDMDL