MODEL 4
REMARK VINA RESULT: -9.164197967      2.166      2.725
REMARK  8 active torsions:
REMARK  status: ('A' for Active; 'I' for Inactive)
REMARK    1  A    between atoms: C2_3  and  O1_4
REMARK    2  A    between atoms: C3_6  and  N2_7
REMARK    3  A    between atoms: N3_9  and  C4_11
REMARK    4  A    between atoms: C5_12  and  O2_13
REMARK    5  A    between atoms: N4_17  and  O4_18
REMARK    6  A    between atoms: N5_20  and  C7_21
REMARK    7  A    between atoms: C7_21  and  C8_22
REMARK    8  A    between atoms: C10_29  and  N8_30
ROOT
HETATM    1  C4  UNL     1      18.828  15.327   6.177  1.00  0.00     0.157 A
HETATM    2  C5  UNL     1      20.110  15.241   6.666  1.00  0.00     0.172 A
HETATM    3  C6  UNL     1      20.814  16.375   7.027  1.00  0.00     0.323 A
HETATM    4  O3  UNL     1      21.986  16.347   7.478  1.00  0.00    -0.261 OA
HETATM    5  N4  UNL     1      20.198  17.560   6.883  1.00  0.00    -0.114 N
HETATM    6  N5  UNL     1      18.962  17.678   6.413  1.00  0.00    -0.217 N
HETATM    7  C9  UNL     1      18.261  16.589   6.057  1.00  0.00     0.295 A
HETATM    8  O6  UNL     1      17.071  16.669   5.603  1.00  0.00    -0.264 OA
ENDROOT
BRANCH   1   9
HETATM    9  N3  UNL     1      18.164  14.144   5.826  1.00  0.00    -0.291 N
HETATM   10  N2  UNL     1      17.758  13.885   4.650  1.00  0.00    -0.281 N
ATOM     11  H2  UNL     1      17.919  14.571   3.912  1.00  0.00     0.188 HD
ATOM     12  H3  UNL     1      17.997  13.451   6.557  1.00  0.00     0.187 HD
BRANCH  10  13
HETATM   13  C3  UNL     1      17.087  12.674   4.327  1.00  0.00     0.187 A
HETATM   14  C2  UNL     1      16.533  11.752   5.201  1.00  0.00     0.204 A
HETATM   15  N1  UNL     1      15.986  10.735   4.516  1.00  0.00    -0.163 N
HETATM   16  C1  UNL     1      15.301   9.558   5.069  1.00  0.00     0.177 C
HETATM   17  C10 UNL     1      16.187  11.005   3.215  1.00  0.00     0.681 A
HETATM   18  N7  UNL     1      16.849  12.172   3.101  1.00  0.00    -0.171 N
ATOM     19  H7  UNL     1      17.128  12.608   2.222  1.00  0.00     0.186 HD
BRANCH  14  20
HETATM   20  O1  UNL     1      16.536  11.849   6.585  1.00  0.00    -0.343 OA
ATOM     21  H1  UNL     1      15.838  12.242   7.095  1.00  0.00     0.219 HD
ENDBRANCH  14  20
BRANCH  17  22
HETATM   22  N8  UNL     1      15.800  10.254   2.213  1.00  0.00    -0.234 N
ATOM     23  H82 UNL     1      16.265  10.198   1.307  1.00  0.00     0.174 HD
ATOM     24  H81 UNL     1      14.989   9.636   2.213  1.00  0.00     0.174 HD
ENDBRANCH  17  22
ENDBRANCH  10  13
ENDBRANCH   1   9
BRANCH   2  25
HETATM   25  O2  UNL     1      20.778  14.026   6.828  1.00  0.00    -0.354 OA
ATOM     26  H2  UNL     1      21.518  13.920   7.414  1.00  0.00     0.218 HD
ENDBRANCH   2  25
BRANCH   6  27
HETATM   27  C7  UNL     1      18.350  18.991   6.281  1.00  0.00     0.254 C
BRANCH  27  28
HETATM   28  C8  UNL     1      17.647  19.388   7.523  1.00  0.00     0.251 C
HETATM   29  N6  UNL     1      16.249  19.559   7.488  1.00  0.00    -0.061 NA
HETATM   30  O5  UNL     1      18.295  19.565   8.581  1.00  0.00    -0.275 OA
ENDBRANCH  27  28
ENDBRANCH   6  27
BRANCH   5  31
HETATM   31  O4  UNL     1      20.873  18.705   7.234  1.00  0.00    -0.265 OA
ATOM     32  H4  UNL     1      20.713  19.501   6.740  1.00  0.00     0.247 HD
ENDBRANCH   5  31
TORSDOF 8
ENDMDL