MODEL 3
REMARK VINA RESULT: -9.906269676      2.721      8.158
REMARK  7 active torsions:
REMARK  status: ('A' for Active; 'I' for Inactive)
REMARK    1  A    between atoms: N1_1  and  C1_4
REMARK    2  A    between atoms: C2_7  and  N3_8
REMARK       I    between atoms: N3_8  and  C3_10
REMARK    3  A    between atoms: C3_10  and  C4_12
REMARK    4  A    between atoms: C4_12  and  C5_13
REMARK    5  A    between atoms: C5_13  and  C6_14
REMARK    6  A    between atoms: C7_28  and  N11_29
REMARK    7  A    between atoms: N12_31  and  C8_33
ROOT
HETATM    1  C1  UNL     1      18.907  16.252   4.586  1.00  0.00     0.713 A
HETATM    2  N2  UNL     1      18.394  17.381   5.073  1.00  0.00    -0.017 N
ATOM      3  H2  UNL     1      18.261  18.250   4.555  1.00  0.00     0.203 HD
HETATM    4  C2  UNL     1      18.084  17.181   6.355  1.00  0.00     0.738 A
HETATM    5  N8  UNL     1      18.407  15.921   6.664  1.00  0.00     0.016 N
HETATM    6  N9  UNL     1      18.281  15.266   7.822  1.00  0.00    -0.204 N
ATOM      7  H9  UNL     1      17.887  15.739   8.635  1.00  0.00     0.211 HD
HETATM    8  N10 UNL     1      18.667  14.008   7.915  1.00  0.00    -0.267 N
ATOM      9  H10 UNL     1      18.570  13.514   8.802  1.00  0.00     0.190 HD
HETATM   10  C7  UNL     1      19.180  13.381   6.867  1.00  0.00     0.154 A
HETATM   11  C9  UNL     1      19.307  14.056   5.678  1.00  0.00     0.189 A
HETATM   12  N16 UNL     1      18.906  15.359   5.588  1.00  0.00    -0.056 N
ENDROOT
BRANCH   4  13
HETATM   13  N3  UNL     1      17.557  18.057   7.173  1.00  0.00    -0.156 N
HETATM   14  C3  UNL     1      18.355  18.799   8.080  1.00  0.00     0.236 C
HETATM   15  O1  UNL     1      19.192  18.257   8.842  1.00  0.00    -0.273 OA
ATOM     16  H3  UNL     1      16.549  18.209   7.157  1.00  0.00     0.187 HD
BRANCH  14  17
HETATM   17  C4  UNL     1      18.179  20.266   8.110  1.00  0.00     0.111 C
BRANCH  17  18
HETATM   18  C5  UNL     1      19.480  20.898   8.526  1.00  0.00     0.088 C
BRANCH  18  19
HETATM   19  C6  UNL     1      19.428  21.358   9.953  1.00  0.00     0.113 A
HETATM   20  N4  UNL     1      18.982  22.535  10.415  1.00  0.00    -0.272 N
HETATM   21  N5  UNL     1      19.120  22.508  11.723  1.00  0.00    -0.227 N
ATOM     22  H4  UNL     1      18.607  23.304   9.858  1.00  0.00     0.190 HD
HETATM   23  N6  UNL     1      19.638  21.364  12.124  1.00  0.00    -0.227 N
ATOM     24  H5  UNL     1      18.862  23.273  12.346  1.00  0.00     0.210 HD
HETATM   25  N7  UNL     1      19.826  20.656  11.026  1.00  0.00    -0.272 N
ATOM     26  H6  UNL     1      19.848  21.083  13.082  1.00  0.00     0.210 HD
ATOM     27  H7  UNL     1      20.217  19.714  10.997  1.00  0.00     0.190 HD
ENDBRANCH  18  19
ENDBRANCH  17  18
ENDBRANCH  14  17
ENDBRANCH   4  13
BRANCH   1  28
HETATM   28  N1  UNL     1      19.342  15.981   3.402  1.00  0.00    -0.232 N
ATOM     29  H12 UNL     1      18.958  15.233   2.826  1.00  0.00     0.174 HD
ATOM     30  H11 UNL     1      20.086  16.420   2.860  1.00  0.00     0.174 HD
ENDBRANCH   1  28
BRANCH  10  31
HETATM   31  N11 UNL     1      19.617  12.022   6.896  1.00  0.00    -0.269 N
HETATM   32  N12 UNL     1      18.744  11.134   6.651  1.00  0.00    -0.128 N
ATOM     33  H12 UNL     1      19.030  10.155   6.663  1.00  0.00     0.205 HD
ATOM     34  H11 UNL     1      20.585  11.777   7.104  1.00  0.00     0.189 HD
BRANCH  32  35
HETATM   35  C8  UNL     1      17.391  11.436   6.359  1.00  0.00     0.723 A
HETATM   36  N13 UNL     1      16.685  11.781   5.274  1.00  0.00    -0.113 N
HETATM   37  N14 UNL     1      15.561  11.843   5.973  1.00  0.00     0.007 NA
ATOM     38  H13 UNL     1      16.920  11.936   4.293  1.00  0.00     0.203 HD
HETATM   39  N15 UNL     1      16.261  11.500   7.059  1.00  0.00    -0.113 N
ATOM     40  H15 UNL     1      16.021  11.346   8.038  1.00  0.00     0.203 HD
ENDBRANCH  32  35
ENDBRANCH  10  31
TORSDOF 7
ENDMDL