MODEL 2
REMARK VINA RESULT: -8.819441043      1.076      1.470
REMARK  9 active torsions:
REMARK  status: ('A' for Active; 'I' for Inactive)
REMARK    1  A    between atoms: N1_2  and  C2_4
REMARK    2  A    between atoms: C3_5  and  N2_6
REMARK    3  A    between atoms: N3_8  and  O1_10
REMARK    4  A    between atoms: O1_10  and  C4_11
REMARK    5  A    between atoms: C4_11  and  C5_13
REMARK    6  A    between atoms: C5_13  and  O3_15
REMARK    7  A    between atoms: C9_22  and  N5_23
REMARK    8  A    between atoms: C10_28  and  N7_29
REMARK    9  A    between atoms: N9_35  and  N10_36
ROOT
HETATM    1  C2  UNL     1      17.438  13.805   5.133  1.00  0.00     0.170 C
HETATM    2  C3  UNL     1      17.862  14.162   6.378  1.00  0.00     0.171 C
HETATM    3  N4  UNL     1      18.274  13.371   7.389  1.00  0.00    -0.304 N
ATOM      4  H4  UNL     1      18.931  13.774   8.057  1.00  0.00     0.171 HD
HETATM    5  C7  UNL     1      17.890  12.082   7.597  1.00  0.00     0.265 C
HETATM    6  O4  UNL     1      18.447  11.540   8.583  1.00  0.00    -0.267 OA
HETATM    7  C8  UNL     1      16.991  11.330   6.876  1.00  0.00     0.122 A
HETATM    8  C9  UNL     1      16.670  10.165   7.536  1.00  0.00     0.134 A
HETATM    9  N6  UNL     1      15.799   9.338   6.941  1.00  0.00    -0.176 N
ATOM     10  H6  UNL     1      15.553   8.472   7.421  1.00  0.00     0.186 HD
HETATM   11  C10 UNL     1      15.233   9.585   5.747  1.00  0.00     0.679 A
HETATM   12  N8  UNL     1      15.563  10.731   5.122  1.00  0.00    -0.174 N
ATOM     13  H8  UNL     1      15.142  10.936   4.216  1.00  0.00     0.186 HD
HETATM   14  C11 UNL     1      16.428  11.612   5.653  1.00  0.00     0.163 A
HETATM   15  N9  UNL     1      16.650  12.703   4.902  1.00  0.00    -0.225 N
ENDROOT
BRANCH   2  16
HETATM   16  N2  UNL     1      17.862  15.573   6.628  1.00  0.00    -0.262 N
HETATM   17  N3  UNL     1      18.115  15.940   7.830  1.00  0.00    -0.197 N
ATOM     18  H3  UNL     1      18.300  15.235   8.544  1.00  0.00     0.216 HD
ATOM     19  H2  UNL     1      17.672  16.250   5.889  1.00  0.00     0.190 HD
BRANCH  17  20
HETATM   20  O1  UNL     1      18.138  17.276   8.167  1.00  0.00    -0.181 OA
BRANCH  20  21
HETATM   21  C4  UNL     1      18.289  18.226   7.185  1.00  0.00     0.310 C
HETATM   22  O2  UNL     1      19.218  18.078   6.350  1.00  0.00    -0.260 OA
BRANCH  21  23
HETATM   23  C5  UNL     1      17.371  19.414   7.105  1.00  0.00     0.215 C
HETATM   24  C6  UNL     1      17.713  20.420   8.154  1.00  0.00     0.050 C
BRANCH  23  25
HETATM   25  O3  UNL     1      16.062  19.007   7.185  1.00  0.00    -0.386 OA
ATOM     26  H3  UNL     1      15.955  18.164   6.760  1.00  0.00     0.210 HD
ENDBRANCH  23  25
ENDBRANCH  21  23
ENDBRANCH  20  21
ENDBRANCH  17  20
ENDBRANCH   2  16
BRANCH   1  27
HETATM   27  N1  UNL     1      17.769  14.475   4.114  1.00  0.00    -0.376 N
HETATM   28  C1  UNL     1      19.001  14.424   3.431  1.00  0.00     0.148 C
ATOM     29  H1  UNL     1      17.071  15.121   3.747  1.00  0.00     0.160 HD
ENDBRANCH   1  27
BRANCH  15  30
HETATM   30  N10 UNL     1      15.964  12.696   3.692  1.00  0.00    -0.335 N
ATOM     31 2H10 UNL     1      15.874  13.620   3.268  1.00  0.00     0.177 HD
ATOM     32 1H10 UNL     1      15.632  11.785   3.376  1.00  0.00     0.177 HD
ENDBRANCH  15  30
BRANCH   8  33
HETATM   33  N5  UNL     1      17.204   9.897   8.697  1.00  0.00    -0.384 N
ATOM     34  H52 UNL     1      16.796   9.219   9.341  1.00  0.00     0.157 HD
ATOM     35  H51 UNL     1      18.059  10.369   8.993  1.00  0.00     0.157 HD
ENDBRANCH   8  33
BRANCH  11  36
HETATM   36  N7  UNL     1      14.386   8.738   5.213  1.00  0.00    -0.234 N
ATOM     37  H72 UNL     1      14.619   7.750   5.114  1.00  0.00     0.174 HD
ATOM     38  H71 UNL     1      13.473   9.047   4.881  1.00  0.00     0.174 HD
ENDBRANCH  11  36
TORSDOF 9
ENDMDL