MODEL 5
REMARK VINA RESULT: -9.587108122      4.088      6.940
REMARK  7 active torsions:
REMARK  status: ('A' for Active; 'I' for Inactive)
REMARK    1  A    between atoms: C2_2  and  O1_3
REMARK    2  A    between atoms: O1_3  and  C3_4
REMARK    3  A    between atoms: C3_4  and  C4_6
REMARK    4  A    between atoms: C7_15  and  C8_16
REMARK    5  A    between atoms: C9_21  and  C10_22
REMARK    6  A    between atoms: C10_22  and  C11_26
REMARK    7  A    between atoms: C12_32  and  N8_33
ROOT
HETATM    1  C8  UNL     1      18.899  19.371   8.593  1.00  0.00     0.183 A
HETATM    2  N3  UNL     1      19.709  19.319   7.563  1.00  0.00    -0.277 N
ATOM      3  H3  UNL     1      20.293  20.092   7.242  1.00  0.00     0.189 HD
HETATM    4  N4  UNL     1      19.664  18.136   7.007  1.00  0.00    -0.276 N
ATOM      5  H4  UNL     1      20.200  17.840   6.191  1.00  0.00     0.189 HD
HETATM    6  C9  UNL     1      18.801  17.385   7.683  1.00  0.00     0.193 A
HETATM    7  O6  UNL     1      18.355  18.186   8.651  1.00  0.00    -0.271 OA
ENDROOT
BRANCH   1   8
HETATM    8  C7  UNL     1      18.563  20.402   9.542  1.00  0.00     0.118 A
HETATM    9  C4  UNL     1      17.446  21.172   9.498  1.00  0.00     0.132 A
HETATM   10  N1  UNL     1      17.283  22.128  10.496  1.00  0.00    -0.302 N
HETATM   11  C5  UNL     1      18.158  22.312  11.466  1.00  0.00     0.327 A
ATOM     12  H1  UNL     1      16.449  22.713  10.477  1.00  0.00     0.171 HD
HETATM   13  O3  UNL     1      17.989  23.181  12.356  1.00  0.00    -0.247 OA
HETATM   14  N2  UNL     1      19.282  21.566  11.543  1.00  0.00    -0.275 N
HETATM   15  C6  UNL     1      19.466  20.639  10.597  1.00  0.00     0.266 A
ATOM     16  H2  UNL     1      19.962  21.703  12.291  1.00  0.00     0.173 HD
HETATM   17  O4  UNL     1      20.518  19.954  10.685  1.00  0.00    -0.267 OA
BRANCH   9  18
HETATM   18  C3  UNL     1      16.406  21.089   8.502  1.00  0.00     0.311 C
HETATM   19  O2  UNL     1      15.694  20.138   8.265  1.00  0.00    -0.258 OA
BRANCH  18  20
HETATM   20  O1  UNL     1      16.141  22.206   7.678  1.00  0.00    -0.317 OA
BRANCH  20  21
HETATM   21  C2  UNL     1      15.145  23.139   8.049  1.00  0.00     0.175 C
HETATM   22  C1  UNL     1      15.601  24.548   8.141  1.00  0.00     0.034 C
ENDBRANCH  20  21
ENDBRANCH  18  20
ENDBRANCH   9  18
ENDBRANCH   1   8
BRANCH   6  23
HETATM   23  C10 UNL     1      18.403  16.024   7.469  1.00  0.00     0.112 C
HETATM   24  N5  UNL     1      17.947  15.389   8.543  1.00  0.00    -0.394 N
ATOM     25  H52 UNL     1      17.926  15.931   9.408  1.00  0.00     0.156 HD
ATOM     26  H51 UNL     1      17.664  14.421   8.391  1.00  0.00     0.156 HD
BRANCH  23  27
HETATM   27  C11 UNL     1      18.433  15.267   6.259  1.00  0.00     0.132 A
HETATM   28  N6  UNL     1      17.610  15.577   5.200  1.00  0.00    -0.236 N
HETATM   29  O5  UNL     1      17.833  14.746   4.237  1.00  0.00    -0.155 OA
ATOM     30  H6  UNL     1      16.933  16.340   5.179  1.00  0.00     0.197 HD
HETATM   31  N7  UNL     1      18.726  13.897   4.527  1.00  0.00    -0.224 N
HETATM   32  C12 UNL     1      19.135  14.190   5.804  1.00  0.00     0.152 A
ATOM     33  H7  UNL     1      19.072  13.145   3.931  1.00  0.00     0.198 HD
BRANCH  32  34
HETATM   34  N8  UNL     1      20.033  13.548   6.451  1.00  0.00    -0.382 N
ATOM     35  H82 UNL     1      20.885  13.960   6.832  1.00  0.00     0.157 HD
ATOM     36  H81 UNL     1      20.018  12.552   6.671  1.00  0.00     0.157 HD
ENDBRANCH  32  34
ENDBRANCH  23  27
ENDBRANCH   6  23
TORSDOF 7
ENDMDL