MODEL 3
REMARK VINA RESULT: -9.016913898      1.783      2.178
REMARK  7 active torsions:
REMARK  status: ('A' for Active; 'I' for Inactive)
REMARK    1  A    between atoms: C4_7  and  N3_8
REMARK    2  A    between atoms: C5_13  and  S1_14
REMARK    3  A    between atoms: S1_14  and  S2_15
REMARK    4  A    between atoms: S2_15  and  C6_16
REMARK    5  A    between atoms: C7_21  and  N7_22
REMARK       I    between atoms: N8_24  and  C8_26
REMARK       I    between atoms: C8_26  and  N9_28
REMARK    6  A    between atoms: N9_28  and  N10_29
REMARK    7  A    between atoms: N11_32  and  N12_33
ROOT
HETATM    1  C6  UNL     1      19.014  16.747   5.573  1.00  0.00     0.209 A
HETATM    2  N5  UNL     1      19.213  17.886   4.778  1.00  0.00    -0.263 N
ATOM      3  H5  UNL     1      19.227  17.891   3.758  1.00  0.00     0.189 HD
HETATM    4  N6  UNL     1      19.376  18.917   5.518  1.00  0.00    -0.127 N
ATOM      5  H6  UNL     1      19.527  19.863   5.166  1.00  0.00     0.206 HD
HETATM    6  C7  UNL     1      19.324  18.598   6.786  1.00  0.00     0.734 A
HETATM    7  N11 UNL     1      19.064  17.278   6.848  1.00  0.00    -0.065 N
ENDROOT
BRANCH   1   8
HETATM    8  S2  UNL     1      19.053  15.084   5.363  1.00  0.00    -0.011 SA
BRANCH   8   9
HETATM    9  S1  UNL     1      17.502  14.110   4.364  1.00  0.00    -0.029 SA
BRANCH   9  10
HETATM   10  C5  UNL     1      16.981  12.674   4.992  1.00  0.00     0.120 A
HETATM   11  C2  UNL     1      16.225  11.661   4.265  1.00  0.00     0.057 A
HETATM   12  C1  UNL     1      16.194  11.737   2.808  1.00  0.00     0.072 C
HETATM   13  N1  UNL     1      15.835  10.707   5.042  1.00  0.00    -0.286 N
HETATM   14  N2  UNL     1      15.971  10.517   6.223  1.00  0.00    -0.128 N
ATOM     15  H1  UNL     1      15.310   9.973   4.564  1.00  0.00     0.187 HD
HETATM   16  C3  UNL     1      15.246   9.534   7.069  1.00  0.00     0.197 C
HETATM   17  C4  UNL     1      16.717  11.430   6.965  1.00  0.00     0.693 A
HETATM   18  N4  UNL     1      17.167  12.448   6.254  1.00  0.00    -0.182 N
ATOM     19  H4  UNL     1      17.726  13.136   6.757  1.00  0.00     0.185 HD
BRANCH  17  20
HETATM   20  N3  UNL     1      16.917  11.077   8.195  1.00  0.00    -0.233 N
ATOM     21  H32 UNL     1      17.489  10.340   8.610  1.00  0.00     0.174 HD
ATOM     22  H31 UNL     1      16.342  11.577   8.872  1.00  0.00     0.174 HD
ENDBRANCH  17  20
ENDBRANCH   9  10
ENDBRANCH   8   9
ENDBRANCH   1   8
BRANCH   7  23
HETATM   23  N12 UNL     1      18.600  16.455   7.919  1.00  0.00    -0.322 N
ATOM     24 2H12 UNL     1      17.673  16.089   8.136  1.00  0.00     0.178 HD
ATOM     25 1H12 UNL     1      19.303  15.974   8.478  1.00  0.00     0.178 HD
ENDBRANCH   7  23
BRANCH   6  26
HETATM   26  N7  UNL     1      19.598  19.390   7.853  1.00  0.00    -0.124 N
HETATM   27  N8  UNL     1      18.642  19.992   8.434  1.00  0.00    -0.224 N
HETATM   28  C8  UNL     1      18.905  20.515  10.080  1.00  0.00     0.430 C
ATOM     29  H8  UNL     1      17.756  20.163   7.958  1.00  0.00     0.193 HD
HETATM   30  O1  UNL     1      20.059  20.067  10.156  1.00  0.00    -0.227 OA
HETATM   31  N9  UNL     1      17.644  21.046  10.113  1.00  0.00    -0.271 NA
ATOM     32  H7  UNL     1      20.556  19.500   8.184  1.00  0.00     0.206 HD
BRANCH  31  33
HETATM   33  N10 UNL     1      16.556  21.520  10.192  1.00  0.00    -0.275 N
ATOM     34 2H10 UNL     1      17.236  22.168   9.794  1.00  0.00     0.191 HD
ATOM     35 1H10 UNL     1      15.607  21.887  10.279  1.00  0.00     0.191 HD
ENDBRANCH  31  33
ENDBRANCH   6  26
TORSDOF 7
ENDMDL