MODEL 4
REMARK VINA RESULT: -8.015486423      2.552      8.378
REMARK  18 active torsions:
REMARK  status: ('A' for Active; 'I' for Inactive)
REMARK    1  A    between atoms: O1_2  and  C2_3
REMARK    2  A    between atoms: C2_3  and  C3_4
REMARK    3  A    between atoms: C2_3  and  C10_16
REMARK    4  A    between atoms: C5_6  and  O2_7
REMARK    5  A    between atoms: C6_9  and  O3_10
REMARK    6  A    between atoms: C10_16  and  O4_17
REMARK    7  A    between atoms: C10_16  and  C11_19
REMARK    8  A    between atoms: C11_19  and  O5_20
REMARK    9  A    between atoms: C11_19  and  N2_22
REMARK   10  A    between atoms: C16_28  and  C17_29
REMARK   11  A    between atoms: C17_29  and  O6_30
REMARK   12  A    between atoms: C17_29  and  C20_34
REMARK   13  A    between atoms: O6_30  and  C18_31
REMARK   14  A    between atoms: C20_34  and  O8_35
REMARK   15  A    between atoms: C20_34  and  O9_37
REMARK   16  A    between atoms: C21_40  and  O11_41
REMARK   17  A    between atoms: C21_40  and  C22_43
REMARK   18  A    between atoms: C22_43  and  O12_45
ROOT
HETATM    1  C3  UNL     1     112.304  66.294  42.327  1.00  0.00    -0.003 A
HETATM    2  C4  UNL     1     113.203  67.343  42.284  1.00  0.00     0.050 A
HETATM    3  C5  UNL     1     112.884  68.642  42.626  1.00  0.00     0.099 A
HETATM    4  C6  UNL     1     111.613  68.949  43.038  1.00  0.00     0.100 A
HETATM    5  C7  UNL     1     110.687  67.921  43.093  1.00  0.00     0.062 A
HETATM    6  C8  UNL     1     111.027  66.607  42.744  1.00  0.00     0.056 A
HETATM    7  C9  UNL     1     110.001  65.609  42.896  1.00  0.00     0.100 C
HETATM    8  N1  UNL     1     109.170  64.814  43.044  1.00  0.00    -0.191 NA
ENDROOT
BRANCH   1   9
HETATM    9  C2  UNL     1     112.653  64.914  41.889  1.00  0.00     0.188 C
BRANCH   9  10
HETATM   10  O1  UNL     1     113.569  64.953  40.879  1.00  0.00    -0.383 OA
HETATM   11  C1  UNL     1     114.318  63.868  40.588  1.00  0.00     0.202 C
ENDBRANCH   9  10
BRANCH   9  12
HETATM   12  C10 UNL     1     113.300  64.239  43.120  1.00  0.00     0.200 C
BRANCH  12  13
HETATM   13  O4  UNL     1     113.224  65.153  44.141  1.00  0.00    -0.388 OA
ATOM     14  H4  UNL     1     113.388  64.669  44.942  1.00  0.00     0.210 HD
ENDBRANCH  12  13
BRANCH  12  15
HETATM   15  C11 UNL     1     112.463  63.023  43.547  1.00  0.00     0.249 C
BRANCH  15  16
HETATM   16  O5  UNL     1     111.565  63.512  44.482  1.00  0.00    -0.374 OA
ATOM     17  H5  UNL     1     111.814  63.103  45.302  1.00  0.00     0.212 HD
ENDBRANCH  15  16
BRANCH  15  18
HETATM   18  N2  UNL     1     111.649  62.693  42.381  1.00  0.00    -0.368 N
HETATM   19  C12 UNL     1     111.118  61.534  42.258  1.00  0.00    -0.008 C
HETATM   20  C13 UNL     1     110.261  60.927  41.190  1.00  0.00     0.063 C
HETATM   21  C15 UNL     1     111.049  60.260  42.974  1.00  0.00     0.072 C
HETATM   22  C14 UNL     1     110.927  59.608  41.562  1.00  0.00     0.068 C
HETATM   23  C21 UNL     1     109.980  58.501  41.832  1.00  0.00     0.193 C
HETATM   24  O10 UNL     1     109.038  59.068  42.678  1.00  0.00    -0.344 OA
HETATM   25  C16 UNL     1     109.864  59.738  43.627  1.00  0.00     0.169 C
ATOM     26  H2  UNL     1     111.502  63.394  41.655  1.00  0.00     0.161 HD
BRANCH  23  27
HETATM   27  O11 UNL     1     110.577  57.428  42.491  1.00  0.00    -0.363 OA
ATOM     28  H11 UNL     1     110.414  57.434  43.427  1.00  0.00     0.213 HD
ENDBRANCH  23  27
BRANCH  23  29
HETATM   29  C22 UNL     1     109.348  57.956  40.571  1.00  0.00     0.176 C
HETATM   30  C23 UNL     1     107.915  57.588  40.875  1.00  0.00     0.045 C
BRANCH  29  31
HETATM   31  O12 UNL     1     110.074  56.828  40.179  1.00  0.00    -0.390 OA
ATOM     32  H12 UNL     1     110.642  57.082  39.461  1.00  0.00     0.210 HD
ENDBRANCH  29  31
ENDBRANCH  23  29
BRANCH  25  33
HETATM   33  C17 UNL     1     109.048  60.514  44.582  1.00  0.00     0.216 C
BRANCH  33  34
HETATM   34  O6  UNL     1     109.781  61.442  45.301  1.00  0.00    -0.309 OA
BRANCH  34  35
HETATM   35  C18 UNL     1     109.833  61.647  46.640  1.00  0.00     0.255 C
HETATM   36  C19 UNL     1     109.366  60.582  47.576  1.00  0.00     0.126 C
HETATM   37  O7  UNL     1     110.264  62.713  47.114  1.00  0.00    -0.266 OA
ENDBRANCH  34  35
ENDBRANCH  33  34
BRANCH  33  38
HETATM   38  C20 UNL     1     108.053  61.339  43.672  1.00  0.00     0.285 C
BRANCH  38  39
HETATM   39  O8  UNL     1     106.908  60.589  43.500  1.00  0.00    -0.369 OA
ATOM     40  H8  UNL     1     106.539  60.803  42.651  1.00  0.00     0.212 HD
ENDBRANCH  38  39
BRANCH  38  41
HETATM   41  O9  UNL     1     107.732  62.527  44.280  1.00  0.00    -0.369 OA
ATOM     42  H9  UNL     1     108.079  63.255  43.777  1.00  0.00     0.212 HD
ENDBRANCH  38  41
ENDBRANCH  33  38
ENDBRANCH  25  33
ENDBRANCH  15  18
ENDBRANCH  12  15
ENDBRANCH   9  12
ENDBRANCH   1   9
BRANCH   4  43
HETATM   43  O3  UNL     1     111.239  70.248  43.394  1.00  0.00    -0.358 OA
ATOM     44  H3  UNL     1     111.016  70.484  44.287  1.00  0.00     0.217 HD
ENDBRANCH   4  43
BRANCH   3  45
HETATM   45  O2  UNL     1     113.879  69.604  42.537  1.00  0.00    -0.358 OA
ATOM     46  H2  UNL     1     114.237  69.799  41.679  1.00  0.00     0.217 HD
ENDBRANCH   3  45
TORSDOF 18
ENDMDL