MODEL 2
REMARK VINA RESULT: -9.443487949      1.945      2.373
REMARK  11 active torsions:
REMARK  status: ('A' for Active; 'I' for Inactive)
REMARK    1  A    between atoms: C2_7  and  N3_8
REMARK    2  A    between atoms: C4_14  and  C5_15
REMARK    3  A    between atoms: C5_15  and  N5_20
REMARK    4  A    between atoms: N4_16  and  O1_18
REMARK       I    between atoms: N5_20  and  C6_22
REMARK    5  A    between atoms: C6_22  and  C7_24
REMARK    6  A    between atoms: C7_24  and  N6_25
REMARK    7  A    between atoms: C7_24  and  C15_34
REMARK    8  A    between atoms: N6_25  and  O3_26
REMARK    9  A    between atoms: O3_26  and  C8_27
REMARK   10  A    between atoms: C8_27  and  C9_28
REMARK       I    between atoms: C15_34  and  N7_36
REMARK   11  A    between atoms: N7_36  and  C16_38
ROOT
HETATM    1  C7  UNL     1     110.827  63.097  43.590  1.00  0.00     0.290 C
ENDROOT
BRANCH   1   2
HETATM    2  C6  UNL     1     112.321  62.927  43.491  1.00  0.00     0.254 C
HETATM    3  N5  UNL     1     112.979  62.692  42.279  1.00  0.00    -0.312 N
ATOM      4  H5  UNL     1     112.388  62.640  41.450  1.00  0.00     0.170 HD
HETATM    5  O2  UNL     1     113.009  63.001  44.549  1.00  0.00    -0.271 OA
BRANCH   3   6
HETATM    6  C5  UNL     1     114.360  62.520  42.067  1.00  0.00     0.125 C
HETATM    7  N4  UNL     1     115.012  63.494  41.476  1.00  0.00    -0.255 N
ATOM      8  H4  UNL     1     116.016  63.385  41.326  1.00  0.00     0.195 HD
BRANCH   6   9
HETATM    9  C4  UNL     1     115.171  61.354  42.454  1.00  0.00     0.183 C
HETATM   10  C1  UNL     1     114.718  60.107  41.786  1.00  0.00     0.093 C
HETATM   11  N1  UNL     1     113.433  59.869  41.866  1.00  0.00    -0.388 N
HETATM   12  N2  UNL     1     115.587  59.227  41.133  1.00  0.00    -0.351 N
ATOM     13  H12 UNL     1     113.122  59.013  41.408  1.00  0.00     0.157 HD
ATOM     14  H11 UNL     1     112.799  60.511  42.342  1.00  0.00     0.157 HD
HETATM   15  C2  UNL     1     116.543  59.633  40.138  1.00  0.00     0.292 C
ATOM     16  H2  UNL     1     115.540  58.238  41.378  1.00  0.00     0.163 HD
HETATM   17  C3  UNL     1     117.082  61.014  40.286  1.00  0.00     0.129 C
HETATM   18  S1  UNL     1     116.919  61.601  41.994  1.00  0.00    -0.145 SA
BRANCH  15  19
HETATM   19  N3  UNL     1     117.680  58.723  40.204  1.00  0.00    -0.058 N
ATOM     20  H33 UNL     1     118.382  58.917  39.490  1.00  0.00     0.276 HD
ATOM     21  H32 UNL     1     118.268  58.886  41.022  1.00  0.00     0.276 HD
ATOM     22  H31 UNL     1     117.325  57.767  40.158  1.00  0.00     0.276 HD
ENDBRANCH  15  19
ENDBRANCH   6   9
BRANCH   7  23
HETATM   23  O1  UNL     1     114.420  64.635  41.056  1.00  0.00    -0.288 OA
ATOM     24  H1  UNL     1     114.544  65.474  41.484  1.00  0.00     0.244 HD
ENDBRANCH   7  23
ENDBRANCH   3   6
ENDBRANCH   1   2
BRANCH   1  25
HETATM   25  N6  UNL     1     110.464  63.870  42.379  1.00  0.00    -0.076 NA
BRANCH  25  26
HETATM   26  O3  UNL     1     111.162  65.017  42.407  1.00  0.00    -0.281 OA
BRANCH  26  27
HETATM   27  C8  UNL     1     110.374  66.054  42.847  1.00  0.00     0.234 C
BRANCH  27  28
HETATM   28  C9  UNL     1     111.255  67.273  42.799  1.00  0.00    -0.033 A
HETATM   29  C10 UNL     1     112.547  67.140  42.336  1.00  0.00     0.009 A
HETATM   30  C11 UNL     1     113.357  68.246  42.303  1.00  0.00     0.001 A
HETATM   31  C12 UNL     1     112.858  69.460  42.733  1.00  0.00     0.000 A
HETATM   32  C13 UNL     1     111.551  69.584  43.199  1.00  0.00     0.001 A
HETATM   33  C14 UNL     1     110.748  68.465  43.226  1.00  0.00     0.009 A
ENDBRANCH  27  28
ENDBRANCH  26  27
ENDBRANCH  25  26
ENDBRANCH   1  25
BRANCH   1  34
HETATM   34  C15 UNL     1     110.149  61.779  43.537  1.00  0.00     0.250 C
HETATM   35  O4  UNL     1     109.007  61.734  43.015  1.00  0.00    -0.271 OA
HETATM   36  N7  UNL     1     110.739  60.599  44.052  1.00  0.00    -0.331 N
ATOM     37  H7  UNL     1     111.664  60.654  44.477  1.00  0.00     0.165 HD
BRANCH  36  38
HETATM   38  C16 UNL     1     110.083  59.341  43.995  1.00  0.00     0.258 C
HETATM   39  N8  UNL     1     108.691  59.368  44.476  1.00  0.00    -0.304 N
HETATM   40  N9  UNL     1     107.500  58.838  44.093  1.00  0.00    -0.266 N
ATOM     41  H8  UNL     1     108.596  59.933  45.320  1.00  0.00     0.183 HD
HETATM   42  C17 UNL     1     107.003  58.187  42.821  1.00  0.00     0.293 C
ATOM     43  H9  UNL     1     106.787  58.891  44.820  1.00  0.00     0.190 HD
HETATM   44  O5  UNL     1     106.074  57.801  42.358  1.00  0.00    -0.264 OA
HETATM   45  C18 UNL     1     108.186  58.018  41.885  1.00  0.00     0.145 A
HETATM   46  C19 UNL     1     108.959  57.729  40.872  1.00  0.00     0.045 A
HETATM   47  O6  UNL     1     109.004  58.480  42.548  1.00  0.00    -0.305 OA
HETATM   48  C20 UNL     1     110.291  58.211  41.341  1.00  0.00     0.040 A
HETATM   49  C21 UNL     1     110.106  58.724  42.586  1.00  0.00     0.097 A
ENDBRANCH  36  38
ENDBRANCH   1  34
TORSDOF 11
ENDMDL