MODEL 4
REMARK VINA RESULT: -10.093172116      0.868      1.134
REMARK  14 active torsions:
REMARK  status: ('A' for Active; 'I' for Inactive)
REMARK    1  A    between atoms: C2_2  and  C3_4
REMARK    2  A    between atoms: C4_5  and  O2_6
REMARK    3  A    between atoms: C5_8  and  O3_9
REMARK    4  A    between atoms: C6_11  and  C7_12
REMARK    5  A    between atoms: C7_12  and  O4_13
REMARK    6  A    between atoms: O4_13  and  C8_14
REMARK       I    between atoms: C8_14  and  N1_16
REMARK    7  A    between atoms: N1_16  and  C9_18
REMARK    8  A    between atoms: C9_18  and  C10_19
REMARK       I    between atoms: C10_19  and  N2_21
REMARK    9  A    between atoms: N2_21  and  C11_23
REMARK   10  A    between atoms: C11_23  and  C12_24
REMARK   11  A    between atoms: C11_23  and  C19_33
REMARK   12  A    between atoms: C12_24  and  C13_25
REMARK   13  A    between atoms: C18_30  and  O7_31
REMARK       I    between atoms: C19_33  and  N3_35
REMARK       I    between atoms: N3_35  and  C20_37
REMARK   14  A    between atoms: N6_42  and  N7_43
ROOT
HETATM    1  C9  UNL     1     108.455  61.776  44.166  1.00  0.00     0.227 C
ENDROOT
BRANCH   1   2
HETATM    2  N1  UNL     1     108.175  60.697  43.247  1.00  0.00    -0.328 N
HETATM    3  C8  UNL     1     106.890  60.588  42.670  1.00  0.00     0.361 C
HETATM    4  O5  UNL     1     105.963  61.401  42.912  1.00  0.00    -0.238 OA
ATOM      5  H1  UNL     1     108.901  60.018  43.017  1.00  0.00     0.165 HD
BRANCH   3   6
HETATM    6  O4  UNL     1     106.549  59.562  41.780  1.00  0.00    -0.298 OA
BRANCH   6   7
HETATM    7  C7  UNL     1     106.595  58.204  42.158  1.00  0.00     0.243 C
BRANCH   7   8
HETATM    8  C6  UNL     1     106.641  57.295  41.006  1.00  0.00     0.097 A
HETATM    9  C5  UNL     1     105.462  56.583  40.728  1.00  0.00     0.127 A
HETATM   10  C4  UNL     1     105.408  55.695  39.660  1.00  0.00     0.120 A
HETATM   11  C3  UNL     1     106.535  55.513  38.862  1.00  0.00     0.115 A
HETATM   12  C21 UNL     1     107.669  56.241  39.184  1.00  0.00     0.283 A
HETATM   13  N6  UNL     1     107.686  57.092  40.224  1.00  0.00    -0.225 N
HETATM   14  O9  UNL     1     108.709  56.088  38.465  1.00  0.00    -0.265 OA
BRANCH   9  15
HETATM   15  O3  UNL     1     104.359  56.782  41.533  1.00  0.00    -0.356 OA
ATOM     16  H3  UNL     1     103.494  56.881  41.151  1.00  0.00     0.218 HD
ENDBRANCH   9  15
BRANCH  10  17
HETATM   17  O2  UNL     1     104.253  54.996  39.386  1.00  0.00    -0.357 OA
ATOM     18  H2  UNL     1     103.488  55.456  39.061  1.00  0.00     0.218 HD
ENDBRANCH  10  17
BRANCH  11  19
HETATM   19  C2  UNL     1     106.492  54.597  37.749  1.00  0.00     0.164 C
HETATM   20  C1  UNL     1     107.165  53.303  37.709  1.00  0.00     0.097 C
HETATM   21  O1  UNL     1     105.809  54.965  36.733  1.00  0.00    -0.292 OA
ENDBRANCH  11  19
BRANCH  13  22
HETATM   22  N7  UNL     1     108.864  57.797  40.493  1.00  0.00    -0.335 N
ATOM     23  H72 UNL     1     109.073  58.047  41.459  1.00  0.00     0.177 HD
ATOM     24  H71 UNL     1     109.475  58.037  39.711  1.00  0.00     0.177 HD
ENDBRANCH  13  22
ENDBRANCH   7   8
ENDBRANCH   6   7
ENDBRANCH   3   6
ENDBRANCH   1   2
BRANCH   1  25
HETATM   25  C10 UNL     1     109.603  62.610  43.791  1.00  0.00     0.236 C
HETATM   26  O6  UNL     1     110.585  62.711  44.558  1.00  0.00    -0.272 OA
HETATM   27  N2  UNL     1     109.636  63.314  42.568  1.00  0.00    -0.346 N
ATOM     28  H2  UNL     1     108.835  63.235  41.941  1.00  0.00     0.163 HD
BRANCH  27  29
HETATM   29  C11 UNL     1     110.744  64.139  42.164  1.00  0.00     0.181 C
BRANCH  29  30
HETATM   30  C12 UNL     1     111.348  65.005  43.201  1.00  0.00     0.076 C
BRANCH  30  31
HETATM   31  C13 UNL     1     111.508  66.421  42.906  1.00  0.00    -0.023 A
HETATM   32  C14 UNL     1     110.567  67.382  43.240  1.00  0.00     0.010 A
HETATM   33  C15 UNL     1     110.742  68.729  43.025  1.00  0.00     0.001 A
HETATM   34  C16 UNL     1     111.902  69.175  42.450  1.00  0.00     0.003 A
HETATM   35  C17 UNL     1     112.847  68.258  42.108  1.00  0.00     0.037 A
HETATM   36  C18 UNL     1     112.663  66.880  42.329  1.00  0.00     0.072 A
BRANCH  36  37
HETATM   37  O7  UNL     1     113.717  66.100  41.910  1.00  0.00    -0.360 OA
ATOM     38  H7  UNL     1     114.082  66.086  41.033  1.00  0.00     0.217 HD
ENDBRANCH  36  37
ENDBRANCH  30  31
ENDBRANCH  29  30
BRANCH  29  39
HETATM   39  C19 UNL     1     111.818  63.249  41.650  1.00  0.00     0.247 C
HETATM   40  O8  UNL     1     112.965  63.263  42.169  1.00  0.00    -0.271 OA
HETATM   41  N3  UNL     1     111.535  62.388  40.573  1.00  0.00    -0.300 N
HETATM   42  C20 UNL     1     112.503  61.506  40.016  1.00  0.00     0.188 C
ATOM     43  H3  UNL     1     110.596  62.395  40.176  1.00  0.00     0.171 HD
HETATM   44  N4  UNL     1     112.270  60.712  39.036  1.00  0.00    -0.373 N
HETATM   45  N5  UNL     1     113.803  61.515  40.580  1.00  0.00    -0.064 NA
ATOM     46  H42 UNL     1     111.334  60.705  38.631  1.00  0.00     0.158 HD
ATOM     47  H41 UNL     1     112.964  60.080  38.636  1.00  0.00     0.158 HD
ENDBRANCH  29  39
ENDBRANCH  27  29
ENDBRANCH   1  25
TORSDOF 14
ENDMDL