MODEL 2
REMARK VINA RESULT: -8.126444335      3.382      7.284
REMARK  10 active torsions:
REMARK  status: ('A' for Active; 'I' for Inactive)
REMARK    1  A    between atoms: C4_10  and  C5_11
REMARK       I    between atoms: C5_11  and  N3_13
REMARK    2  A    between atoms: N3_13  and  C6_15
REMARK    3  A    between atoms: C6_15  and  C7_16
REMARK       I    between atoms: C7_16  and  N4_18
REMARK    4  A    between atoms: N4_18  and  N5_20
REMARK       I    between atoms: N5_20  and  C8_22
REMARK    5  A    between atoms: C8_22  and  C9_24
REMARK    6  A    between atoms: C9_24  and  S1_25
REMARK    7  A    between atoms: S1_25  and  C10_26
REMARK    8  A    between atoms: C11_30  and  N8_31
REMARK    9  A    between atoms: N10_37  and  C13_39
REMARK   10  A    between atoms: C13_39  and  C14_40
ROOT
HETATM    1  N5  UNL     1     109.584  62.367  42.149  1.00  0.00    -0.267 N
ATOM      2  H5  UNL     1     109.291  61.672  41.464  1.00  0.00     0.190 HD
HETATM    3  C8  UNL     1     109.001  62.394  43.428  1.00  0.00     0.245 C
HETATM    4  O4  UNL     1     109.386  63.266  44.261  1.00  0.00    -0.271 OA
ENDROOT
BRANCH   3   5
HETATM    5  C9  UNL     1     107.958  61.443  43.837  1.00  0.00     0.186 C
BRANCH   5   6
HETATM    6  S1  UNL     1     108.733  59.822  44.088  1.00  0.00    -0.094 SA
BRANCH   6   7
HETATM    7  C10 UNL     1     108.359  58.744  42.680  1.00  0.00     0.129 A
HETATM    8  N6  UNL     1     107.124  58.397  42.353  1.00  0.00    -0.266 N
HETATM    9  N7  UNL     1     106.760  57.637  41.366  1.00  0.00    -0.079 N
ATOM     10  H6  UNL     1     106.377  58.767  42.941  1.00  0.00     0.189 HD
HETATM   11  C11 UNL     1     105.487  57.272  41.026  1.00  0.00     0.699 A
HETATM   12  C15 UNL     1     107.589  57.002  40.412  1.00  0.00     0.150 A
HETATM   13  N9  UNL     1     105.516  56.481  39.952  1.00  0.00    -0.173 N
HETATM   14  C12 UNL     1     106.772  56.275  39.526  1.00  0.00     0.149 A
ATOM     15  H9  UNL     1     104.688  56.082  39.509  1.00  0.00     0.186 HD
HETATM   16  N10 UNL     1     107.202  55.577  38.533  1.00  0.00    -0.364 N
ATOM     17  H10 UNL     1     108.200  55.515  38.329  1.00  0.00     0.161 HD
HETATM   18  C16 UNL     1     108.969  57.124  40.414  1.00  0.00     0.122 A
HETATM   19  N11 UNL     1     109.749  56.466  39.427  1.00  0.00    -0.092 NA
HETATM   20  S2  UNL     1     109.582  58.100  41.667  1.00  0.00    -0.047 SA
BRANCH  11  21
HETATM   21  N8  UNL     1     104.409  57.614  41.617  1.00  0.00    -0.233 N
ATOM     22  H82 UNL     1     103.942  58.507  41.461  1.00  0.00     0.174 HD
ATOM     23  H81 UNL     1     103.886  57.066  42.300  1.00  0.00     0.174 HD
ENDBRANCH  11  21
BRANCH  16  24
HETATM   24  C13 UNL     1     106.231  54.884  37.713  1.00  0.00     0.234 C
BRANCH  24  25
HETATM   25  C14 UNL     1     105.895  53.550  38.256  1.00  0.00     0.191 C
HETATM   26  O5  UNL     1     106.280  52.566  37.531  1.00  0.00    -0.647 OA
HETATM   27  O6  UNL     1     105.224  53.398  39.443  1.00  0.00    -0.647 OA
ENDBRANCH  24  25
ENDBRANCH  16  24
ENDBRANCH   6   7
ENDBRANCH   5   6
ENDBRANCH   3   5
BRANCH   1  28
HETATM   28  N4  UNL     1     110.570  63.303  41.827  1.00  0.00    -0.266 N
HETATM   29  C7  UNL     1     111.928  62.979  41.932  1.00  0.00     0.253 C
HETATM   30  O3  UNL     1     112.220  61.806  42.317  1.00  0.00    -0.270 OA
ATOM     31  H4  UNL     1     110.297  64.234  41.511  1.00  0.00     0.190 HD
BRANCH  29  32
HETATM   32  C6  UNL     1     113.064  63.858  41.640  1.00  0.00     0.227 C
BRANCH  32  33
HETATM   33  N3  UNL     1     112.974  65.186  42.201  1.00  0.00    -0.346 N
HETATM   34  C5  UNL     1     113.303  66.335  41.469  1.00  0.00     0.277 C
HETATM   35  O2  UNL     1     113.675  66.119  40.254  1.00  0.00    -0.265 OA
ATOM     36  H3  UNL     1     112.660  65.291  43.165  1.00  0.00     0.163 HD
BRANCH  34  37
HETATM   37  C4  UNL     1     113.266  67.696  41.936  1.00  0.00     0.169 A
HETATM   38  C2  UNL     1     114.242  68.627  42.121  1.00  0.00     0.048 A
HETATM   39  C1  UNL     1     115.674  68.485  41.880  1.00  0.00     0.071 C
HETATM   40  N1  UNL     1     113.635  69.747  42.582  1.00  0.00    -0.323 N
HETATM   41  C3  UNL     1     112.319  69.507  42.676  1.00  0.00     0.222 A
ATOM     42  H1  UNL     1     114.100  70.624  42.817  1.00  0.00     0.169 HD
HETATM   43  N2  UNL     1     111.423  70.371  43.088  1.00  0.00    -0.365 N
HETATM   44  O1  UNL     1     112.136  68.296  42.290  1.00  0.00    -0.272 OA
ATOM     45  H22 UNL     1     111.569  71.334  43.395  1.00  0.00     0.159 HD
ATOM     46  H21 UNL     1     110.422  70.189  43.159  1.00  0.00     0.159 HD
ENDBRANCH  34  37
ENDBRANCH  32  33
ENDBRANCH  29  32
ENDBRANCH   1  28
TORSDOF 10
ENDMDL