MODEL 5
REMARK VINA RESULT: -6.365852362      1.503      1.842
REMARK  17 active torsions:
REMARK  status: ('A' for Active; 'I' for Inactive)
REMARK    1  A    between atoms: S1_2  and  C2_3
REMARK    2  A    between atoms: C2_3  and  C3_4
REMARK    3  A    between atoms: C3_4  and  O1_8
REMARK    4  A    between atoms: O1_8  and  C4_9
REMARK    5  A    between atoms: C9_14  and  O2_15
REMARK    6  A    between atoms: O2_15  and  C10_16
REMARK    7  A    between atoms: C11_17  and  N2_18
REMARK    8  A    between atoms: C13_23  and  N3_24
REMARK    9  A    between atoms: C14_28  and  O3_29
REMARK   10  A    between atoms: O3_29  and  C15_30
REMARK   11  A    between atoms: C16_31  and  O4_32
REMARK   12  A    between atoms: C17_34  and  O5_35
REMARK   13  A    between atoms: C18_37  and  O6_38
REMARK   14  A    between atoms: C19_40  and  C20_41
REMARK   15  A    between atoms: C20_41  and  O7_42
REMARK   16  A    between atoms: C21_44  and  O8_45
REMARK   17  A    between atoms: C22_47  and  O9_48
ROOT
HETATM    1  C10 UNL     1     112.634  64.239  41.801  1.00  0.00     0.183 C
HETATM    2  C11 UNL     1     112.278  65.681  42.241  1.00  0.00     0.217 C
HETATM    3  C12 UNL     1     111.235  65.729  43.291  1.00  0.00     0.071 C
HETATM    4  C13 UNL     1     111.001  64.400  43.996  1.00  0.00     0.217 C
HETATM    5  C14 UNL     1     110.585  63.338  42.971  1.00  0.00     0.183 C
HETATM    6  C22 UNL     1     111.294  63.585  41.651  1.00  0.00     0.180 C
ENDROOT
BRANCH   5   7
HETATM    7  O3  UNL     1     110.782  62.065  43.367  1.00  0.00    -0.371 OA
BRANCH   7   8
HETATM    8  C15 UNL     1     109.714  61.288  43.727  1.00  0.00     0.182 C
HETATM    9  C16 UNL     1     108.373  61.800  43.374  1.00  0.00     0.180 C
HETATM   10  C17 UNL     1     107.274  60.895  43.886  1.00  0.00     0.178 C
HETATM   11  C18 UNL     1     107.625  59.459  43.986  1.00  0.00     0.158 C
HETATM   12  C19 UNL     1     108.749  59.025  43.114  1.00  0.00     0.072 C
HETATM   13  C21 UNL     1     109.902  59.949  43.040  1.00  0.00     0.158 C
BRANCH   9  14
HETATM   14  O4  UNL     1     108.246  62.053  41.992  1.00  0.00    -0.390 OA
ATOM     15  H4  UNL     1     107.599  61.490  41.582  1.00  0.00     0.210 HD
ENDBRANCH   9  14
BRANCH  10  16
HETATM   16  O5  UNL     1     106.100  61.064  43.112  1.00  0.00    -0.390 OA
ATOM     17  H5  UNL     1     105.594  60.260  43.103  1.00  0.00     0.210 HD
ENDBRANCH  10  16
BRANCH  11  18
HETATM   18  O6  UNL     1     107.881  59.051  45.307  1.00  0.00    -0.392 OA
ATOM     19  H6  UNL     1     107.479  58.216  45.519  1.00  0.00     0.210 HD
ENDBRANCH  11  18
BRANCH  12  20
HETATM   20  C20 UNL     1     108.239  58.582  41.738  1.00  0.00     0.174 C
BRANCH  20  21
HETATM   21  O7  UNL     1     107.035  59.180  41.430  1.00  0.00    -0.400 OA
ATOM     22  H7  UNL     1     106.316  58.561  41.485  1.00  0.00     0.209 HD
ENDBRANCH  20  21
ENDBRANCH  12  20
BRANCH  13  23
HETATM   23  O8  UNL     1     111.055  59.369  43.623  1.00  0.00    -0.392 OA
ATOM     24  H8  UNL     1     111.790  59.894  43.327  1.00  0.00     0.210 HD
ENDBRANCH  13  23
ENDBRANCH   7   8
ENDBRANCH   5   7
BRANCH   4  25
HETATM   25  N3  UNL     1     112.119  64.006  44.800  1.00  0.00    -0.072 N
ATOM     26  H33 UNL     1     111.887  63.201  45.383  1.00  0.00     0.274 HD
ATOM     27  H32 UNL     1     112.854  63.588  44.230  1.00  0.00     0.274 HD
ATOM     28  H31 UNL     1     112.483  64.775  45.363  1.00  0.00     0.274 HD
ENDBRANCH   4  25
BRANCH   6  29
HETATM   29  O9  UNL     1     111.274  62.431  40.919  1.00  0.00    -0.390 OA
ATOM     30  H9  UNL     1     111.373  61.626  41.414  1.00  0.00     0.210 HD
ENDBRANCH   6  29
BRANCH   1  31
HETATM   31  O2  UNL     1     113.287  64.383  40.616  1.00  0.00    -0.373 OA
BRANCH  31  32
HETATM   32  C9  UNL     1     114.223  63.489  40.240  1.00  0.00     0.151 C
HETATM   33  C4  UNL     1     114.107  63.214  38.744  1.00  0.00     0.159 C
HETATM   34  C5  UNL     1     114.246  64.495  37.954  1.00  0.00     0.035 C
HETATM   35  C6  UNL     1     115.663  65.043  38.161  1.00  0.00     0.003 C
HETATM   36  C7  UNL     1     115.824  65.309  39.640  1.00  0.00     0.003 C
HETATM   37  C8  UNL     1     115.656  64.000  40.386  1.00  0.00     0.034 C
BRANCH  33  38
HETATM   38  O1  UNL     1     113.003  62.497  38.358  1.00  0.00    -0.331 OA
BRANCH  38  39
HETATM   39  C3  UNL     1     113.113  61.296  37.688  1.00  0.00     0.121 C
HETATM   40  N1  UNL     1     112.584  61.174  36.530  1.00  0.00    -0.383 N
ATOM     41  H12 UNL     1     112.665  60.287  36.035  1.00  0.00     0.158 HD
ATOM     42  H11 UNL     1     112.091  61.971  36.128  1.00  0.00     0.158 HD
BRANCH  39  43
HETATM   43  C2  UNL     1     113.832  60.134  38.275  1.00  0.00     0.157 C
BRANCH  43  44
HETATM   44  S1  UNL     1     112.946  59.425  39.661  1.00  0.00    -0.166 SA
HETATM   45  C1  UNL     1     113.688  59.829  41.256  1.00  0.00     0.090 C
ENDBRANCH  43  44
ENDBRANCH  39  43
ENDBRANCH  38  39
ENDBRANCH  33  38
ENDBRANCH  31  32
ENDBRANCH   1  31
BRANCH   2  46
HETATM   46  N2  UNL     1     113.412  66.425  42.670  1.00  0.00    -0.072 N
ATOM     47  H23 UNL     1     113.813  66.958  41.898  1.00  0.00     0.274 HD
ATOM     48  H22 UNL     1     113.134  67.196  43.277  1.00  0.00     0.274 HD
ATOM     49  H21 UNL     1     114.120  65.845  43.118  1.00  0.00     0.274 HD
ENDBRANCH   2  46
TORSDOF 17
ENDMDL