MODEL 2
REMARK VINA RESULT: -8.400521959      3.039      9.554
REMARK  17 active torsions:
REMARK  status: ('A' for Active; 'I' for Inactive)
REMARK    1  A    between atoms: C2_2  and  C3_4
REMARK    2  A    between atoms: C3_4  and  O2_6
REMARK    3  A    between atoms: C3_4  and  C5_8
REMARK    4  A    between atoms: C5_8  and  C6_9
REMARK    5  A    between atoms: C5_8  and  O5_21
REMARK    6  A    between atoms: C7_10  and  C8_11
REMARK    7  A    between atoms: C11_14  and  O3_15
REMARK    8  A    between atoms: C12_17  and  O4_18
REMARK    9  A    between atoms: O5_21  and  C14_22
REMARK   10  A    between atoms: C15_23  and  N1_24
REMARK   11  A    between atoms: C17_29  and  N2_30
REMARK   12  A    between atoms: C18_34  and  O6_35
REMARK   13  A    between atoms: O6_35  and  C19_36
REMARK   14  A    between atoms: C20_37  and  N3_38
REMARK   15  A    between atoms: C22_43  and  N4_44
REMARK   16  A    between atoms: C24_49  and  N5_50
REMARK   17  A    between atoms: C25_54  and  O7_55
ROOT
HETATM    1  C14 UNL     1     111.096  61.764  43.339  1.00  0.00     0.184 C
HETATM    2  C15 UNL     1     109.947  62.380  44.059  1.00  0.00     0.217 C
HETATM    3  C16 UNL     1     109.513  61.374  45.098  1.00  0.00     0.071 C
HETATM    4  C17 UNL     1     109.485  59.952  44.624  1.00  0.00     0.217 C
HETATM    5  C18 UNL     1     109.494  59.803  43.107  1.00  0.00     0.183 C
HETATM    6  C25 UNL     1     110.726  60.514  42.588  1.00  0.00     0.180 C
ENDROOT
BRANCH   1   7
HETATM    7  O5  UNL     1     111.787  62.580  42.495  1.00  0.00    -0.368 OA
BRANCH   7   8
HETATM    8  C5  UNL     1     113.022  62.997  42.820  1.00  0.00     0.186 C
BRANCH   8   9
HETATM    9  C3  UNL     1     114.140  62.661  41.861  1.00  0.00     0.143 C
HETATM   10  C4  UNL     1     113.658  62.335  40.471  1.00  0.00     0.057 C
BRANCH   9  11
HETATM   11  C2  UNL     1     114.853  61.421  42.341  1.00  0.00     0.159 C
HETATM   12  C1  UNL     1     114.558  60.117  41.727  1.00  0.00     0.094 C
HETATM   13  O1  UNL     1     115.672  61.480  43.234  1.00  0.00    -0.295 OA
ENDBRANCH   9  11
BRANCH   9  14
HETATM   14  O2  UNL     1     115.097  63.636  41.760  1.00  0.00    -0.379 OA
ATOM     15  H2  UNL     1     115.276  63.924  42.648  1.00  0.00     0.211 HD
ENDBRANCH   9  14
ENDBRANCH   8   9
BRANCH   8  16
HETATM   16  C6  UNL     1     112.917  64.461  43.068  1.00  0.00     0.009 C
HETATM   17  C7  UNL     1     111.998  65.232  42.556  1.00  0.00     0.010 C
BRANCH  17  18
HETATM   18  C8  UNL     1     111.822  66.646  42.741  1.00  0.00    -0.034 A
HETATM   19  C9  UNL     1     110.620  67.142  43.191  1.00  0.00     0.014 A
HETATM   20  C10 UNL     1     110.430  68.517  43.375  1.00  0.00     0.040 A
HETATM   21  C11 UNL     1     111.438  69.397  43.109  1.00  0.00     0.098 A
HETATM   22  C12 UNL     1     112.653  68.913  42.655  1.00  0.00     0.099 A
HETATM   23  C13 UNL     1     112.824  67.557  42.479  1.00  0.00     0.050 A
BRANCH  21  24
HETATM   24  O3  UNL     1     111.241  70.764  43.295  1.00  0.00    -0.358 OA
ATOM     25  H3  UNL     1     111.457  71.376  42.601  1.00  0.00     0.217 HD
ENDBRANCH  21  24
BRANCH  22  26
HETATM   26  O4  UNL     1     113.658  69.834  42.393  1.00  0.00    -0.358 OA
ATOM     27  H4  UNL     1     114.263  69.640  41.686  1.00  0.00     0.217 HD
ENDBRANCH  22  26
ENDBRANCH  17  18
ENDBRANCH   8  16
ENDBRANCH   7   8
ENDBRANCH   1   7
BRANCH   2  28
HETATM   28  N1  UNL     1     108.831  62.797  43.298  1.00  0.00    -0.072 N
ATOM     29  H13 UNL     1     108.442  63.644  43.714  1.00  0.00     0.274 HD
ATOM     30  H12 UNL     1     109.154  63.153  42.399  1.00  0.00     0.274 HD
ATOM     31  H11 UNL     1     108.078  62.126  43.141  1.00  0.00     0.274 HD
ENDBRANCH   2  28
BRANCH   6  32
HETATM   32  O7  UNL     1     110.638  60.880  41.250  1.00  0.00    -0.390 OA
ATOM     33  H7  UNL     1     111.483  61.249  41.021  1.00  0.00     0.210 HD
ENDBRANCH   6  32
BRANCH   5  34
HETATM   34  O6  UNL     1     109.410  58.488  42.808  1.00  0.00    -0.372 OA
BRANCH  34  35
HETATM   35  C19 UNL     1     108.527  57.954  41.982  1.00  0.00     0.182 C
HETATM   36  C20 UNL     1     107.089  58.456  42.000  1.00  0.00     0.216 C
HETATM   37  C21 UNL     1     106.372  57.843  40.797  1.00  0.00     0.068 C
HETATM   38  C22 UNL     1     106.885  56.466  40.447  1.00  0.00     0.187 C
HETATM   39  C23 UNL     1     108.291  56.648  39.901  1.00  0.00     0.068 C
HETATM   40  C24 UNL     1     108.905  57.915  40.530  1.00  0.00     0.216 C
BRANCH  36  41
HETATM   41  N3  UNL     1     106.339  57.999  43.149  1.00  0.00    -0.072 N
ATOM     42  H33 UNL     1     106.068  57.022  43.040  1.00  0.00     0.274 HD
ATOM     43  H32 UNL     1     106.944  57.915  43.967  1.00  0.00     0.274 HD
ATOM     44  H31 UNL     1     105.527  58.580  43.356  1.00  0.00     0.274 HD
ENDBRANCH  36  41
BRANCH  38  45
HETATM   45  N4  UNL     1     106.063  55.959  39.371  1.00  0.00    -0.075 N
ATOM     46  H43 UNL     1     105.632  56.699  38.816  1.00  0.00     0.274 HD
ATOM     47  H42 UNL     1     106.607  55.531  38.621  1.00  0.00     0.274 HD
ATOM     48  H41 UNL     1     105.381  55.322  39.783  1.00  0.00     0.274 HD
ENDBRANCH  38  45
BRANCH  40  49
HETATM   49  N5  UNL     1     110.305  58.014  40.291  1.00  0.00    -0.072 N
ATOM     50  H53 UNL     1     110.485  58.526  39.427  1.00  0.00     0.274 HD
ATOM     51  H52 UNL     1     110.738  58.650  40.961  1.00  0.00     0.274 HD
ATOM     52  H51 UNL     1     110.791  57.117  40.283  1.00  0.00     0.274 HD
ENDBRANCH  40  49
ENDBRANCH  34  35
ENDBRANCH   5  34
BRANCH   4  53
HETATM   53  N2  UNL     1     110.558  59.158  45.195  1.00  0.00    -0.072 N
ATOM     54  H23 UNL     1     111.469  59.561  44.978  1.00  0.00     0.274 HD
ATOM     55  H22 UNL     1     110.578  59.243  46.211  1.00  0.00     0.274 HD
ATOM     56  H21 UNL     1     110.512  58.180  44.909  1.00  0.00     0.274 HD
ENDBRANCH   4  53
TORSDOF 17
ENDMDL