MODEL 2
REMARK VINA RESULT: -8.461870383      4.071      8.616
REMARK  13 active torsions:
REMARK  status: ('A' for Active; 'I' for Inactive)
REMARK    1  A    between atoms: C2_3  and  N2_4
REMARK    2  A    between atoms: C2_3  and  C11_28
REMARK    3  A    between atoms: N2_4  and  C3_6
REMARK    4  A    between atoms: C3_6  and  O1_7
REMARK    5  A    between atoms: C3_6  and  C4_9
REMARK    6  A    between atoms: C7_14  and  N4_15
REMARK    7  A    between atoms: N4_15  and  C8_17
REMARK    8  A    between atoms: C8_17  and  C9_18
REMARK    9  A    between atoms: C9_18  and  O2_19
REMARK   10  A    between atoms: C12_32  and  N9_33
REMARK       I    between atoms: N9_33  and  C13_35
REMARK   11  A    between atoms: C13_35  and  C14_37
REMARK   12  A    between atoms: C14_37  and  C15_38
REMARK   13  A    between atoms: C17_41  and  N10_42
ROOT
HETATM    1  N1  UNL     1     106.149  61.362  43.150  1.00  0.00    -0.195 NA
HETATM    2  C1  UNL     1     107.313  61.383  42.984  1.00  0.00     0.092 C
HETATM    3  C2  UNL     1     108.726  61.440  42.798  1.00  0.00     0.256 C
ENDROOT
BRANCH   3   4
HETATM    4  N2  UNL     1     109.276  60.301  42.194  1.00  0.00    -0.368 N
ATOM      5  H2  UNL     1     109.904  60.404  41.397  1.00  0.00     0.158 HD
BRANCH   4   6
HETATM    6  C3  UNL     1     108.970  59.014  42.679  1.00  0.00     0.285 C
BRANCH   6   7
HETATM    7  O1  UNL     1     110.224  58.327  42.768  1.00  0.00    -0.370 OA
ATOM      8  H1  UNL     1     110.190  57.647  42.106  1.00  0.00     0.212 HD
ENDBRANCH   6   7
BRANCH   6   9
HETATM    9  C4  UNL     1     108.214  58.141  41.716  1.00  0.00     0.147 A
HETATM   10  N3  UNL     1     108.678  57.596  40.576  1.00  0.00    -0.326 N
HETATM   11  C5  UNL     1     107.657  56.877  40.015  1.00  0.00     0.137 A
ATOM     12  H3  UNL     1     109.620  57.700  40.198  1.00  0.00     0.169 HD
HETATM   13  C6  UNL     1     107.576  56.128  38.865  1.00  0.00     0.098 A
HETATM   14  N6  UNL     1     106.578  56.984  40.807  1.00  0.00    -0.187 N
HETATM   15  C7  UNL     1     106.372  55.511  38.571  1.00  0.00     0.108 A
HETATM   16  N5  UNL     1     105.312  55.636  39.383  1.00  0.00    -0.293 N
HETATM   17  C10 UNL     1     105.404  56.367  40.496  1.00  0.00     0.348 A
ATOM     18  H5  UNL     1     104.434  55.173  39.150  1.00  0.00     0.172 HD
HETATM   19  O3  UNL     1     104.417  56.500  41.277  1.00  0.00    -0.245 OA
HETATM   20  N7  UNL     1     106.940  57.750  41.823  1.00  0.00    -0.273 N
ATOM     21  H7  UNL     1     106.324  58.009  42.593  1.00  0.00     0.189 HD
BRANCH  15  22
HETATM   22  N4  UNL     1     106.295  54.817  37.507  1.00  0.00    -0.374 N
ATOM     23  H4  UNL     1     105.423  54.843  36.980  1.00  0.00     0.161 HD
BRANCH  22  24
HETATM   24  C8  UNL     1     107.364  53.999  37.000  1.00  0.00     0.147 C
BRANCH  24  25
HETATM   25  C9  UNL     1     106.912  52.557  36.884  1.00  0.00     0.183 C
BRANCH  25  26
HETATM   26  O2  UNL     1     106.170  52.161  37.994  1.00  0.00    -0.399 OA
ATOM     27  H2  UNL     1     106.549  51.399  38.415  1.00  0.00     0.209 HD
ENDBRANCH  25  26
ENDBRANCH  24  25
ENDBRANCH  22  24
ENDBRANCH  15  22
ENDBRANCH   6   9
ENDBRANCH   4   6
ENDBRANCH   3   4
BRANCH   3  28
HETATM   28  C11 UNL     1     109.444  61.812  44.094  1.00  0.00     0.126 A
HETATM   29  N8  UNL     1     110.337  62.807  44.083  1.00  0.00    -0.310 N
HETATM   30  S1  UNL     1     110.874  62.870  45.672  1.00  0.00     0.024 SA
ATOM     31  H8  UNL     1     110.623  63.390  43.297  1.00  0.00     0.175 HD
HETATM   32  C12 UNL     1     109.919  61.599  46.294  1.00  0.00     0.169 A
HETATM   33  N12 UNL     1     109.235  61.198  45.226  1.00  0.00    -0.322 N
ATOM     34  H12 UNL     1     108.565  60.431  45.289  1.00  0.00     0.169 HD
BRANCH  32  35
HETATM   35  N9  UNL     1     109.861  61.118  47.514  1.00  0.00    -0.306 N
HETATM   36  C13 UNL     1     109.160  59.915  47.750  1.00  0.00     0.229 C
HETATM   37  O4  UNL     1     109.582  58.870  47.167  1.00  0.00    -0.273 OA
ATOM     38  H9  UNL     1     110.317  61.609  48.284  1.00  0.00     0.171 HD
BRANCH  36  39
HETATM   39  C14 UNL     1     107.978  59.831  48.633  1.00  0.00     0.160 C
BRANCH  39  40
HETATM   40  C15 UNL     1     107.661  58.364  48.904  1.00  0.00     0.026 A
HETATM   41  C16 UNL     1     108.041  57.790  50.090  1.00  0.00     0.078 A
HETATM   42  S2  UNL     1     107.483  56.190  49.906  1.00  0.00    -0.064 SA
HETATM   43  C17 UNL     1     106.804  56.341  48.349  1.00  0.00     0.142 A
HETATM   44  N11 UNL     1     107.037  57.614  48.039  1.00  0.00    -0.340 N
ATOM     45  H11 UNL     1     106.734  57.996  47.143  1.00  0.00     0.168 HD
BRANCH  43  46
HETATM   46  N10 UNL     1     106.193  55.438  47.608  1.00  0.00    -0.380 N
ATOM     47 2H10 UNL     1     106.622  54.777  46.961  1.00  0.00     0.158 HD
ATOM     48 1H10 UNL     1     105.200  55.222  47.535  1.00  0.00     0.158 HD
ENDBRANCH  43  46
ENDBRANCH  39  40
ENDBRANCH  36  39
ENDBRANCH  32  35
ENDBRANCH   3  28
TORSDOF 13
ENDMDL