MODEL 2
REMARK VINA RESULT: -10.292320821      4.189      6.331
REMARK  13 active torsions:
REMARK  status: ('A' for Active; 'I' for Inactive)
REMARK       I    between atoms: C2_2  and  N1_4
REMARK       I    between atoms: N1_4  and  C3_6
REMARK       I    between atoms: C3_6  and  N2_8
REMARK    1  A    between atoms: C5_13  and  C6_14
REMARK    2  A    between atoms: C6_14  and  N4_15
REMARK    3  A    between atoms: C6_14  and  C16_34
REMARK    4  A    between atoms: N4_15  and  C7_17
REMARK    5  A    between atoms: C7_17  and  O3_18
REMARK    6  A    between atoms: C7_17  and  C8_20
REMARK    7  A    between atoms: C8_20  and  O4_21
REMARK    8  A    between atoms: O4_21  and  C9_22
REMARK    9  A    between atoms: C9_22  and  C10_24
REMARK   10  A    between atoms: C13_27  and  O6_28
REMARK   11  A    between atoms: C14_30  and  O7_31
REMARK   12  A    between atoms: C16_34  and  C17_36
REMARK   13  A    between atoms: C17_36  and  C18_40
ROOT
HETATM    1  C18 UNL     1     107.338  61.261  43.168  1.00  0.00     0.280 C
HETATM    2  O9  UNL     1     107.298  62.120  44.078  1.00  0.00    -0.274 OA
HETATM    3  C19 UNL     1     106.439  61.322  42.061  1.00  0.00     0.145 C
HETATM    4  N6  UNL     1     105.702  61.393  41.154  1.00  0.00    -0.188 NA
ENDROOT
BRANCH   1   5
HETATM    5  C17 UNL     1     108.307  60.199  43.242  1.00  0.00     0.136 C
HETATM    6  N5  UNL     1     108.069  59.156  43.975  1.00  0.00    -0.392 N
ATOM      7  H52 UNL     1     108.755  58.403  44.028  1.00  0.00     0.156 HD
ATOM      8  H51 UNL     1     107.201  59.072  44.504  1.00  0.00     0.156 HD
BRANCH   5   9
HETATM    9  C16 UNL     1     109.564  60.319  42.478  1.00  0.00     0.208 C
HETATM   10  O8  UNL     1     109.846  59.386  41.662  1.00  0.00    -0.288 OA
BRANCH   9  11
HETATM   11  C6  UNL     1     110.498  61.440  42.608  1.00  0.00     0.207 C
BRANCH  11  12
HETATM   12  C5  UNL     1     111.557  61.410  41.557  1.00  0.00     0.062 A
HETATM   13  N3  UNL     1     111.383  61.788  40.292  1.00  0.00    -0.192 N
HETATM   14  C4  UNL     1     112.397  61.754  39.376  1.00  0.00     0.689 A
ATOM     15  H3  UNL     1     110.464  62.114  39.997  1.00  0.00     0.184 HD
HETATM   16  N2  UNL     1     112.126  62.145  38.176  1.00  0.00    -0.141 N
HETATM   17  N7  UNL     1     113.580  61.328  39.778  1.00  0.00    -0.156 N
HETATM   18  C3  UNL     1     113.083  62.160  37.135  1.00  0.00     0.341 C
ATOM     19  H2  UNL     1     111.178  62.459  37.969  1.00  0.00     0.189 HD
HETATM   20  N1  UNL     1     113.603  63.388  36.675  1.00  0.00    -0.279 N
HETATM   21  O2  UNL     1     113.474  61.095  36.617  1.00  0.00    -0.246 OA
HETATM   22  C2  UNL     1     114.562  63.492  35.635  1.00  0.00     0.221 C
ATOM     23  H1  UNL     1     113.271  64.247  37.113  1.00  0.00     0.173 HD
HETATM   24  C1  UNL     1     115.120  62.315  34.919  1.00  0.00     0.117 C
HETATM   25  O1  UNL     1     114.978  64.637  35.284  1.00  0.00    -0.274 OA
HETATM   26  C21 UNL     1     113.870  60.921  41.029  1.00  0.00     0.261 A
ATOM     27  H7  UNL     1     114.332  61.305  39.089  1.00  0.00     0.187 HD
HETATM   28  C20 UNL     1     112.832  60.964  41.937  1.00  0.00     0.103 A
HETATM   29  O10 UNL     1     115.012  60.524  41.356  1.00  0.00    -0.268 OA
ENDBRANCH  11  12
BRANCH  11  30
HETATM   30  N4  UNL     1     111.202  61.408  43.858  1.00  0.00    -0.379 N
ATOM     31  H4  UNL     1     111.820  60.632  44.097  1.00  0.00     0.157 HD
BRANCH  30  32
HETATM   32  C7  UNL     1     111.008  62.486  44.745  1.00  0.00     0.238 C
BRANCH  32  33
HETATM   33  O3  UNL     1     112.181  62.564  45.541  1.00  0.00    -0.375 OA
ATOM     34  H3  UNL     1     111.891  62.746  46.427  1.00  0.00     0.212 HD
ENDBRANCH  32  33
BRANCH  32  35
HETATM   35  C8  UNL     1     110.813  63.824  44.061  1.00  0.00     0.232 C
BRANCH  35  36
HETATM   36  O4  UNL     1     112.019  64.350  43.576  1.00  0.00    -0.313 OA
BRANCH  36  37
HETATM   37  C9  UNL     1     112.170  65.186  42.513  1.00  0.00     0.293 C
HETATM   38  O5  UNL     1     112.513  64.707  41.417  1.00  0.00    -0.259 OA
BRANCH  37  39
HETATM   39  C10 UNL     1     111.919  66.619  42.714  1.00  0.00     0.042 A
HETATM   40  C11 UNL     1     110.706  67.080  43.180  1.00  0.00     0.020 A
HETATM   41  C12 UNL     1     110.448  68.422  43.373  1.00  0.00     0.040 A
HETATM   42  C13 UNL     1     111.413  69.372  43.103  1.00  0.00     0.098 A
HETATM   43  C14 UNL     1     112.627  68.912  42.637  1.00  0.00     0.099 A
HETATM   44  C15 UNL     1     112.885  67.564  42.443  1.00  0.00     0.057 A
BRANCH  42  45
HETATM   45  O6  UNL     1     111.167  70.729  43.293  1.00  0.00    -0.358 OA
ATOM     46  H6  UNL     1     110.534  71.196  42.760  1.00  0.00     0.217 HD
ENDBRANCH  42  45
BRANCH  43  47
HETATM   47  O7  UNL     1     113.615  69.834  42.356  1.00  0.00    -0.358 OA
ATOM     48  H7  UNL     1     113.969  69.862  41.476  1.00  0.00     0.217 HD
ENDBRANCH  43  47
ENDBRANCH  37  39
ENDBRANCH  36  37
ENDBRANCH  35  36
ENDBRANCH  32  35
ENDBRANCH  30  32
ENDBRANCH  11  30
ENDBRANCH   9  11
ENDBRANCH   5   9
ENDBRANCH   1   5
TORSDOF 13
ENDMDL