MODEL 5
REMARK VINA RESULT: -9.901866975      3.870      5.189
REMARK  14 active torsions:
REMARK  status: ('A' for Active; 'I' for Inactive)
REMARK    1  A    between atoms: N1_2  and  N2_3
REMARK    2  A    between atoms: N1_2  and  S1_6
REMARK    3  A    between atoms: S1_6  and  N3_9
REMARK    4  A    between atoms: N3_9  and  N4_11
REMARK    5  A    between atoms: N4_11  and  C2_13
REMARK    6  A    between atoms: C6_17  and  C7_18
REMARK    7  A    between atoms: C7_18  and  N8_26
REMARK    8  A    between atoms: N5_19  and  N6_21
REMARK    9  A    between atoms: N6_21  and  C8_23
REMARK   10  A    between atoms: N8_26  and  N9_28
REMARK       I    between atoms: N9_28  and  C9_30
REMARK   11  A    between atoms: C9_30  and  C10_32
REMARK   12  A    between atoms: C12_34  and  O4_35
REMARK   13  A    between atoms: C13_37  and  O5_38
REMARK   14  A    between atoms: C14_40  and  O6_41
ROOT
HETATM    1  C7  UNL     1     111.364  62.040  43.213  1.00  0.00     0.150 C
HETATM    2  N5  UNL     1     111.418  62.268  44.448  1.00  0.00    -0.282 N
ATOM      3  H5  UNL     1     111.858  63.153  44.701  1.00  0.00     0.188 HD
ENDROOT
BRANCH   1   4
HETATM    4  C6  UNL     1     110.803  60.874  42.562  1.00  0.00     0.079 C
HETATM    5  C5  UNL     1     111.614  59.805  42.263  1.00  0.00     0.021 C
HETATM    6  C4  UNL     1     111.213  58.541  41.909  1.00  0.00     0.005 C
HETATM    7  C3  UNL     1     109.903  58.073  41.745  1.00  0.00     0.050 C
HETATM    8  C2  UNL     1     108.718  58.661  42.179  1.00  0.00     0.123 C
HETATM    9  N10 UNL     1     108.510  59.998  42.294  1.00  0.00    -0.308 N
HETATM   10  C16 UNL     1     109.428  61.009  42.321  1.00  0.00     0.261 C
ATOM     11  H10 UNL     1     107.535  60.287  42.371  1.00  0.00     0.170 HD
HETATM   12  O7  UNL     1     108.986  62.167  42.110  1.00  0.00    -0.267 OA
BRANCH   8  13
HETATM   13  N4  UNL     1     107.659  57.783  42.521  1.00  0.00    -0.275 N
ATOM     14  H4  UNL     1     107.858  56.832  42.833  1.00  0.00     0.189 HD
BRANCH  13  15
HETATM   15  N3  UNL     1     106.355  58.228  42.427  1.00  0.00    -0.211 N
ATOM     16  H3  UNL     1     105.950  58.879  43.100  1.00  0.00     0.201 HD
BRANCH  15  17
HETATM   17  S1  UNL     1     105.470  57.609  41.104  1.00  0.00     0.332 S
HETATM   18  O1  UNL     1     105.020  58.735  40.219  1.00  0.00    -0.185 OA
HETATM   19  O2  UNL     1     104.243  56.910  41.677  1.00  0.00    -0.185 OA
BRANCH  17  20
HETATM   20  N1  UNL     1     106.328  56.486  40.141  1.00  0.00    -0.113 NA
HETATM   21  C1  UNL     1     105.488  55.671  39.298  1.00  0.00     0.157 C
BRANCH  20  22
HETATM   22  N2  UNL     1     107.405  57.015  39.466  1.00  0.00    -0.349 NA
ATOM     23  H22 UNL     1     107.370  56.897  38.453  1.00  0.00     0.172 HD
ATOM     24  H21 UNL     1     108.299  56.756  39.884  1.00  0.00     0.172 HD
ENDBRANCH  20  22
ENDBRANCH  17  20
ENDBRANCH  15  17
ENDBRANCH  13  15
ENDBRANCH   8  13
ENDBRANCH   1   4
BRANCH   1  25
HETATM   25  N8  UNL     1     111.927  63.059  42.347  1.00  0.00    -0.281 N
ATOM     26  H8  UNL     1     112.478  62.834  41.519  1.00  0.00     0.188 HD
BRANCH  25  27
HETATM   27  N9  UNL     1     111.655  64.385  42.737  1.00  0.00    -0.264 N
HETATM   28  C9  UNL     1     112.361  65.436  42.107  1.00  0.00     0.270 C
HETATM   29  O3  UNL     1     113.220  65.184  41.211  1.00  0.00    -0.266 OA
ATOM     30  H9  UNL     1     110.963  64.583  43.460  1.00  0.00     0.190 HD
BRANCH  28  31
HETATM   31  C10 UNL     1     112.125  66.828  42.466  1.00  0.00     0.039 A
HETATM   32  C11 UNL     1     110.876  67.298  42.782  1.00  0.00     0.056 A
HETATM   33  C12 UNL     1     110.682  68.629  43.116  1.00  0.00     0.102 A
HETATM   34  C13 UNL     1     111.727  69.516  43.141  1.00  0.00     0.132 A
HETATM   35  C14 UNL     1     112.980  69.016  42.818  1.00  0.00     0.102 A
HETATM   36  C15 UNL     1     113.197  67.715  42.487  1.00  0.00     0.056 A
BRANCH  33  37
HETATM   37  O4  UNL     1     109.426  69.124  43.439  1.00  0.00    -0.358 OA
ATOM     38  H4  UNL     1     108.997  69.783  42.906  1.00  0.00     0.217 HD
ENDBRANCH  33  37
BRANCH  34  39
HETATM   39  O5  UNL     1     111.565  70.862  43.473  1.00  0.00    -0.356 OA
ATOM     40  H5  UNL     1     112.297  71.427  43.696  1.00  0.00     0.218 HD
ENDBRANCH  34  39
BRANCH  35  41
HETATM   41  O6  UNL     1     114.034  69.930  42.848  1.00  0.00    -0.358 OA
ATOM     42  H6  UNL     1     114.910  69.562  42.809  1.00  0.00     0.217 HD
ENDBRANCH  35  41
ENDBRANCH  28  31
ENDBRANCH  25  27
ENDBRANCH   1  25
BRANCH   2  43
HETATM   43  N6  UNL     1     110.981  61.519  45.510  1.00  0.00    -0.277 N
ATOM     44  H6  UNL     1     111.529  60.729  45.850  1.00  0.00     0.189 HD
BRANCH  43  45
HETATM   45  C8  UNL     1     109.752  61.865  46.127  1.00  0.00     0.199 C
HETATM   46  N7  UNL     1     108.630  62.170  45.323  1.00  0.00    -0.068 NA
HETATM   47  S2  UNL     1     109.628  61.914  47.740  1.00  0.00    -0.043 SA
ENDBRANCH  43  45
ENDBRANCH   2  43
TORSDOF 14
ENDMDL