MODEL 5
REMARK VINA RESULT: -7.810633627      2.544      7.142
REMARK  15 active torsions:
REMARK  status: ('A' for Active; 'I' for Inactive)
REMARK    1  A    between atoms: C2_2  and  C3_7
REMARK    2  A    between atoms: N1_3  and  O1_5
REMARK       I    between atoms: C3_7  and  N2_9
REMARK    3  A    between atoms: N2_9  and  C4_11
REMARK    4  A    between atoms: C7_14  and  C8_15
REMARK    5  A    between atoms: C8_15  and  O3_16
REMARK    6  A    between atoms: C9_18  and  O4_19
REMARK    7  A    between atoms: C11_22  and  O5_23
REMARK    8  A    between atoms: O5_23  and  C12_24
REMARK    9  A    between atoms: C13_26  and  O7_27
REMARK   10  A    between atoms: O7_27  and  C14_28
REMARK   11  A    between atoms: C15_29  and  N3_30
REMARK   12  A    between atoms: C17_35  and  N4_36
REMARK   13  A    between atoms: C19_41  and  N5_42
REMARK   14  A    between atoms: C20_46  and  N6_47
REMARK   15  A    between atoms: C22_52  and  N7_53
ROOT
HETATM    1  C12 UNL     1     112.010  62.711  40.456  1.00  0.00     0.293 C
HETATM    2  O6  UNL     1     111.469  61.579  41.023  1.00  0.00    -0.327 OA
HETATM    3  C13 UNL     1     111.753  60.356  40.543  1.00  0.00     0.293 C
HETATM    4  C20 UNL     1     113.149  60.045  40.169  1.00  0.00     0.240 C
HETATM    5  C21 UNL     1     113.964  61.254  39.783  1.00  0.00     0.075 C
HETATM    6  C22 UNL     1     113.008  62.352  39.431  1.00  0.00     0.240 C
ENDROOT
BRANCH   1   7
HETATM    7  O5  UNL     1     112.357  63.522  41.457  1.00  0.00    -0.352 OA
BRANCH   7   8
HETATM    8  C11 UNL     1     111.498  64.111  42.318  1.00  0.00     0.150 C
HETATM    9  C4  UNL     1     112.090  64.896  43.438  1.00  0.00     0.114 C
HETATM   10  C5  UNL     1     113.004  64.035  44.315  1.00  0.00     0.028 C
HETATM   11  C6  UNL     1     112.209  62.938  44.971  1.00  0.00     0.011 C
HETATM   12  C7  UNL     1     110.799  63.368  45.300  1.00  0.00     0.038 C
HETATM   13  C9  UNL     1     109.895  63.560  44.137  1.00  0.00     0.126 C
HETATM   14  C10 UNL     1     110.413  63.210  42.803  1.00  0.00     0.066 C
BRANCH   9  15
HETATM   15  N2  UNL     1     112.738  66.121  43.011  1.00  0.00    -0.349 N
HETATM   16  C3  UNL     1     111.929  67.258  42.757  1.00  0.00     0.265 C
HETATM   17  O2  UNL     1     110.660  67.185  42.911  1.00  0.00    -0.266 OA
ATOM     18  H2  UNL     1     113.750  66.164  42.895  1.00  0.00     0.163 HD
BRANCH  16  19
HETATM   19  C2  UNL     1     112.435  68.534  42.325  1.00  0.00     0.095 C
HETATM   20  C1  UNL     1     113.434  68.628  41.236  1.00  0.00     0.076 C
HETATM   21  N1  UNL     1     112.046  69.665  42.856  1.00  0.00    -0.268 N
ATOM     22  H1  UNL     1     112.429  70.548  42.517  1.00  0.00     0.194 HD
BRANCH  21  23
HETATM   23  O1  UNL     1     111.120  69.662  43.871  1.00  0.00    -0.290 OA
ATOM     24  H1  UNL     1     110.433  70.318  43.887  1.00  0.00     0.244 HD
ENDBRANCH  21  23
ENDBRANCH  16  19
ENDBRANCH   9  15
BRANCH  12  25
HETATM   25  C8  UNL     1     110.229  62.223  46.137  1.00  0.00     0.171 C
BRANCH  25  26
HETATM   26  O3  UNL     1     110.786  61.039  45.677  1.00  0.00    -0.400 OA
ATOM     27  H3  UNL     1     110.111  60.559  45.212  1.00  0.00     0.209 HD
ENDBRANCH  25  26
ENDBRANCH  12  25
BRANCH  13  28
HETATM   28  O4  UNL     1     108.694  62.805  44.309  1.00  0.00    -0.395 OA
ATOM     29  H4  UNL     1     108.257  62.682  43.475  1.00  0.00     0.210 HD
ENDBRANCH  13  28
ENDBRANCH   7   8
ENDBRANCH   1   7
BRANCH   6  30
HETATM   30  N7  UNL     1     112.301  61.981  38.217  1.00  0.00    -0.070 N
ATOM     31  H73 UNL     1     112.832  62.196  37.373  1.00  0.00     0.274 HD
ATOM     32  H72 UNL     1     112.243  60.970  38.090  1.00  0.00     0.274 HD
ATOM     33  H71 UNL     1     111.385  62.429  38.229  1.00  0.00     0.274 HD
ENDBRANCH   6  30
BRANCH   3  34
HETATM   34  O7  UNL     1     111.379  59.430  41.525  1.00  0.00    -0.350 OA
BRANCH  34  35
HETATM   35  C14 UNL     1     110.044  59.094  41.538  1.00  0.00     0.185 C
HETATM   36  C15 UNL     1     109.283  59.689  42.683  1.00  0.00     0.216 C
HETATM   37  C16 UNL     1     107.826  59.810  42.286  1.00  0.00     0.068 C
HETATM   38  C17 UNL     1     107.419  58.626  41.467  1.00  0.00     0.187 C
HETATM   39  C18 UNL     1     108.284  57.416  41.742  1.00  0.00     0.068 C
HETATM   40  C19 UNL     1     109.726  57.646  41.414  1.00  0.00     0.216 C
BRANCH  36  41
HETATM   41  N3  UNL     1     109.319  58.894  43.895  1.00  0.00    -0.072 N
ATOM     42  H33 UNL     1     108.713  58.079  43.805  1.00  0.00     0.274 HD
ATOM     43  H32 UNL     1     110.222  58.430  43.990  1.00  0.00     0.274 HD
ATOM     44  H31 UNL     1     109.094  59.415  44.742  1.00  0.00     0.274 HD
ENDBRANCH  36  41
BRANCH  38  45
HETATM   45  N4  UNL     1     106.063  58.266  41.835  1.00  0.00    -0.075 N
ATOM     46  H43 UNL     1     105.740  57.419  41.368  1.00  0.00     0.274 HD
ATOM     47  H42 UNL     1     105.992  57.929  42.795  1.00  0.00     0.274 HD
ATOM     48  H41 UNL     1     105.461  59.069  41.655  1.00  0.00     0.274 HD
ENDBRANCH  38  45
BRANCH  40  49
HETATM   49  N5  UNL     1     109.998  57.290  40.005  1.00  0.00    -0.072 N
ATOM     50  H53 UNL     1     109.916  56.291  39.814  1.00  0.00     0.274 HD
ATOM     51  H52 UNL     1     109.271  57.599  39.360  1.00  0.00     0.274 HD
ATOM     52  H51 UNL     1     110.919  57.671  39.792  1.00  0.00     0.274 HD
ENDBRANCH  40  49
ENDBRANCH  34  35
ENDBRANCH   3  34
BRANCH   4  53
HETATM   53  N6  UNL     1     113.847  59.261  41.205  1.00  0.00    -0.070 N
ATOM     54  H63 UNL     1     113.188  58.882  41.885  1.00  0.00     0.274 HD
ATOM     55  H62 UNL     1     114.208  58.388  40.823  1.00  0.00     0.274 HD
ATOM     56  H61 UNL     1     114.585  59.795  41.665  1.00  0.00     0.274 HD
ENDBRANCH   4  53
TORSDOF 15
ENDMDL