MODEL 3
REMARK VINA RESULT: -7.738279900      1.596      3.103
REMARK  12 active torsions:
REMARK  status: ('A' for Active; 'I' for Inactive)
REMARK    1  A    between atoms: C3_5  and  N2_6
REMARK    2  A    between atoms: C4_7  and  O1_8
REMARK       I    between atoms: N3_11  and  C6_12
REMARK    3  A    between atoms: C6_12  and  O3_14
REMARK    4  A    between atoms: O3_14  and  C7_15
REMARK    5  A    between atoms: C7_15  and  O4_16
REMARK    6  A    between atoms: C7_15  and  C8_18
REMARK    7  A    between atoms: C8_18  and  O5_19
REMARK    8  A    between atoms: C10_25  and  N5_26
REMARK       I    between atoms: N6_28  and  C11_30
REMARK       I    between atoms: C11_30  and  N10_39
REMARK    9  A    between atoms: N7_31  and  C12_33
REMARK   10  A    between atoms: C12_33  and  C13_34
REMARK   11  A    between atoms: C13_34  and  N8_35
REMARK   12  A    between atoms: N8_35  and  N9_36
ROOT
HETATM    1  N5  UNL     1     -12.115  97.016  17.426  1.00  0.00    -0.269 N
ATOM      2  H5  UNL     1     -13.055  97.388  17.289  1.00  0.00     0.189 HD
HETATM    3  N6  UNL     1     -11.307  97.032  16.444  1.00  0.00    -0.130 N
ATOM      4  H6  UNL     1     -10.367  96.660  16.577  1.00  0.00     0.205 HD
HETATM    5  C11 UNL     1     -11.663  97.547  15.172  1.00  0.00     0.701 C
HETATM    6  N7  UNL     1     -11.008  97.216  14.136  1.00  0.00    -0.223 N
ATOM      7  H7  UNL     1     -11.301  97.612  13.242  1.00  0.00     0.177 HD
HETATM    8  N10 UNL     1     -12.761  98.450  14.995  1.00  0.00    -0.125 N
ATOM      9  H10 UNL     1     -13.660  98.089  14.678  1.00  0.00     0.197 HD
HETATM   10  C14 UNL     1     -12.622  99.819  15.250  1.00  0.00     0.196 C
HETATM   11  N11 UNL     1     -12.505 100.966  15.451  1.00  0.00    -0.171 NA
ENDROOT
BRANCH   6  12
HETATM   12  C12 UNL     1      -9.875  96.316  14.136  1.00  0.00     0.156 C
BRANCH  12  13
HETATM   13  C13 UNL     1      -9.714  95.592  12.834  1.00  0.00     0.154 C
BRANCH  13  14
HETATM   14  N8  UNL     1      -8.614  94.643  12.886  1.00  0.00    -0.147 NA
BRANCH  14  15
HETATM   15  N9  UNL     1      -9.155  93.348  12.755  1.00  0.00    -0.348 N
ATOM     16  H92 UNL     1     -10.038  93.035  13.157  1.00  0.00     0.172 HD
ATOM     17  H91 UNL     1      -8.508  92.796  12.192  1.00  0.00     0.172 HD
ENDBRANCH  14  15
ENDBRANCH  13  14
ENDBRANCH  12  13
ENDBRANCH   6  12
BRANCH   1  18
HETATM   18  C10 UNL     1     -11.769  96.507  18.695  1.00  0.00     0.159 A
HETATM   19  C2  UNL     1     -10.576  96.731  19.347  1.00  0.00     0.068 A
HETATM   20  C1  UNL     1      -9.427  97.553  18.838  1.00  0.00     0.073 C
HETATM   21  N1  UNL     1     -10.663  96.068  20.513  1.00  0.00    -0.191 N
HETATM   22  C3  UNL     1     -11.848  95.441  20.624  1.00  0.00     0.697 A
ATOM     23  H1  UNL     1      -9.929  96.044  21.220  1.00  0.00     0.184 HD
HETATM   24  N4  UNL     1     -12.521  95.723  19.489  1.00  0.00    -0.172 N
ATOM     25  H4  UNL     1     -13.460  95.392  19.266  1.00  0.00     0.186 HD
BRANCH  22  26
HETATM   26  N2  UNL     1     -12.302  94.631  21.735  1.00  0.00    -0.072 N
HETATM   27  C4  UNL     1     -12.841  93.412  21.617  1.00  0.00     0.184 A
HETATM   28  C5  UNL     1     -13.144  92.963  22.876  1.00  0.00     0.164 A
HETATM   29  N3  UNL     1     -12.786  93.913  23.750  1.00  0.00    -0.215 N
HETATM   30  C6  UNL     1     -12.938  93.826  25.154  1.00  0.00     0.377 C
HETATM   31  C9  UNL     1     -12.270  94.931  23.025  1.00  0.00     0.358 A
HETATM   32  O2  UNL     1     -13.443  92.792  25.643  1.00  0.00    -0.237 OA
HETATM   33  O6  UNL     1     -11.821  96.012  23.495  1.00  0.00    -0.245 OA
BRANCH  27  34
HETATM   34  O1  UNL     1     -13.043  92.751  20.411  1.00  0.00    -0.344 OA
ATOM     35  H1  UNL     1     -13.779  92.901  19.830  1.00  0.00     0.219 HD
ENDBRANCH  27  34
BRANCH  30  36
HETATM   36  O3  UNL     1     -12.553  94.833  26.021  1.00  0.00    -0.270 OA
BRANCH  36  37
HETATM   37  C7  UNL     1     -13.516  95.686  26.606  1.00  0.00     0.291 C
BRANCH  37  38
HETATM   38  O4  UNL     1     -14.821  95.303  26.313  1.00  0.00    -0.369 OA
ATOM     39  H4  UNL     1     -15.440  96.020  26.388  1.00  0.00     0.212 HD
ENDBRANCH  37  38
BRANCH  37  40
HETATM   40  C8  UNL     1     -13.318  95.705  28.124  1.00  0.00     0.225 C
BRANCH  40  41
HETATM   41  O5  UNL     1     -12.012  95.327  28.416  1.00  0.00    -0.396 OA
ATOM     42  H5  UNL     1     -11.500  96.104  28.609  1.00  0.00     0.209 HD
ENDBRANCH  40  41
ENDBRANCH  37  40
ENDBRANCH  36  37
ENDBRANCH  30  36
ENDBRANCH  22  26
ENDBRANCH   1  18
TORSDOF 12
ENDMDL