MODEL 1
REMARK VINA RESULT: -8.126761033      0.000      0.000
REMARK  12 active torsions:
REMARK  status: ('A' for Active; 'I' for Inactive)
REMARK    1  A    between atoms: C3_5  and  N2_6
REMARK    2  A    between atoms: C4_10  and  N3_11
REMARK       I    between atoms: N3_11  and  C5_13
REMARK    3  A    between atoms: C5_13  and  C6_15
REMARK    4  A    between atoms: C6_15  and  N4_16
REMARK    5  A    between atoms: C8_18  and  N5_19
REMARK    6  A    between atoms: C9_24  and  N8_25
REMARK    7  A    between atoms: C10_30  and  N10_31
REMARK    8  A    between atoms: N10_31  and  O2_32
REMARK    9  A    between atoms: N11_34  and  O3_36
REMARK   10  A    between atoms: O3_36  and  C11_37
REMARK   11  A    between atoms: C11_37  and  N13_41
REMARK   12  A    between atoms: N13_41  and  N14_43
ROOT
HETATM    1  N4  UNL     1     -10.977  97.757  18.574  1.00  0.00    -0.290 N
HETATM    2  C7  UNL     1     -10.389  96.963  17.653  1.00  0.00     0.148 A
HETATM    3  C8  UNL     1     -10.905  97.236  16.403  1.00  0.00     0.143 A
HETATM    4  C10 UNL     1     -11.834  98.235  16.605  1.00  0.00     0.200 A
HETATM    5  N15 UNL     1     -11.851  98.522  17.923  1.00  0.00    -0.278 N
ATOM      6  H15 UNL     1     -12.447  99.226  18.358  1.00  0.00     0.189 HD
ENDROOT
BRANCH   1   7
HETATM    7  C6  UNL     1     -10.758  97.825  19.995  1.00  0.00     0.251 C
BRANCH   7   8
HETATM    8  C5  UNL     1     -11.730  96.849  20.685  1.00  0.00     0.242 C
HETATM    9  N3  UNL     1     -11.363  96.255  21.856  1.00  0.00    -0.318 N
ATOM     10  H3  UNL     1     -10.437  96.538  22.175  1.00  0.00     0.169 HD
HETATM   11  O1  UNL     1     -12.781  96.719  20.056  1.00  0.00    -0.271 OA
BRANCH   9  12
HETATM   12  C4  UNL     1     -11.986  95.335  22.721  1.00  0.00     0.102 A
HETATM   13  C2  UNL     1     -12.649  94.161  22.664  1.00  0.00     0.041 A
HETATM   14  C1  UNL     1     -12.817  93.416  21.341  1.00  0.00     0.071 C
HETATM   15  N1  UNL     1     -13.128  93.637  23.768  1.00  0.00    -0.338 N
HETATM   16  C3  UNL     1     -12.954  94.265  24.919  1.00  0.00     0.144 A
ATOM     17  H1  UNL     1     -13.632  92.751  23.738  1.00  0.00     0.168 HD
HETATM   18  S1  UNL     1     -12.093  95.640  24.479  1.00  0.00    -0.035 SA
BRANCH  16  19
HETATM   19  N2  UNL     1     -13.373  93.867  26.105  1.00  0.00    -0.380 N
ATOM     20  H22 UNL     1     -13.845  93.006  26.382  1.00  0.00     0.158 HD
ATOM     21  H21 UNL     1     -13.293  94.379  26.983  1.00  0.00     0.158 HD
ENDBRANCH  16  19
ENDBRANCH   9  12
ENDBRANCH   7   8
ENDBRANCH   1   7
BRANCH   3  22
HETATM   22  N5  UNL     1     -10.540  96.605  15.151  1.00  0.00    -0.162 N
HETATM   23  N6  UNL     1     -10.595  95.312  14.911  1.00  0.00    -0.206 N
HETATM   24  N7  UNL     1     -10.196  95.089  13.688  1.00  0.00    -0.115 N
ATOM     25  H6  UNL     1     -10.900  94.599  15.574  1.00  0.00     0.211 HD
HETATM   26  C9  UNL     1      -9.880  96.257  13.132  1.00  0.00     0.707 A
ATOM     27  H7  UNL     1     -10.137  94.177  13.236  1.00  0.00     0.207 HD
HETATM   28  N9  UNL     1     -10.103  97.189  14.066  1.00  0.00    -0.108 N
ATOM     29  H9  UNL     1      -9.956  98.191  13.950  1.00  0.00     0.208 HD
BRANCH  26  30
HETATM   30  N8  UNL     1      -9.449  96.458  11.947  1.00  0.00    -0.232 N
ATOM     31  H82 UNL     1      -8.690  95.957  11.485  1.00  0.00     0.174 HD
ATOM     32  H81 UNL     1      -9.789  97.145  11.273  1.00  0.00     0.174 HD
ENDBRANCH  26  30
ENDBRANCH   3  22
BRANCH   4  33
HETATM   33  N10 UNL     1     -12.619  98.834  15.594  1.00  0.00    -0.122 N
HETATM   34  N11 UNL     1     -12.939 100.062  15.670  1.00  0.00    -0.170 N
ATOM     35  H11 UNL     1     -12.623 100.612  16.469  1.00  0.00     0.219 HD
BRANCH  33  36
HETATM   36  O2  UNL     1     -13.051  98.111  14.514  1.00  0.00    -0.265 OA
ATOM     37  H2  UNL     1     -13.819  98.378  14.022  1.00  0.00     0.247 HD
ENDBRANCH  33  36
BRANCH  34  38
HETATM   38  O3  UNL     1     -13.701 100.663  14.697  1.00  0.00    -0.182 OA
BRANCH  38  39
HETATM   39  C11 UNL     1     -13.214 101.839  14.155  1.00  0.00     0.257 C
HETATM   40  N12 UNL     1     -13.836 102.934  14.376  1.00  0.00    -0.363 N
ATOM     41 2H12 UNL     1     -14.680 102.933  14.947  1.00  0.00     0.159 HD
ATOM     42 1H12 UNL     1     -13.477 103.801  13.975  1.00  0.00     0.159 HD
BRANCH  39  43
HETATM   43  N13 UNL     1     -12.050 101.841  13.367  1.00  0.00    -0.270 N
ATOM     44  H13 UNL     1     -12.080 101.491  12.409  1.00  0.00     0.190 HD
BRANCH  43  45
HETATM   45  N14 UNL     1     -10.854 102.321  13.895  1.00  0.00    -0.342 N
ATOM     46 2H14 UNL     1     -10.774 102.451  14.904  1.00  0.00     0.176 HD
ATOM     47 1H14 UNL     1     -10.074 102.538  13.275  1.00  0.00     0.176 HD
ENDBRANCH  43  45
ENDBRANCH  39  43
ENDBRANCH  38  39
ENDBRANCH  34  38
ENDBRANCH   4  33
TORSDOF 12
ENDMDL