MODEL 1
REMARK VINA RESULT: -8.081772090      0.000      0.000
REMARK  11 active torsions:
REMARK  status: ('A' for Active; 'I' for Inactive)
REMARK    1  A    between atoms: N1_1  and  C1_4
REMARK    2  A    between atoms: C2_7  and  O1_8
REMARK    3  A    between atoms: C4_11  and  C5_12
REMARK    4  A    between atoms: C7_20  and  N6_21
REMARK    5  A    between atoms: N6_21  and  C8_23
REMARK    6  A    between atoms: C9_29  and  C10_30
REMARK    7  A    between atoms: C10_30  and  O3_31
REMARK    8  A    between atoms: C10_30  and  N9_33
REMARK    9  A    between atoms: N9_33  and  C11_35
REMARK   10  A    between atoms: C12_40  and  C13_41
REMARK   11  A    between atoms: C13_41  and  O4_42
ROOT
HETATM    1  N6  UNL     1     -11.721  96.533  19.400  1.00  0.00    -0.323 N
ATOM      2  H6  UNL     1     -12.390  97.159  19.847  1.00  0.00     0.169 HD
ENDROOT
BRANCH   1   3
HETATM    3  C7  UNL     1     -12.115  95.200  19.511  1.00  0.00     0.138 A
HETATM    4  C5  UNL     1     -12.197  94.553  20.806  1.00  0.00     0.119 A
HETATM    5  N3  UNL     1     -12.616  93.299  20.754  1.00  0.00    -0.294 N
HETATM    6  N4  UNL     1     -12.931  92.609  19.625  1.00  0.00    -0.296 N
ATOM      7  H3  UNL     1     -12.710  92.804  21.641  1.00  0.00     0.187 HD
HETATM    8  C6  UNL     1     -12.873  93.220  18.329  1.00  0.00     0.199 A
ATOM      9  H4  UNL     1     -13.215  91.632  19.703  1.00  0.00     0.187 HD
HETATM   10  N5  UNL     1     -12.433  94.554  18.410  1.00  0.00    -0.336 N
ATOM     11  H5  UNL     1     -12.352  95.068  17.533  1.00  0.00     0.168 HD
BRANCH   4  12
HETATM   12  C4  UNL     1     -11.910  95.119  22.098  1.00  0.00     0.085 A
HETATM   13  C3  UNL     1     -12.948  95.139  23.040  1.00  0.00     0.089 A
HETATM   14  C2  UNL     1     -12.769  95.613  24.323  1.00  0.00     0.157 A
HETATM   15  N2  UNL     1     -11.541  96.059  24.627  1.00  0.00    -0.171 N
HETATM   16  C1  UNL     1     -10.527  96.056  23.762  1.00  0.00     0.678 A
ATOM     17  H2  UNL     1     -11.375  96.418  25.568  1.00  0.00     0.186 HD
HETATM   18  N12 UNL     1     -10.752  95.577  22.505  1.00  0.00    -0.190 N
ATOM     19  H12 UNL     1      -9.975  95.576  21.844  1.00  0.00     0.184 HD
BRANCH  14  20
HETATM   20  O1  UNL     1     -13.808  95.626  25.240  1.00  0.00    -0.346 OA
ATOM     21  H1  UNL     1     -14.676  95.939  25.017  1.00  0.00     0.219 HD
ENDBRANCH  14  20
BRANCH  16  22
HETATM   22  N1  UNL     1      -9.376  96.496  24.112  1.00  0.00    -0.234 N
ATOM     23  H12 UNL     1      -9.199  97.494  24.221  1.00  0.00     0.174 HD
ATOM     24  H11 UNL     1      -8.610  95.847  24.292  1.00  0.00     0.174 HD
ENDBRANCH  16  22
ENDBRANCH   4  12
ENDBRANCH   1   3
BRANCH   1  25
HETATM   25  C8  UNL     1     -10.773  97.160  18.902  1.00  0.00     0.158 A
HETATM   26  N7  UNL     1      -9.579  97.310  19.589  1.00  0.00    -0.223 N
HETATM   27  O2  UNL     1      -8.769  97.988  18.850  1.00  0.00    -0.155 OA
ATOM     28  H7  UNL     1      -9.375  96.946  20.519  1.00  0.00     0.198 HD
HETATM   29  N8  UNL     1      -9.318  98.297  17.743  1.00  0.00    -0.238 N
HETATM   30  C9  UNL     1     -10.591  97.801  17.714  1.00  0.00     0.128 A
ATOM     31  H8  UNL     1      -8.877  98.832  16.995  1.00  0.00     0.196 HD
BRANCH  30  32
HETATM   32  C10 UNL     1     -11.483  98.047  16.564  1.00  0.00     0.276 C
BRANCH  32  33
HETATM   33  O3  UNL     1     -12.329  96.988  16.301  1.00  0.00    -0.371 OA
ATOM     34  H3  UNL     1     -13.243  97.192  16.466  1.00  0.00     0.212 HD
ENDBRANCH  32  33
BRANCH  32  35
HETATM   35  N9  UNL     1     -12.202  99.292  16.699  1.00  0.00    -0.338 N
ATOM     36  H9  UNL     1     -12.278  99.713  17.625  1.00  0.00     0.164 HD
BRANCH  35  37
HETATM   37  C11 UNL     1     -12.814  99.963  15.588  1.00  0.00     0.163 A
HETATM   38  N10 UNL     1     -13.344  99.435  14.491  1.00  0.00    -0.279 N
HETATM   39  N11 UNL     1     -13.843 100.180  13.606  1.00  0.00    -0.294 N
ATOM     40  H10 UNL     1     -13.346  98.422  14.363  1.00  0.00     0.189 HD
HETATM   41  C12 UNL     1     -13.846 101.497  13.765  1.00  0.00     0.093 A
ATOM     42  H11 UNL     1     -14.248  99.769  12.765  1.00  0.00     0.187 HD
HETATM   43  S1  UNL     1     -13.066 101.628  15.302  1.00  0.00    -0.036 SA
BRANCH  41  44
HETATM   44  C13 UNL     1     -14.375 102.568  12.865  1.00  0.00     0.230 C
BRANCH  44  45
HETATM   45  O4  UNL     1     -14.452 103.785  13.533  1.00  0.00    -0.394 OA
ATOM     46  H4  UNL     1     -13.612 104.228  13.532  1.00  0.00     0.209 HD
ENDBRANCH  44  45
ENDBRANCH  41  44
ENDBRANCH  35  37
ENDBRANCH  32  35
ENDBRANCH  30  32
ENDBRANCH   1  25
TORSDOF 11
ENDMDL