MODEL 5
REMARK VINA RESULT: -8.495669510      1.088      1.349
REMARK  10 active torsions:
REMARK  status: ('A' for Active; 'I' for Inactive)
REMARK    1  A    between atoms: S1_2  and  N1_4
REMARK    2  A    between atoms: S1_2  and  C3_14
REMARK    3  A    between atoms: N1_4  and  O2_6
REMARK    4  A    between atoms: O2_6  and  C2_7
REMARK    5  A    between atoms: C6_17  and  N6_18
REMARK    6  A    between atoms: N6_18  and  N7_20
REMARK    7  A    between atoms: N7_20  and  C7_22
REMARK    8  A    between atoms: C7_22  and  C8_26
REMARK    9  A    between atoms: C8_26  and  O3_27
REMARK   10  A    between atoms: C8_26  and  N10_31
ROOT
HETATM    1  C8  UNL     1      -9.492  97.419  17.894  1.00  0.00     0.307 C
HETATM    2  C9  UNL     1      -8.790  98.561  17.203  1.00  0.00     0.131 C
HETATM    3  N9  UNL     1      -8.242  99.432  16.672  1.00  0.00    -0.191 NA
ENDROOT
BRANCH   1   4
HETATM    4  C7  UNL     1     -10.179  98.064  19.048  1.00  0.00     0.164 C
HETATM    5  N8  UNL     1     -10.080  99.339  19.111  1.00  0.00    -0.383 N
ATOM      6  H82 UNL     1     -10.550  99.781  19.901  1.00  0.00     0.157 HD
ATOM      7  H81 UNL     1      -9.538  99.837  18.404  1.00  0.00     0.157 HD
BRANCH   4   8
HETATM    8  N7  UNL     1     -10.927  97.377  20.024  1.00  0.00    -0.284 N
ATOM      9  H7  UNL     1     -11.888  97.690  20.169  1.00  0.00     0.188 HD
BRANCH   8  10
HETATM   10  N6  UNL     1     -10.496  96.317  20.809  1.00  0.00    -0.299 N
ATOM     11  H6  UNL     1      -9.723  95.727  20.500  1.00  0.00     0.187 HD
BRANCH  10  12
HETATM   12  C6  UNL     1     -11.151  96.059  22.064  1.00  0.00     0.048 A
HETATM   13  C5  UNL     1     -10.593  96.442  23.265  1.00  0.00     0.032 A
HETATM   14  C4  UNL     1     -11.195  96.200  24.478  1.00  0.00     0.024 A
HETATM   15  C3  UNL     1     -12.397  95.552  24.536  1.00  0.00     0.040 A
HETATM   16  C12 UNL     1     -12.978  95.157  23.328  1.00  0.00     0.024 A
HETATM   17  C11 UNL     1     -12.364  95.407  22.118  1.00  0.00     0.032 A
BRANCH  15  18
HETATM   18  S1  UNL     1     -13.190  95.184  26.066  1.00  0.00     0.071 S
HETATM   19  C1  UNL     1     -12.628  96.173  27.393  1.00  0.00     0.144 C
HETATM   20  O1  UNL     1     -14.670  95.361  25.806  1.00  0.00    -0.243 OA
BRANCH  18  21
HETATM   21  N1  UNL     1     -13.006  93.645  26.311  1.00  0.00    -0.211 N
ATOM     22  H1  UNL     1     -12.174  93.239  26.738  1.00  0.00     0.205 HD
BRANCH  21  23
HETATM   23  O2  UNL     1     -14.099  92.885  25.883  1.00  0.00    -0.191 OA
BRANCH  23  24
HETATM   24  C2  UNL     1     -13.940  91.625  25.347  1.00  0.00     0.273 A
HETATM   25  N2  UNL     1     -14.177  91.339  24.112  1.00  0.00    -0.248 N
HETATM   26  N3  UNL     1     -13.897  89.979  23.973  1.00  0.00    -0.006 NA
ATOM     27  H2  UNL     1     -14.503  91.976  23.385  1.00  0.00     0.187 HD
HETATM   28  N4  UNL     1     -13.547  89.408  25.197  1.00  0.00    -0.006 NA
HETATM   29  N5  UNL     1     -13.501  90.488  26.064  1.00  0.00    -0.248 N
ATOM     30  H5  UNL     1     -13.205  90.467  27.040  1.00  0.00     0.187 HD
ENDBRANCH  23  24
ENDBRANCH  21  23
ENDBRANCH  18  21
ENDBRANCH  15  18
ENDBRANCH  10  12
ENDBRANCH   8  10
ENDBRANCH   4   8
ENDBRANCH   1   4
BRANCH   1  31
HETATM   31  O3  UNL     1      -8.478  96.561  18.234  1.00  0.00    -0.352 OA
ATOM     32  H3  UNL     1      -8.762  95.707  18.537  1.00  0.00     0.214 HD
ENDBRANCH   1  31
BRANCH   1  33
HETATM   33  N10 UNL     1     -10.480  96.884  16.988  1.00  0.00    -0.167 N
HETATM   34  N11 UNL     1     -11.810  97.011  17.196  1.00  0.00     0.004 NA
HETATM   35  N12 UNL     1     -12.455  96.422  16.194  1.00  0.00    -0.222 N
HETATM   36  N13 UNL     1     -11.592  95.920  15.344  1.00  0.00    -0.237 N
ATOM     37  H12 UNL     1     -13.469  96.369  16.099  1.00  0.00     0.205 HD
HETATM   38  C10 UNL     1     -10.384  96.217  15.856  1.00  0.00     0.359 A
ATOM     39  H13 UNL     1     -11.793  95.414  14.482  1.00  0.00     0.193 HD
HETATM   40  O4  UNL     1      -9.307  95.878  15.288  1.00  0.00    -0.244 OA
ENDBRANCH   1  33
TORSDOF 10
ENDMDL