MODEL 5
REMARK VINA RESULT: -7.814247329      2.314      3.322
REMARK  11 active torsions:
REMARK  status: ('A' for Active; 'I' for Inactive)
REMARK    1  A    between atoms: C2_2  and  N1_4
REMARK    2  A    between atoms: N1_4  and  N2_5
REMARK       I    between atoms: N1_4  and  C4_8
REMARK    3  A    between atoms: N2_5  and  O1_6
REMARK       I    between atoms: C4_8  and  N3_10
REMARK    4  A    between atoms: N3_10  and  N4_12
REMARK    5  A    between atoms: N4_12  and  C5_14
REMARK    6  A    between atoms: C6_17  and  N6_18
REMARK    7  A    between atoms: N6_18  and  C7_20
REMARK    8  A    between atoms: C9_23  and  C10_24
REMARK    9  A    between atoms: C10_24  and  O3_25
REMARK   10  A    between atoms: N10_31  and  N11_32
REMARK   11  A    between atoms: C13_37  and  N13_38
ROOT
HETATM    1  C5  UNL     1     -11.236  97.936  17.995  1.00  0.00     0.172 A
HETATM    2  N5  UNL     1     -12.021  98.058  16.930  1.00  0.00    -0.171 N
ATOM      3  H5  UNL     1     -12.967  98.410  17.076  1.00  0.00     0.186 HD
HETATM    4  C6  UNL     1     -11.645  97.741  15.642  1.00  0.00     0.708 A
HETATM    5  N10 UNL     1     -10.419  97.274  15.387  1.00  0.00    -0.076 N
HETATM    6  C12 UNL     1      -9.577  97.132  16.462  1.00  0.00     0.192 A
HETATM    7  N12 UNL     1      -8.258  96.622  16.165  1.00  0.00    -0.077 NA
HETATM    8  C13 UNL     1      -9.939  97.442  17.738  1.00  0.00     0.192 A
ENDROOT
BRANCH   1   9
HETATM    9  N4  UNL     1     -11.563  98.250  19.174  1.00  0.00    -0.279 N
ATOM     10  H4  UNL     1     -12.160  99.076  19.228  1.00  0.00     0.189 HD
BRANCH   9  11
HETATM   11  N3  UNL     1     -11.280  97.712  20.368  1.00  0.00    -0.249 N
HETATM   12  C4  UNL     1     -12.078  96.698  21.001  1.00  0.00     0.354 C
HETATM   13  N1  UNL     1     -11.802  96.129  22.254  1.00  0.00    -0.215 N
HETATM   14  O2  UNL     1     -13.117  96.285  20.375  1.00  0.00    -0.244 OA
ATOM     15  H3  UNL     1     -10.448  98.042  20.857  1.00  0.00     0.192 HD
BRANCH  13  16
HETATM   16  C2  UNL     1     -12.691  95.126  22.813  1.00  0.00     0.103 C
HETATM   17  C1  UNL     1     -11.974  93.842  23.048  1.00  0.00     0.034 C
HETATM   18  C3  UNL     1     -13.228  95.605  24.163  1.00  0.00     0.034 C
ENDBRANCH  13  16
BRANCH  13  19
HETATM   19  N2  UNL     1     -10.672  96.525  22.966  1.00  0.00     0.025 NA
BRANCH  19  20
HETATM   20  O1  UNL     1      -9.552  96.171  22.311  1.00  0.00    -0.277 OA
ATOM     21  H1  UNL     1      -8.968  96.915  22.220  1.00  0.00     0.240 HD
ENDBRANCH  19  20
ENDBRANCH  13  19
ENDBRANCH   9  11
ENDBRANCH   1   9
BRANCH   8  22
HETATM   22  N13 UNL     1      -9.044  97.278  18.833  1.00  0.00    -0.108 N
HETATM   23  O4  UNL     1      -9.057  96.132  19.357  1.00  0.00    -0.532 OA
HETATM   24  O5  UNL     1      -8.253  98.288  19.260  1.00  0.00    -0.532 OA
ENDBRANCH   8  22
BRANCH   4  25
HETATM   25  N6  UNL     1     -12.501  97.892  14.711  1.00  0.00    -0.171 N
ATOM     26  H6  UNL     1     -12.456  98.803  14.256  1.00  0.00     0.186 HD
BRANCH  25  27
HETATM   27  C7  UNL     1     -13.484  97.056  14.194  1.00  0.00     0.164 A
HETATM   28  C8  UNL     1     -13.463  95.657  14.276  1.00  0.00     0.118 A
HETATM   29  N7  UNL     1     -12.485  94.827  14.860  1.00  0.00    -0.096 NA
HETATM   30  C9  UNL     1     -14.604  95.193  13.667  1.00  0.00     0.077 A
HETATM   31  N8  UNL     1     -15.269  96.265  13.244  1.00  0.00    -0.297 N
HETATM   32  N9  UNL     1     -14.640  97.381  13.538  1.00  0.00    -0.279 N
ATOM     33  H8  UNL     1     -16.161  96.226  12.751  1.00  0.00     0.187 HD
HETATM   34  C11 UNL     1     -15.031  98.751  13.254  1.00  0.00     0.179 C
BRANCH  30  35
HETATM   35  C10 UNL     1     -15.014  93.743  13.521  1.00  0.00     0.224 C
BRANCH  35  36
HETATM   36  O3  UNL     1     -15.005  93.148  14.781  1.00  0.00    -0.395 OA
ATOM     37  H3  UNL     1     -14.975  93.831  15.441  1.00  0.00     0.209 HD
ENDBRANCH  35  36
ENDBRANCH  30  35
ENDBRANCH  25  27
ENDBRANCH   4  25
BRANCH   5  38
HETATM   38  N11 UNL     1      -9.920  96.944  14.123  1.00  0.00    -0.323 N
ATOM     39 2H11 UNL     1      -9.050  96.414  14.080  1.00  0.00     0.178 HD
ATOM     40 1H11 UNL     1     -10.344  97.202  13.232  1.00  0.00     0.178 HD
ENDBRANCH   5  38
TORSDOF 11
ENDMDL