MODEL 2
REMARK VINA RESULT: -7.522853182      1.125      1.139
REMARK  9 active torsions:
REMARK  status: ('A' for Active; 'I' for Inactive)
REMARK    1  A    between atoms: S1_2  and  C2_3
REMARK    2  A    between atoms: C2_3  and  O1_4
REMARK    3  A    between atoms: N1_6  and  O2_7
REMARK    4  A    between atoms: C4_12  and  S2_13
REMARK    5  A    between atoms: S2_13  and  C5_14
REMARK    6  A    between atoms: C6_18  and  N4_19
REMARK    7  A    between atoms: C7_21  and  C8_22
REMARK       I    between atoms: N5_24  and  C10_25
REMARK       I    between atoms: C10_25  and  N6_26
REMARK       I    between atoms: C10_25  and  N7_30
REMARK    8  A    between atoms: C11_34  and  N8_35
REMARK    9  A    between atoms: N10_41  and  O4_42
ROOT
HETATM    1  C2  UNL     1      -9.626  97.567  17.986  1.00  0.00     0.320 C
HETATM    2  N1  UNL     1      -9.096  96.640  17.007  1.00  0.00    -0.175 N
HETATM    3  C3  UNL     1     -10.085  96.588  15.982  1.00  0.00     0.169 A
HETATM    4  N2  UNL     1     -10.288  95.639  15.056  1.00  0.00    -0.319 N
ATOM      5  H2  UNL     1      -9.700  94.806  15.011  1.00  0.00     0.169 HD
HETATM    6  C4  UNL     1     -11.296  95.831  14.191  1.00  0.00     0.154 A
HETATM    7  N3  UNL     1     -12.062  96.904  14.239  1.00  0.00    -0.321 N
ATOM      8  H3  UNL     1     -12.811  96.992  13.554  1.00  0.00     0.169 HD
HETATM    9  C6  UNL     1     -11.903  97.918  15.170  1.00  0.00     0.140 A
HETATM   10  C12 UNL     1     -10.870  97.720  16.056  1.00  0.00     0.153 A
HETATM   11  N10 UNL     1     -10.364  98.489  17.140  1.00  0.00    -0.187 N
ENDROOT
BRANCH   9  12
HETATM   12  N4  UNL     1     -12.649  98.871  15.153  1.00  0.00    -0.348 N
HETATM   13  C7  UNL     1     -13.623  99.634  15.724  1.00  0.00     0.121 C
ATOM     14  H4  UNL     1     -12.449  99.335  14.267  1.00  0.00     0.167 HD
BRANCH  13  15
HETATM   15  C8  UNL     1     -14.118 100.754  14.825  1.00  0.00     0.080 A
HETATM   16  C9  UNL     1     -13.538 101.129  13.640  1.00  0.00     0.144 A
HETATM   17  N5  UNL     1     -14.290 102.150  13.175  1.00  0.00    -0.137 N
HETATM   18  C10 UNL     1     -14.033 102.842  11.947  1.00  0.00     0.500 C
HETATM   19  C11 UNL     1     -15.300 102.412  14.026  1.00  0.00     0.681 A
HETATM   20  N6  UNL     1     -12.698 102.540  11.449  1.00  0.00    -0.032 N
HETATM   21  N7  UNL     1     -14.959 102.446  10.885  1.00  0.00    -0.032 N
ATOM     22  H63 UNL     1     -11.981 102.735  12.148  1.00  0.00     0.279 HD
ATOM     23  H62 UNL     1     -12.551 101.535  11.353  1.00  0.00     0.279 HD
ATOM     24  H61 UNL     1     -12.515 103.033  10.575  1.00  0.00     0.279 HD
ATOM     25  H73 UNL     1     -14.952 101.435  10.747  1.00  0.00     0.279 HD
ATOM     26  H72 UNL     1     -15.928 102.563  11.178  1.00  0.00     0.279 HD
ATOM     27  H71 UNL     1     -14.776 102.939  10.011  1.00  0.00     0.279 HD
HETATM   28  N9  UNL     1     -15.185 101.535  15.055  1.00  0.00    -0.189 N
ATOM     29  H9  UNL     1     -15.803 101.478  15.864  1.00  0.00     0.184 HD
BRANCH  19  30
HETATM   30  N8  UNL     1     -16.219 103.312  13.918  1.00  0.00    -0.234 N
ATOM     31  H82 UNL     1     -16.580 103.876  14.688  1.00  0.00     0.174 HD
ATOM     32  H81 UNL     1     -16.722 103.600  13.080  1.00  0.00     0.174 HD
ENDBRANCH  19  30
ENDBRANCH  13  15
ENDBRANCH   9  12
BRANCH   6  33
HETATM   33  S2  UNL     1     -11.577  94.563  12.942  1.00  0.00    -0.025 SA
BRANCH  33  34
HETATM   34  C5  UNL     1     -12.770  95.117  11.750  1.00  0.00     0.312 C
HETATM   35  O3  UNL     1     -13.773  95.734  12.016  1.00  0.00    -0.295 OA
ENDBRANCH  33  34
ENDBRANCH   6  33
BRANCH  11  36
HETATM   36  O4  UNL     1     -10.515  99.814  17.365  1.00  0.00    -0.282 OA
ATOM     37  H4  UNL     1     -11.075 100.399  16.868  1.00  0.00     0.245 HD
ENDBRANCH  11  36
BRANCH   2  38
HETATM   38  O2  UNL     1      -7.923  95.998  17.098  1.00  0.00    -0.281 OA
ATOM     39  H2  UNL     1      -7.351  95.787  16.369  1.00  0.00     0.245 HD
ENDBRANCH   2  38
BRANCH   1  40
HETATM   40  S1  UNL     1     -10.755  96.682  19.082  1.00  0.00    -0.086 SA
HETATM   41  C1  UNL     1     -11.612  97.919  20.107  1.00  0.00     0.097 C
ENDBRANCH   1  40
BRANCH   1  42
HETATM   42  O1  UNL     1      -8.613  98.225  18.676  1.00  0.00    -0.342 OA
ATOM     43  H1  UNL     1      -7.830  98.346  18.152  1.00  0.00     0.215 HD
ENDBRANCH   1  42
TORSDOF 9
ENDMDL