MODEL 2
REMARK VINA RESULT: -7.697718515      0.882      1.145
REMARK  7 active torsions:
REMARK  status: ('A' for Active; 'I' for Inactive)
REMARK    1  A    between atoms: C5_10  and  S1_11
REMARK    2  A    between atoms: S1_11  and  C6_12
REMARK    3  A    between atoms: N4_14  and  C7_15
REMARK       I    between atoms: N6_18  and  C8_19
REMARK       I    between atoms: C8_19  and  N7_20
REMARK       I    between atoms: C8_19  and  N8_24
REMARK    4  A    between atoms: C9_28  and  C10_29
REMARK    5  A    between atoms: N9_30  and  N10_32
REMARK       I    between atoms: N10_32  and  C11_34
REMARK       I    between atoms: C11_34  and  N12_38
REMARK    6  A    between atoms: N12_38  and  N13_40
REMARK    7  A    between atoms: C12_44  and  N14_45
ROOT
HETATM    1  N1  UNL     1     -13.522  91.783  20.964  1.00  0.00    -0.188 NA
HETATM    2  C1  UNL     1     -12.951  92.789  20.930  1.00  0.00     0.137 C
HETATM    3  C2  UNL     1     -12.223  94.047  20.885  1.00  0.00     0.191 A
HETATM    4  N2  UNL     1     -12.116  94.747  19.740  1.00  0.00    -0.317 N
ATOM      5  H2  UNL     1     -12.550  94.393  18.887  1.00  0.00     0.169 HD
HETATM    6  C3  UNL     1     -11.446  95.899  19.713  1.00  0.00     0.150 A
HETATM    7  C4  UNL     1     -10.873  96.346  20.885  1.00  0.00     0.123 A
HETATM    8  N3  UNL     1     -10.271  97.500  20.596  1.00  0.00    -0.330 N
ATOM      9  H3  UNL     1      -9.752  98.084  21.251  1.00  0.00     0.168 HD
HETATM   10  C5  UNL     1     -10.466  97.759  19.283  1.00  0.00     0.163 A
HETATM   11  N4  UNL     1     -11.193  96.775  18.724  1.00  0.00    -0.238 N
HETATM   12  C12 UNL     1     -10.997  95.605  22.059  1.00  0.00     0.132 A
HETATM   13  N15 UNL     1     -11.681  94.446  22.049  1.00  0.00    -0.318 N
ATOM     14  H15 UNL     1     -11.784  93.889  22.897  1.00  0.00     0.169 HD
ENDROOT
BRANCH  12  15
HETATM   15  N14 UNL     1     -10.463  96.017  23.167  1.00  0.00    -0.383 N
ATOM     16 2H14 UNL     1      -9.497  95.764  23.379  1.00  0.00     0.157 HD
ATOM     17 1H14 UNL     1     -10.993  96.587  23.825  1.00  0.00     0.157 HD
ENDBRANCH  12  15
BRANCH  11  18
HETATM   18  C7  UNL     1     -11.606  96.693  17.343  1.00  0.00     0.251 C
HETATM   19  N5  UNL     1     -11.101  95.983  16.413  1.00  0.00    -0.261 N
HETATM   20  N6  UNL     1     -11.758  96.155  15.192  1.00  0.00    -0.237 N
ATOM     21  H5  UNL     1     -10.305  95.358  16.546  1.00  0.00     0.190 HD
HETATM   22  C8  UNL     1     -11.243  95.671  13.926  1.00  0.00     0.499 C
HETATM   23  C9  UNL     1     -12.972  96.872  15.494  1.00  0.00     0.293 C
HETATM   24  N7  UNL     1     -11.076  94.220  13.949  1.00  0.00    -0.031 N
HETATM   25  N8  UNL     1     -12.121  95.987  12.844  1.00  0.00    -0.031 N
ATOM     26  H73 UNL     1     -10.493  93.921  14.731  1.00  0.00     0.279 HD
ATOM     27  H72 UNL     1     -11.940  93.745  14.210  1.00  0.00     0.279 HD
ATOM     28  H71 UNL     1     -10.713  93.879  13.058  1.00  0.00     0.279 HD
ATOM     29  H83 UNL     1     -13.065  95.642  13.018  1.00  0.00     0.279 HD
ATOM     30  H82 UNL     1     -12.321  96.986  12.807  1.00  0.00     0.279 HD
ATOM     31  H81 UNL     1     -11.759  95.646  11.953  1.00  0.00     0.279 HD
HETATM   32  O2  UNL     1     -12.660  97.400  16.789  1.00  0.00    -0.288 OA
BRANCH  23  33
HETATM   33  C10 UNL     1     -13.221  98.010  14.588  1.00  0.00     0.136 C
HETATM   34  N9  UNL     1     -12.795  99.196  14.795  1.00  0.00    -0.297 N
ATOM     35  H9  UNL     1     -12.250  99.353  15.643  1.00  0.00     0.186 HD
BRANCH  34  36
HETATM   36  N10 UNL     1     -13.006 100.278  13.975  1.00  0.00    -0.132 N
HETATM   37  C11 UNL     1     -14.311 100.516  13.487  1.00  0.00     0.704 C
HETATM   38  N11 UNL     1     -15.167 101.115  14.231  1.00  0.00    -0.232 N
HETATM   39  N12 UNL     1     -14.690 100.103  12.187  1.00  0.00    -0.138 N
ATOM     40 2H11 UNL     1     -14.894 101.412  15.168  1.00  0.00     0.174 HD
ATOM     41 1H11 UNL     1     -16.109 101.287  13.878  1.00  0.00     0.174 HD
ATOM     42  H12 UNL     1     -15.018  99.153  12.014  1.00  0.00     0.205 HD
ATOM     43  H10 UNL     1     -12.236 100.897  13.722  1.00  0.00     0.205 HD
BRANCH  39  44
HETATM   44  N13 UNL     1     -14.604 101.023  11.156  1.00  0.00    -0.331 N
ATOM     45 2H13 UNL     1     -13.782 101.621  11.074  1.00  0.00     0.177 HD
ATOM     46 1H13 UNL     1     -15.378 101.080  10.493  1.00  0.00     0.177 HD
ENDBRANCH  39  44
ENDBRANCH  34  36
ENDBRANCH  23  33
ENDBRANCH  11  18
BRANCH  10  47
HETATM   47  S1  UNL     1      -9.876  99.181  18.357  1.00  0.00    -0.024 SA
BRANCH  47  48
HETATM   48  C6  UNL     1      -8.599  98.602  17.260  1.00  0.00     0.312 C
HETATM   49  O1  UNL     1      -8.171  99.305  16.389  1.00  0.00    -0.295 OA
ENDBRANCH  47  48
ENDBRANCH  10  47
TORSDOF 7
ENDMDL