MODEL 4
REMARK VINA RESULT: -7.927355194      5.248     10.217
REMARK  10 active torsions:
REMARK  status: ('A' for Active; 'I' for Inactive)
REMARK    1  A    between atoms: C2_4  and  N3_5
REMARK    2  A    between atoms: N3_5  and  C3_7
REMARK    3  A    between atoms: N4_8  and  N5_10
REMARK    4  A    between atoms: N5_10  and  C4_12
REMARK    5  A    between atoms: C4_12  and  N6_15
REMARK    6  A    between atoms: C8_20  and  N9_21
REMARK    7  A    between atoms: C9_26  and  N11_27
REMARK    8  A    between atoms: C10_30  and  N12_31
REMARK    9  A    between atoms: C11_36  and  N15_37
REMARK   10  A    between atoms: C12_42  and  O1_43
ROOT
HETATM    1  N6  UNL     1     -11.141  96.761  16.406  1.00  0.00    -0.228 N
HETATM    2  N7  UNL     1     -10.499  95.660  16.056  1.00  0.00    -0.016 NA
HETATM    3  N8  UNL     1     -10.981  95.203  14.914  1.00  0.00    -0.277 N
ATOM      4  H8  UNL     1     -10.655  94.365  14.432  1.00  0.00     0.184 HD
HETATM    5  C7  UNL     1     -11.954  95.999  14.490  1.00  0.00     0.135 A
HETATM    6  C8  UNL     1     -12.707  95.868  13.343  1.00  0.00     0.132 C
HETATM    7  N10 UNL     1     -13.835  96.521  13.017  1.00  0.00    -0.324 N
ATOM      8  H10 UNL     1     -14.396  96.111  12.270  1.00  0.00     0.169 HD
HETATM    9  C9  UNL     1     -14.315  97.673  13.572  1.00  0.00     0.147 C
HETATM   10  C10 UNL     1     -13.769  98.463  14.563  1.00  0.00     0.176 C
HETATM   11  N17 UNL     1     -12.876  98.045  15.501  1.00  0.00    -0.321 N
ATOM     12  H17 UNL     1     -12.834  98.607  16.351  1.00  0.00     0.169 HD
HETATM   13  C13 UNL     1     -12.055  97.007  15.457  1.00  0.00     0.157 A
ENDROOT
BRANCH   1  14
HETATM   14  C4  UNL     1     -10.844  97.497  17.609  1.00  0.00     0.132 C
HETATM   15  C5  UNL     1     -10.929  98.988  17.398  1.00  0.00     0.066 C
HETATM   16  C6  UNL     1      -9.456  97.195  18.121  1.00  0.00     0.066 C
BRANCH  14  17
HETATM   17  N5  UNL     1     -11.770  97.126  18.656  1.00  0.00    -0.306 N
ATOM     18  H5  UNL     1     -11.902  97.761  19.443  1.00  0.00     0.183 HD
BRANCH  17  19
HETATM   19  N4  UNL     1     -12.491  95.927  18.628  1.00  0.00    -0.298 N
HETATM   20  C3  UNL     1     -12.287  94.972  19.471  1.00  0.00     0.195 C
ATOM     21  H4  UNL     1     -13.207  95.803  17.912  1.00  0.00     0.187 HD
BRANCH  20  22
HETATM   22  N3  UNL     1     -11.316  95.070  20.486  1.00  0.00    -0.353 N
ATOM     23  H3  UNL     1     -10.477  94.493  20.430  1.00  0.00     0.163 HD
BRANCH  22  24
HETATM   24  C2  UNL     1     -11.483  95.968  21.603  1.00  0.00     0.285 A
HETATM   25  N1  UNL     1     -10.295  96.388  22.328  1.00  0.00    -0.197 NA
HETATM   26  C1  UNL     1     -10.411  96.463  23.767  1.00  0.00     0.136 C
HETATM   27  N2  UNL     1     -11.050  97.293  21.563  1.00  0.00    -0.120 NA
ENDBRANCH  22  24
ENDBRANCH  20  22
ENDBRANCH  17  19
ENDBRANCH  14  17
ENDBRANCH   1  14
BRANCH   6  28
HETATM   28  N9  UNL     1     -12.260  95.014  12.497  1.00  0.00    -0.383 N
ATOM     29  H92 UNL     1     -11.281  95.100  12.221  1.00  0.00     0.157 HD
ATOM     30  H91 UNL     1     -12.941  94.325  12.180  1.00  0.00     0.157 HD
ENDBRANCH   6  28
BRANCH  10  31
HETATM   31  N12 UNL     1     -14.166  99.818  14.615  1.00  0.00    -0.196 N
HETATM   32  N13 UNL     1     -15.389 100.236  14.862  1.00  0.00    -0.230 N
HETATM   33  N14 UNL     1     -15.432 101.574  14.841  1.00  0.00    -0.266 N
ATOM     34  H13 UNL     1     -16.187  99.629  15.043  1.00  0.00     0.209 HD
HETATM   35  C11 UNL     1     -14.202 102.049  14.572  1.00  0.00     0.189 A
ATOM     36  H14 UNL     1     -16.264 102.142  15.002  1.00  0.00     0.190 HD
HETATM   37  C12 UNL     1     -13.405 100.906  14.432  1.00  0.00     0.212 A
BRANCH  35  38
HETATM   38  N15 UNL     1     -13.745 103.389  14.447  1.00  0.00    -0.287 N
HETATM   39  N16 UNL     1     -14.324 104.243  13.705  1.00  0.00    -0.343 N
ATOM     40 2H16 UNL     1     -15.148 103.939  13.186  1.00  0.00     0.176 HD
ATOM     41 1H16 UNL     1     -13.995 105.205  13.616  1.00  0.00     0.176 HD
ATOM     42  H15 UNL     1     -12.919 103.676  14.974  1.00  0.00     0.188 HD
ENDBRANCH  35  38
BRANCH  37  43
HETATM   43  O1  UNL     1     -12.050 100.926  14.148  1.00  0.00    -0.342 OA
ATOM     44  H1  UNL     1     -11.597 101.551  13.595  1.00  0.00     0.219 HD
ENDBRANCH  37  43
ENDBRANCH  10  31
BRANCH   9  45
HETATM   45  N11 UNL     1     -15.436  98.089  13.111  1.00  0.00    -0.382 N
ATOM     46 2H11 UNL     1     -15.562  99.101  13.149  1.00  0.00     0.157 HD
ATOM     47 1H11 UNL     1     -16.068  97.368  12.761  1.00  0.00     0.157 HD
ENDBRANCH   9  45
TORSDOF 10
ENDMDL