MODEL 3
REMARK VINA RESULT: -7.501871457      2.919      7.712
REMARK  12 active torsions:
REMARK  status: ('A' for Active; 'I' for Inactive)
REMARK    1  A    between atoms: O1_2  and  C2_3
REMARK    2  A    between atoms: C2_3  and  C3_5
REMARK    3  A    between atoms: C3_5  and  N1_6
REMARK    4  A    between atoms: N1_6  and  N2_7
REMARK    5  A    between atoms: N2_7  and  C4_9
REMARK    6  A    between atoms: C5_12  and  C6_13
REMARK    7  A    between atoms: C9_25  and  N9_26
REMARK    8  A    between atoms: N9_26  and  C10_28
REMARK    9  A    between atoms: C10_28  and  O3_29
REMARK   10  A    between atoms: C10_28  and  C11_31
REMARK   11  A    between atoms: C13_41  and  N13_42
REMARK   12  A    between atoms: N13_42  and  N14_44
ROOT
HETATM    1  C6  UNL     1     -11.620  95.724  20.373  1.00  0.00     0.167 A
HETATM    2  N4  UNL     1     -10.602  96.588  20.338  1.00  0.00    -0.315 N
ATOM      3  H4  UNL     1     -10.076  96.896  21.156  1.00  0.00     0.170 HD
HETATM    4  C7  UNL     1     -10.361  96.999  19.078  1.00  0.00     0.204 A
HETATM    5  C8  UNL     1      -9.346  97.927  18.625  1.00  0.00     0.138 C
HETATM    6  N5  UNL     1      -8.523  98.660  18.246  1.00  0.00    -0.188 NA
HETATM    7  N6  UNL     1     -11.263  96.365  18.312  1.00  0.00    -0.275 N
ATOM      8  H6  UNL     1     -11.353  96.456  17.300  1.00  0.00     0.189 HD
HETATM    9  N7  UNL     1     -12.022  95.596  19.095  1.00  0.00    -0.280 N
ATOM     10  H7  UNL     1     -12.788  95.004  18.774  1.00  0.00     0.188 HD
ENDROOT
BRANCH   1  11
HETATM   11  C5  UNL     1     -12.227  95.039  21.507  1.00  0.00     0.155 A
HETATM   12  N3  UNL     1     -12.452  93.719  21.502  1.00  0.00    -0.322 N
HETATM   13  C4  UNL     1     -13.018  93.072  22.535  1.00  0.00     0.165 A
ATOM     14  H3  UNL     1     -12.184  93.181  20.679  1.00  0.00     0.169 HD
HETATM   15  C13 UNL     1     -13.401  93.742  23.670  1.00  0.00     0.138 A
HETATM   16  C9  UNL     1     -13.172  95.128  23.689  1.00  0.00     0.137 A
HETATM   17  N8  UNL     1     -12.600  95.723  22.625  1.00  0.00    -0.324 N
ATOM     18  H8  UNL     1     -12.438  96.729  22.656  1.00  0.00     0.169 HD
BRANCH  13  19
HETATM   19  N2  UNL     1     -13.256  91.649  22.544  1.00  0.00    -0.217 N
ATOM     20  H2  UNL     1     -13.414  91.163  23.427  1.00  0.00     0.203 HD
BRANCH  19  21
HETATM   21  N1  UNL     1     -13.269  90.982  21.419  1.00  0.00    -0.331 NA
BRANCH  21  22
HETATM   22  C3  UNL     1     -13.178  90.464  20.371  1.00  0.00     0.290 C
BRANCH  22  23
HETATM   23  C2  UNL     1     -12.543  91.095  19.205  1.00  0.00     0.313 C
HETATM   24  O2  UNL     1     -12.757  92.336  18.948  1.00  0.00    -0.257 OA
BRANCH  23  25
HETATM   25  O1  UNL     1     -11.719  90.435  18.348  1.00  0.00    -0.321 OA
HETATM   26  C1  UNL     1     -10.538  89.752  18.797  1.00  0.00     0.213 C
ENDBRANCH  23  25
ENDBRANCH  22  23
ENDBRANCH  21  22
ENDBRANCH  19  21
ENDBRANCH  13  19
BRANCH  15  27
HETATM   27  N13 UNL     1     -13.966  93.110  24.789  1.00  0.00    -0.300 N
ATOM     28  H13 UNL     1     -14.972  92.943  24.799  1.00  0.00     0.186 HD
BRANCH  27  29
HETATM   29  N14 UNL     1     -13.206  92.698  25.895  1.00  0.00    -0.344 N
ATOM     30 2H14 UNL     1     -12.195  92.821  25.844  1.00  0.00     0.176 HD
ATOM     31 1H14 UNL     1     -13.622  92.288  26.731  1.00  0.00     0.176 HD
ENDBRANCH  27  29
ENDBRANCH  15  27
BRANCH  16  32
HETATM   32  N9  UNL     1     -13.535  95.710  24.758  1.00  0.00    -0.341 N
ATOM     33  H9  UNL     1     -14.519  95.694  25.028  1.00  0.00     0.164 HD
BRANCH  32  34
HETATM   34  C10 UNL     1     -12.581  96.392  25.594  1.00  0.00     0.297 C
BRANCH  34  35
HETATM   35  O3  UNL     1     -11.259  96.015  25.298  1.00  0.00    -0.369 OA
ATOM     36  H3  UNL     1     -10.935  95.356  25.901  1.00  0.00     0.212 HD
ENDBRANCH  34  35
BRANCH  34  37
HETATM   37  C11 UNL     1     -12.885  95.969  26.995  1.00  0.00     0.191 A
HETATM   38  N10 UNL     1     -12.082  95.927  28.055  1.00  0.00    -0.276 N
HETATM   39  N11 UNL     1     -12.764  95.490  29.084  1.00  0.00    -0.263 N
ATOM     40  H10 UNL     1     -11.097  96.193  28.064  1.00  0.00     0.189 HD
HETATM   41  C12 UNL     1     -14.012  95.255  28.665  1.00  0.00     0.238 A
ATOM     42  H11 UNL     1     -12.408  95.353  30.030  1.00  0.00     0.190 HD
HETATM   43  N12 UNL     1     -14.983  94.816  29.381  1.00  0.00    -0.364 N
HETATM   44  O4  UNL     1     -14.049  95.557  27.394  1.00  0.00    -0.259 OA
ATOM     45 2H12 UNL     1     -14.954  94.581  30.373  1.00  0.00     0.159 HD
ATOM     46 1H12 UNL     1     -15.936  94.637  29.062  1.00  0.00     0.159 HD
ENDBRANCH  34  37
ENDBRANCH  32  34
ENDBRANCH  16  32
ENDBRANCH   1  11
TORSDOF 12
ENDMDL