MODEL 3
REMARK VINA RESULT: -8.402877692      4.608      9.904
REMARK  10 active torsions:
REMARK  status: ('A' for Active; 'I' for Inactive)
REMARK    1  A    between atoms: C2_7  and  N3_8
REMARK    2  A    between atoms: C3_11  and  C4_12
REMARK    3  A    between atoms: C4_12  and  O1_13
REMARK    4  A    between atoms: C4_12  and  N4_15
REMARK    5  A    between atoms: N4_15  and  C5_17
REMARK    6  A    between atoms: C7_19  and  N5_20
REMARK    7  A    between atoms: C8_25  and  N7_26
REMARK    8  A    between atoms: C9_35  and  O4_36
REMARK    9  A    between atoms: C9_35  and  C10_38
REMARK   10  A    between atoms: C10_38  and  N12_39
ROOT
HETATM    1  N1  UNL     1     -15.058  97.795  13.071  1.00  0.00    -0.383 N
ATOM      2  H11 UNL     1     -15.453  98.658  12.697  1.00  0.00     0.157 HD
ATOM      3  H12 UNL     1     -15.321  96.880  12.706  1.00  0.00     0.157 HD
HETATM    4  C1  UNL     1     -14.266  97.680  13.942  1.00  0.00     0.145 A
HETATM    5  N2  UNL     1     -13.686  96.416  14.489  1.00  0.00    -0.325 N
ATOM      6  H2  UNL     1     -14.031  95.570  14.038  1.00  0.00     0.169 HD
HETATM    7  C2  UNL     1     -12.718  96.171  15.551  1.00  0.00     0.136 A
HETATM    8  C3  UNL     1     -12.070  97.102  16.346  1.00  0.00     0.180 A
HETATM    9  N9  UNL     1     -12.335  98.483  16.158  1.00  0.00    -0.105 N
HETATM   10  N10 UNL     1     -12.036  99.730  16.588  1.00  0.00     0.011 NA
HETATM   11  N11 UNL     1     -12.784 100.624  15.823  1.00  0.00    -0.275 N
ATOM     12  H11 UNL     1     -12.646 101.609  16.053  1.00  0.00     0.181 HD
HETATM   13  C9  UNL     1     -13.797 100.352  14.674  1.00  0.00     0.227 A
HETATM   14  C11 UNL     1     -13.887  98.997  14.466  1.00  0.00     0.211 A
HETATM   15  N16 UNL     1     -13.140  98.711  15.278  1.00  0.00    -0.299 NA
ENDROOT
BRANCH   8  16
HETATM   16  C4  UNL     1     -11.152  96.989  17.363  1.00  0.00     0.177 C
BRANCH  16  17
HETATM   17  O1  UNL     1      -9.986  96.456  17.033  1.00  0.00    -0.344 OA
ATOM     18  H1  UNL     1      -9.216  96.950  17.289  1.00  0.00     0.219 HD
ENDBRANCH  16  17
BRANCH  16  19
HETATM   19  N4  UNL     1     -11.214  97.335  18.702  1.00  0.00    -0.321 N
ATOM     20  H4  UNL     1     -11.076  98.309  18.969  1.00  0.00     0.169 HD
BRANCH  19  21
HETATM   21  C5  UNL     1     -11.460  96.384  19.697  1.00  0.00     0.126 A
HETATM   22  C6  UNL     1     -11.173  96.680  21.005  1.00  0.00     0.104 A
HETATM   23  C7  UNL     1     -11.414  95.748  21.986  1.00  0.00     0.192 A
HETATM   24  N6  UNL     1     -11.936  94.527  21.691  1.00  0.00    -0.171 N
HETATM   25  C8  UNL     1     -12.204  94.270  20.402  1.00  0.00     0.679 A
ATOM     26  H6  UNL     1     -12.116  93.836  22.419  1.00  0.00     0.186 HD
HETATM   27  N8  UNL     1     -11.968  95.185  19.438  1.00  0.00    -0.177 N
ATOM     28  H8  UNL     1     -12.190  94.946  18.472  1.00  0.00     0.185 HD
BRANCH  23  29
HETATM   29  N5  UNL     1     -11.121  96.045  23.333  1.00  0.00    -0.097 N
HETATM   30  O2  UNL     1     -11.863  95.646  24.232  1.00  0.00    -0.531 OA
HETATM   31  O3  UNL     1     -10.008  96.782  23.665  1.00  0.00    -0.531 OA
ENDBRANCH  23  29
BRANCH  25  32
HETATM   32  N7  UNL     1     -12.698  93.132  20.064  1.00  0.00    -0.234 N
ATOM     33  H72 UNL     1     -12.090  92.452  19.609  1.00  0.00     0.174 HD
ATOM     34  H71 UNL     1     -13.679  92.927  20.253  1.00  0.00     0.174 HD
ENDBRANCH  25  32
ENDBRANCH  19  21
ENDBRANCH  16  19
ENDBRANCH   8  16
BRANCH   7  35
HETATM   35  N3  UNL     1     -12.355  94.877  15.855  1.00  0.00    -0.383 N
ATOM     36  H32 UNL     1     -11.627  94.522  15.236  1.00  0.00     0.157 HD
ATOM     37  H31 UNL     1     -12.810  94.395  16.631  1.00  0.00     0.157 HD
ENDBRANCH   7  35
BRANCH  13  38
HETATM   38  O4  UNL     1     -13.049 100.932  13.609  1.00  0.00    -0.362 OA
ATOM     39  H4  UNL     1     -12.581 101.585  14.116  1.00  0.00     0.213 HD
ENDBRANCH  13  38
BRANCH  13  40
HETATM   40  C10 UNL     1     -14.902 101.270  14.931  1.00  0.00     0.243 C
BRANCH  40  41
HETATM   41  N12 UNL     1     -14.741 102.326  13.944  1.00  0.00    -0.198 N
HETATM   42  N13 UNL     1     -15.105 102.615  12.718  1.00  0.00    -0.209 N
HETATM   43  N14 UNL     1     -14.478 103.773  12.749  1.00  0.00    -0.211 N
ATOM     44  H13 UNL     1     -15.660 102.130  12.012  1.00  0.00     0.211 HD
HETATM   45  N15 UNL     1     -14.104 103.500  13.979  1.00  0.00    -0.209 N
ATOM     46  H14 UNL     1     -14.342 104.548  12.099  1.00  0.00     0.211 HD
ATOM     47  H15 UNL     1     -13.549 103.989  14.681  1.00  0.00     0.211 HD
ENDBRANCH  40  41
ENDBRANCH  13  40
TORSDOF 10
ENDMDL