MODEL 1
REMARK VINA RESULT: -10.096887851      0.000      0.000
REMARK  18 active torsions:
REMARK  status: ('A' for Active; 'I' for Inactive)
REMARK       I    between atoms: C1_2  and  N2_4
REMARK    1  A    between atoms: N2_4  and  C2_6
REMARK    2  A    between atoms: C2_6  and  O2_7
REMARK    3  A    between atoms: C2_6  and  C3_9
REMARK    4  A    between atoms: C3_9  and  O3_10
REMARK    5  A    between atoms: C3_9  and  N3_12
REMARK    6  A    between atoms: N3_12  and  O4_13
REMARK    7  A    between atoms: O4_13  and  C4_14
REMARK    8  A    between atoms: C4_14  and  C5_15
REMARK    9  A    between atoms: C4_14  and  C18_47
REMARK   10  A    between atoms: C5_15  and  C6_16
REMARK   11  A    between atoms: C6_16  and  O5_17
REMARK   12  A    between atoms: C6_16  and  N4_19
REMARK   13  A    between atoms: N4_19  and  C7_21
REMARK   14  A    between atoms: C12_29  and  C13_30
REMARK   15  A    between atoms: C13_30  and  S2_31
REMARK   16  A    between atoms: S2_31  and  C14_32
REMARK   17  A    between atoms: C15_37  and  S3_38
REMARK   18  A    between atoms: C16_43  and  C17_44
ROOT
HETATM    1  C7  UNL     1      25.177   2.308  36.253  1.00  0.00     0.109 C
HETATM    2  C8  UNL     1      24.260   2.363  35.144  1.00  0.00     0.271 C
HETATM    3  O6  UNL     1      24.142   1.685  34.060  1.00  0.00    -0.266 OA
HETATM    4  N5  UNL     1      23.593   3.437  35.753  1.00  0.00    -0.309 N
HETATM    5  C9  UNL     1      24.160   3.068  37.011  1.00  0.00     0.206 C
HETATM    6  S1  UNL     1      24.879   4.480  37.889  1.00  0.00    -0.137 SA
HETATM    7  C10 UNL     1      23.633   5.628  38.491  1.00  0.00     0.081 C
HETATM    8  C11 UNL     1      23.028   6.326  37.267  1.00  0.00     0.047 C
HETATM    9  C12 UNL     1      22.273   5.292  36.524  1.00  0.00    -0.040 C
HETATM   10  C16 UNL     1      22.698   4.513  35.359  1.00  0.00     0.220 C
ENDROOT
BRANCH   1  11
HETATM   11  N4  UNL     1      26.328   1.828  36.484  1.00  0.00    -0.360 N
ATOM     12  H4  UNL     1      26.414   1.205  37.288  1.00  0.00     0.162 HD
BRANCH  11  13
HETATM   13  C6  UNL     1      27.536   2.077  35.715  1.00  0.00     0.220 C
BRANCH  13  14
HETATM   14  C5  UNL     1      28.664   1.493  36.520  1.00  0.00     0.098 C
BRANCH  14  15
HETATM   15  C4  UNL     1      29.577   2.552  37.043  1.00  0.00     0.252 C
BRANCH  15  16
HETATM   16  O4  UNL     1      30.881   2.220  36.600  1.00  0.00    -0.267 OA
BRANCH  16  17
HETATM   17  N3  UNL     1      31.637   3.309  36.714  1.00  0.00    -0.059 NA
BRANCH  17  18
HETATM   18  C3  UNL     1      32.559   3.447  35.553  1.00  0.00     0.313 C
BRANCH  18  19
HETATM   19  C2  UNL     1      33.867   2.992  35.959  1.00  0.00     0.167 C
BRANCH  19  20
HETATM   20  N2  UNL     1      34.999   2.758  35.210  1.00  0.00    -0.292 N
HETATM   21  C1  UNL     1      35.321   2.913  33.871  1.00  0.00     0.334 C
HETATM   22  N1  UNL     1      36.662   2.555  33.430  1.00  0.00    -0.040 NA
HETATM   23  O1  UNL     1      34.561   3.336  32.990  1.00  0.00    -0.251 OA
ATOM     24  H2  UNL     1      35.772   2.389  35.764  1.00  0.00     0.172 HD
ENDBRANCH  19  20
BRANCH  19  25
HETATM   25  O2  UNL     1      33.966   2.774  37.250  1.00  0.00    -0.346 OA
ATOM     26  H2  UNL     1      33.168   2.521  37.699  1.00  0.00     0.219 HD
ENDBRANCH  19  25
ENDBRANCH  18  19
BRANCH  18  27
HETATM   27  O3  UNL     1      31.940   2.894  34.480  1.00  0.00    -0.370 OA
ATOM     28  H3  UNL     1      31.640   3.439  33.762  1.00  0.00     0.212 HD
ENDBRANCH  18  27
ENDBRANCH  17  18
ENDBRANCH  16  17
ENDBRANCH  15  16
BRANCH  15  29
HETATM   29  C18 UNL     1      29.610   2.544  38.522  1.00  0.00     0.205 C
HETATM   30  O12 UNL     1      30.295   1.653  39.099  1.00  0.00    -0.646 OA
HETATM   31  O13 UNL     1      28.924   3.470  39.281  1.00  0.00    -0.646 OA
ENDBRANCH  15  29
ENDBRANCH  14  15
ENDBRANCH  13  14
BRANCH  13  32
HETATM   32  O5  UNL     1      27.371   1.412  34.501  1.00  0.00    -0.377 OA
ATOM     33  H5  UNL     1      26.467   1.156  34.361  1.00  0.00     0.212 HD
ENDBRANCH  13  32
ENDBRANCH  11  13
ENDBRANCH   1  11
BRANCH  10  34
HETATM   34  C17 UNL     1      21.580   3.922  34.594  1.00  0.00     0.201 C
HETATM   35  O10 UNL     1      21.081   2.812  34.955  1.00  0.00    -0.646 OA
HETATM   36  O11 UNL     1      21.041   4.531  33.480  1.00  0.00    -0.646 OA
ENDBRANCH  10  34
BRANCH   9  37
HETATM   37  C13 UNL     1      21.065   5.040  36.985  1.00  0.00     0.058 C
BRANCH  37  38
HETATM   38  S2  UNL     1      19.760   6.266  37.003  1.00  0.00    -0.075 SA
BRANCH  38  39
HETATM   39  C14 UNL     1      19.163   6.431  35.316  1.00  0.00     0.133 A
HETATM   40  N6  UNL     1      18.462   5.568  34.589  1.00  0.00    -0.286 N
HETATM   41  N7  UNL     1      18.124   5.863  33.410  1.00  0.00    -0.281 N
ATOM     42  H6  UNL     1      18.196   4.666  34.985  1.00  0.00     0.188 HD
HETATM   43  C15 UNL     1      18.469   7.036  32.892  1.00  0.00     0.209 A
ATOM     44  H7  UNL     1      17.586   5.198  32.853  1.00  0.00     0.188 HD
HETATM   45  S4  UNL     1      19.329   7.734  34.205  1.00  0.00    -0.030 SA
BRANCH  43  46
HETATM   46  S3  UNL     1      18.122   7.682  31.287  1.00  0.00     0.163 S
HETATM   47  O7  UNL     1      18.128   9.190  31.455  1.00  0.00    -0.590 OA
HETATM   48  O8  UNL     1      19.136   7.226  30.292  1.00  0.00    -0.590 OA
HETATM   49  O9  UNL     1      16.586   7.190  30.817  1.00  0.00    -0.590 OA
ENDBRANCH  43  46
ENDBRANCH  38  39
ENDBRANCH  37  38
ENDBRANCH   9  37
TORSDOF 18
ENDMDL