MODEL 4
REMARK VINA RESULT: -8.758331244      2.991      9.908
REMARK  20 active torsions:
REMARK  status: ('A' for Active; 'I' for Inactive)
REMARK    1  A    between atoms: C5_8  and  N2_9
REMARK       I    between atoms: N2_9  and  C6_11
REMARK    2  A    between atoms: C6_11  and  C7_13
REMARK    3  A    between atoms: C8_18  and  N5_19
REMARK       I    between atoms: N5_19  and  C9_21
REMARK    4  A    between atoms: C9_21  and  O4_23
REMARK    5  A    between atoms: O4_23  and  C10_24
REMARK    6  A    between atoms: C14_28  and  C15_29
REMARK    7  A    between atoms: C15_29  and  O6_31
REMARK    8  A    between atoms: O6_31  and  N6_32
REMARK    9  A    between atoms: N6_32  and  C16_33
REMARK   10  A    between atoms: C16_33  and  C17_34
REMARK   11  A    between atoms: C17_34  and  O7_35
REMARK   12  A    between atoms: C17_34  and  C18_37
REMARK   13  A    between atoms: C17_34  and  O8_40
REMARK   14  A    between atoms: O8_40  and  C21_41
REMARK   15  A    between atoms: C21_41  and  C22_42
REMARK   16  A    between atoms: C21_41  and  C23_45
REMARK   17  A    between atoms: C22_42  and  O9_43
REMARK   18  A    between atoms: C23_45  and  O10_46
REMARK   19  A    between atoms: C24_51  and  C25_52
REMARK   20  A    between atoms: C25_52  and  N8_53
ROOT
HETATM    1  C1  UNL     1      27.557   0.085  36.467  1.00  0.00     0.099 C
HETATM    2  C2  UNL     1      27.734   1.283  36.631  1.00  0.00    -0.160 C
HETATM    3  C3  UNL     1      27.976   2.720  36.830  1.00  0.00     0.181 C
HETATM    4  N1  UNL     1      27.184   3.249  37.926  1.00  0.00    -0.341 N
ATOM      5  H1  UNL     1      27.528   3.268  38.886  1.00  0.00     0.164 HD
HETATM    6  C4  UNL     1      25.897   3.739  37.572  1.00  0.00     0.267 C
HETATM    7  O1  UNL     1      25.304   4.616  38.260  1.00  0.00    -0.269 OA
HETATM    8  C5  UNL     1      25.315   3.132  36.334  1.00  0.00     0.317 C
HETATM    9  O11 UNL     1      26.158   3.093  35.269  1.00  0.00    -0.348 OA
HETATM   10  C24 UNL     1      27.463   3.442  35.607  1.00  0.00     0.178 C
ENDROOT
BRANCH  10  11
HETATM   11  C25 UNL     1      28.377   3.423  34.438  1.00  0.00     0.184 C
BRANCH  11  12
HETATM   12  N8  UNL     1      29.733   3.686  34.859  1.00  0.00    -0.285 N
HETATM   13  C26 UNL     1      30.137   4.758  35.610  1.00  0.00     0.130 A
HETATM   14  C27 UNL     1      31.491   4.687  35.793  1.00  0.00     0.127 A
HETATM   15  N9  UNL     1      31.903   3.587  35.161  1.00  0.00    -0.296 N
HETATM   16  N10 UNL     1      30.833   3.002  34.608  1.00  0.00    -0.241 N
ATOM     17  H9  UNL     1      32.864   3.251  35.108  1.00  0.00     0.187 HD
ATOM     18  H10 UNL     1      30.864   2.139  34.064  1.00  0.00     0.208 HD
ENDBRANCH  11  12
ENDBRANCH  10  11
BRANCH   8  19
HETATM   19  N2  UNL     1      24.006   3.654  36.045  1.00  0.00    -0.320 N
HETATM   20  C6  UNL     1      23.021   2.880  35.404  1.00  0.00     0.289 C
HETATM   21  O2  UNL     1      23.300   1.700  35.081  1.00  0.00    -0.264 OA
ATOM     22  H2  UNL     1      23.785   4.613  36.312  1.00  0.00     0.166 HD
BRANCH  20  23
HETATM   23  C7  UNL     1      21.696   3.386  35.102  1.00  0.00     0.190 A
HETATM   24  N3  UNL     1      20.553   2.937  35.644  1.00  0.00    -0.279 N
HETATM   25  N4  UNL     1      19.349   3.399  35.354  1.00  0.00    -0.282 N
ATOM     26  H3  UNL     1      20.620   2.185  36.330  1.00  0.00     0.189 HD
HETATM   27  C8  UNL     1      19.176   4.378  34.470  1.00  0.00     0.158 A
ATOM     28  H4  UNL     1      18.535   2.996  35.818  1.00  0.00     0.188 HD
HETATM   29  C14 UNL     1      20.334   4.886  33.870  1.00  0.00     0.159 A
HETATM   30  N7  UNL     1      21.522   4.391  34.194  1.00  0.00    -0.329 N
ATOM     31  H7  UNL     1      22.348   4.782  33.741  1.00  0.00     0.168 HD
BRANCH  27  32
HETATM   32  N5  UNL     1      18.051   4.894  34.118  1.00  0.00    -0.285 N
HETATM   33  C9  UNL     1      17.401   5.893  34.846  1.00  0.00     0.367 C
HETATM   34  O3  UNL     1      17.101   5.712  36.042  1.00  0.00    -0.238 OA
ATOM     35  H5  UNL     1      17.610   4.556  33.262  1.00  0.00     0.172 HD
BRANCH  33  36
HETATM   36  O4  UNL     1      17.096   7.079  34.224  1.00  0.00    -0.294 OA
BRANCH  36  37
HETATM   37  C10 UNL     1      17.378   8.333  34.766  1.00  0.00     0.061 C
HETATM   38  C11 UNL     1      16.117   9.055  35.199  1.00  0.00     0.046 C
HETATM   39  C12 UNL     1      17.985   9.170  33.628  1.00  0.00     0.046 C
HETATM   40  C13 UNL     1      18.373   8.198  35.887  1.00  0.00     0.046 C
ENDBRANCH  36  37
ENDBRANCH  33  36
ENDBRANCH  27  32
BRANCH  29  41
HETATM   41  C15 UNL     1      20.226   5.953  32.892  1.00  0.00     0.349 C
HETATM   42  O5  UNL     1      19.453   5.847  31.907  1.00  0.00    -0.254 OA
BRANCH  41  43
HETATM   43  O6  UNL     1      20.953   7.125  32.984  1.00  0.00    -0.120 OA
BRANCH  43  44
HETATM   44  N6  UNL     1      21.355   7.811  33.962  1.00  0.00    -0.283 NA
BRANCH  44  45
HETATM   45  C16 UNL     1      21.734   8.456  34.882  1.00  0.00     0.273 C
BRANCH  45  46
HETATM   46  C17 UNL     1      22.776   7.918  35.838  1.00  0.00     0.280 C
BRANCH  46  47
HETATM   47  O7  UNL     1      23.124   6.623  35.373  1.00  0.00    -0.350 OA
ATOM     48  H7  UNL     1      23.872   6.341  35.887  1.00  0.00     0.214 HD
ENDBRANCH  46  47
BRANCH  46  49
HETATM   49  C18 UNL     1      23.948   8.757  35.833  1.00  0.00    -0.032 C
HETATM   50  C19 UNL     1      24.937   9.483  35.799  1.00  0.00    -0.105 C
HETATM   51  C20 UNL     1      26.098  10.365  35.747  1.00  0.00     0.112 C
ENDBRANCH  46  49
BRANCH  46  52
HETATM   52  O8  UNL     1      22.290   7.745  37.109  1.00  0.00    -0.330 OA
BRANCH  52  53
HETATM   53  C21 UNL     1      22.268   6.405  37.458  1.00  0.00     0.173 C
BRANCH  53  54
HETATM   54  C22 UNL     1      20.773   5.962  37.567  1.00  0.00     0.198 C
BRANCH  54  55
HETATM   55  O9  UNL     1      20.139   6.710  38.551  1.00  0.00    -0.398 OA
ATOM     56  H9  UNL     1      19.259   6.929  38.265  1.00  0.00     0.209 HD
ENDBRANCH  54  55
ENDBRANCH  53  54
BRANCH  53  57
HETATM   57  C23 UNL     1      22.938   6.097  38.765  1.00  0.00     0.198 C
BRANCH  57  58
HETATM   58  O10 UNL     1      23.858   7.022  39.193  1.00  0.00    -0.398 OA
ATOM     59  H10 UNL     1      24.180   6.901  40.079  1.00  0.00     0.209 HD
ENDBRANCH  57  58
ENDBRANCH  53  57
ENDBRANCH  52  53
ENDBRANCH  46  52
ENDBRANCH  45  46
ENDBRANCH  44  45
ENDBRANCH  43  44
ENDBRANCH  41  43
ENDBRANCH  29  41
ENDBRANCH  20  23
ENDBRANCH   8  19
TORSDOF 20
ENDMDL