MODEL 3
REMARK VINA RESULT: -9.028755831      0.954      1.160
REMARK  13 active torsions:
REMARK  status: ('A' for Active; 'I' for Inactive)
REMARK    1  A    between atoms: C2_2  and  N1_3
REMARK    2  A    between atoms: N1_3  and  C3_5
REMARK    3  A    between atoms: C4_6  and  C5_7
REMARK    4  A    between atoms: C5_7  and  O1_8
REMARK    5  A    between atoms: O1_8  and  C6_9
REMARK    6  A    between atoms: C8_15  and  S1_16
REMARK    7  A    between atoms: N5_24  and  C11_25
REMARK    8  A    between atoms: C11_25  and  C12_26
REMARK    9  A    between atoms: C12_26  and  C13_27
REMARK   10  A    between atoms: C13_27  and  S2_28
REMARK   11  A    between atoms: S2_28  and  C14_29
REMARK   12  A    between atoms: C14_29  and  N6_30
REMARK   13  A    between atoms: C16_34  and  C17_35
REMARK       I    between atoms: N11_43  and  C20_44
ROOT
HETATM    1  C3  UNL     1      20.158   5.900  34.945  1.00  0.00     0.144 C
HETATM    2  C4  UNL     1      19.220   6.980  35.387  1.00  0.00    -0.015 C
HETATM    3  C7  UNL     1      19.314   7.581  36.719  1.00  0.00     0.156 C
HETATM    4  N3  UNL     1      20.550   7.444  37.412  1.00  0.00    -0.375 N
ATOM      5  H3  UNL     1      20.697   7.849  38.336  1.00  0.00     0.157 HD
HETATM    6  C8  UNL     1      21.568   6.709  36.744  1.00  0.00     0.276 C
HETATM    7  C9  UNL     1      20.903   5.481  36.143  1.00  0.00     0.212 C
HETATM    8  N4  UNL     1      21.996   4.590  35.979  1.00  0.00    -0.203 N
HETATM    9  C10 UNL     1      22.396   3.543  35.235  1.00  0.00     0.349 A
HETATM   10  O6  UNL     1      21.763   2.972  34.291  1.00  0.00    -0.245 OA
HETATM   11  N5  UNL     1      23.595   3.199  35.662  1.00  0.00    -0.247 N
HETATM   12  C19 UNL     1      23.939   4.024  36.665  1.00  0.00     0.367 A
HETATM   13  O8  UNL     1      25.012   4.003  37.320  1.00  0.00    -0.243 OA
HETATM   14  N10 UNL     1      22.922   4.913  36.869  1.00  0.00    -0.126 N
HETATM   15  N11 UNL     1      22.497   6.014  37.650  1.00  0.00    -0.175 N
HETATM   16  C20 UNL     1      22.888   6.325  38.952  1.00  0.00     0.316 C
HETATM   17  O9  UNL     1      22.417   7.374  39.500  1.00  0.00    -0.257 OA
HETATM   18  S3  UNL     1      24.007   5.372  39.940  1.00  0.00     0.015 SA
ENDROOT
BRANCH  11  19
HETATM   19  C11 UNL     1      24.385   2.110  35.133  1.00  0.00     0.139 C
BRANCH  19  20
HETATM   20  C12 UNL     1      25.582   2.560  34.338  1.00  0.00     0.031 C
BRANCH  20  21
HETATM   21  C13 UNL     1      26.640   1.471  34.564  1.00  0.00     0.077 C
BRANCH  21  22
HETATM   22  S2  UNL     1      27.067   1.254  36.285  1.00  0.00    -0.149 SA
BRANCH  22  23
HETATM   23  C14 UNL     1      28.837   1.238  36.606  1.00  0.00     0.204 C
BRANCH  23  24
HETATM   24  N6  UNL     1      29.378   2.603  36.683  1.00  0.00    -0.320 N
HETATM   25  C15 UNL     1      29.552   3.461  35.658  1.00  0.00     0.185 A
HETATM   26  N7  UNL     1      30.073   4.622  36.116  1.00  0.00    -0.345 N
HETATM   27  C16 UNL     1      30.231   4.501  37.443  1.00  0.00     0.140 A
ATOM     28  H7  UNL     1      30.304   5.442  35.555  1.00  0.00     0.167 HD
HETATM   29  C18 UNL     1      29.800   3.251  37.788  1.00  0.00     0.152 A
HETATM   30  N9  UNL     1      29.793   2.717  39.098  1.00  0.00    -0.080 NA
BRANCH  27  31
HETATM   31  C17 UNL     1      30.759   5.502  38.362  1.00  0.00     0.284 C
HETATM   32  N8  UNL     1      32.138   5.751  38.400  1.00  0.00    -0.056 NA
HETATM   33  O7  UNL     1      29.999   6.144  39.122  1.00  0.00    -0.269 OA
ENDBRANCH  27  31
ENDBRANCH  23  24
ENDBRANCH  22  23
ENDBRANCH  21  22
ENDBRANCH  20  21
ENDBRANCH  19  20
ENDBRANCH  11  19
BRANCH   1  34
HETATM   34  N1  UNL     1      19.352   4.899  34.326  1.00  0.00    -0.392 N
ATOM     35  H1  UNL     1      19.338   4.787  33.312  1.00  0.00     0.159 HD
BRANCH  34  36
HETATM   36  C2  UNL     1      18.577   4.072  35.157  1.00  0.00     0.052 C
HETATM   37  C1  UNL     1      17.159   4.014  34.625  1.00  0.00     0.054 C
ENDBRANCH  34  36
ENDBRANCH   1  34
BRANCH   6  38
HETATM   38  S1  UNL     1      22.550   7.635  35.644  1.00  0.00     0.156 S
HETATM   39  O3  UNL     1      22.042   9.004  35.322  1.00  0.00    -0.592 OA
HETATM   40  O4  UNL     1      23.884   7.876  36.355  1.00  0.00    -0.592 OA
HETATM   41  O5  UNL     1      22.950   6.759  34.272  1.00  0.00    -0.592 OA
ENDBRANCH   6  38
BRANCH   2  42
HETATM   42  C5  UNL     1      18.280   7.388  34.517  1.00  0.00     0.153 C
BRANCH  42  43
HETATM   43  O1  UNL     1      18.562   7.340  33.169  1.00  0.00    -0.276 OA
BRANCH  43  44
HETATM   44  C6  UNL     1      17.515   7.228  32.265  1.00  0.00     0.377 C
HETATM   45  N2  UNL     1      17.644   7.416  30.880  1.00  0.00    -0.032 NA
HETATM   46  O2  UNL     1      16.349   6.934  32.692  1.00  0.00    -0.242 OA
ENDBRANCH  43  44
ENDBRANCH  42  43
ENDBRANCH   2  42
TORSDOF 13
ENDMDL