MODEL 1
REMARK VINA RESULT: -10.438503011      0.000      0.000
REMARK  15 active torsions:
REMARK  status: ('A' for Active; 'I' for Inactive)
REMARK    1  A    between atoms: C2_2  and  C3_6
REMARK    2  A    between atoms: C3_6  and  C4_7
REMARK    3  A    between atoms: C4_7  and  N2_8
REMARK       I    between atoms: N2_8  and  C5_10
REMARK    4  A    between atoms: C5_10  and  C6_12
REMARK    5  A    between atoms: C7_13  and  C8_14
REMARK    6  A    between atoms: N5_22  and  C10_23
REMARK    7  A    between atoms: C12_25  and  N6_26
REMARK    8  A    between atoms: C14_30  and  C15_31
REMARK    9  A    between atoms: C15_31  and  O7_32
REMARK   10  A    between atoms: C15_31  and  N7_34
REMARK   11  A    between atoms: N8_37  and  O8_38
REMARK   12  A    between atoms: O8_38  and  S1_39
REMARK   13  A    between atoms: S1_39  and  N9_42
REMARK   14  A    between atoms: C20_45  and  O11_46
REMARK   15  A    between atoms: C21_48  and  O12_49
ROOT
HETATM    1  C10 UNL     1      25.377   3.845  37.164  1.00  0.00     0.085 A
HETATM    2  C11 UNL     1      25.119   3.083  36.043  1.00  0.00     0.069 A
HETATM    3  C12 UNL     1      26.097   2.340  35.439  1.00  0.00     0.105 A
HETATM    4  C13 UNL     1      27.365   2.368  35.978  1.00  0.00     0.050 A
HETATM    5  C14 UNL     1      27.681   3.109  37.095  1.00  0.00     0.038 A
HETATM    6  C21 UNL     1      26.638   3.851  37.673  1.00  0.00     0.104 A
ENDROOT
BRANCH   1   7
HETATM    7  N5  UNL     1      24.320   4.614  37.772  1.00  0.00    -0.208 N
HETATM    8  C9  UNL     1      24.172   4.939  39.070  1.00  0.00     0.372 A
HETATM    9  N4  UNL     1      23.042   5.670  39.212  1.00  0.00    -0.129 N
HETATM   10  O4  UNL     1      24.959   4.614  40.008  1.00  0.00    -0.242 OA
HETATM   11  N3  UNL     1      22.285   6.300  40.085  1.00  0.00    -0.266 N
HETATM   12  N10 UNL     1      22.484   5.809  38.035  1.00  0.00    -0.171 N
HETATM   13  C7  UNL     1      21.198   6.872  39.471  1.00  0.00     0.161 A
ATOM     14  H3  UNL     1      22.479   6.355  41.084  1.00  0.00     0.189 HD
HETATM   15  C6  UNL     1      21.331   6.549  38.152  1.00  0.00     0.166 A
HETATM   16  C22 UNL     1      23.262   5.165  37.150  1.00  0.00     0.359 A
HETATM   17  O13 UNL     1      23.071   5.059  35.893  1.00  0.00    -0.244 OA
BRANCH  13  18
HETATM   18  C8  UNL     1      20.185   7.682  40.159  1.00  0.00     0.231 C
HETATM   19  O2  UNL     1      20.048   7.457  41.413  1.00  0.00    -0.643 OA
HETATM   20  O3  UNL     1      19.409   8.632  39.576  1.00  0.00    -0.643 OA
ENDBRANCH  13  18
BRANCH  15  21
HETATM   21  C5  UNL     1      20.436   6.791  37.046  1.00  0.00     0.273 C
HETATM   22  N2  UNL     1      19.261   6.124  36.708  1.00  0.00    -0.355 N
ATOM     23  H2  UNL     1      18.956   5.337  37.282  1.00  0.00     0.162 HD
HETATM   24  O1  UNL     1      20.805   7.759  36.278  1.00  0.00    -0.266 OA
BRANCH  22  25
HETATM   25  C4  UNL     1      18.464   6.511  35.573  1.00  0.00     0.128 C
BRANCH  25  26
HETATM   26  C3  UNL     1      18.585   5.509  34.478  1.00  0.00     0.071 C
BRANCH  26  27
HETATM   27  C2  UNL     1      19.833   5.737  33.655  1.00  0.00    -0.023 C
HETATM   28  C1  UNL     1      19.799   6.893  32.712  1.00  0.00     0.062 C
HETATM   29  N1  UNL     1      20.853   4.994  33.754  1.00  0.00    -0.406 N
ATOM     30  H12 UNL     1      21.695   5.148  33.199  1.00  0.00     0.155 HD
ATOM     31  H11 UNL     1      20.876   4.204  34.399  1.00  0.00     0.155 HD
ENDBRANCH  26  27
ENDBRANCH  25  26
ENDBRANCH  22  25
ENDBRANCH  15  21
ENDBRANCH   1   7
BRANCH   6  32
HETATM   32  O12 UNL     1      26.919   4.605  38.791  1.00  0.00    -0.358 OA
ATOM     33  H12 UNL     1      27.713   5.126  38.820  1.00  0.00     0.217 HD
ENDBRANCH   6  32
BRANCH   3  34
HETATM   34  N6  UNL     1      25.768   1.578  34.288  1.00  0.00    -0.116 N
HETATM   35  O5  UNL     1      26.642   1.179  33.490  1.00  0.00    -0.532 OA
HETATM   36  O6  UNL     1      24.468   1.246  34.003  1.00  0.00    -0.532 OA
ENDBRANCH   3  34
BRANCH   5  37
HETATM   37  C15 UNL     1      29.040   3.153  37.707  1.00  0.00     0.399 C
BRANCH  37  38
HETATM   38  O7  UNL     1      29.036   2.231  38.782  1.00  0.00    -0.364 OA
ATOM     39  H7  UNL     1      29.561   1.488  38.509  1.00  0.00     0.212 HD
ENDBRANCH  37  38
BRANCH  37  40
HETATM   40  N7  UNL     1      30.104   2.931  36.791  1.00  0.00     0.168 N
HETATM   41  C16 UNL     1      30.855   1.741  36.989  1.00  0.00     0.298 C
HETATM   42  C17 UNL     1      32.275   2.057  36.497  1.00  0.00     0.157 C
HETATM   43  N8  UNL     1      32.221   3.391  35.998  1.00  0.00    -0.120 NA
HETATM   44  C20 UNL     1      31.085   3.968  36.733  1.00  0.00     0.467 C
BRANCH  43  45
HETATM   45  O8  UNL     1      33.269   4.165  36.273  1.00  0.00    -0.161 OA
BRANCH  45  46
HETATM   46  S1  UNL     1      34.209   4.599  34.985  1.00  0.00     0.355 S
HETATM   47  O9  UNL     1      33.524   5.781  34.312  1.00  0.00    -0.179 OA
HETATM   48  O10 UNL     1      35.567   5.104  35.399  1.00  0.00    -0.179 OA
BRANCH  46  49
HETATM   49  N9  UNL     1      34.402   3.384  33.801  1.00  0.00    -0.195 NA
HETATM   50  C18 UNL     1      35.438   2.472  34.245  1.00  0.00     0.131 C
HETATM   51  C19 UNL     1      34.767   3.882  32.507  1.00  0.00     0.131 C
ENDBRANCH  46  49
ENDBRANCH  45  46
ENDBRANCH  43  45
BRANCH  44  52
HETATM   52  O11 UNL     1      31.567   4.146  38.051  1.00  0.00    -0.355 OA
ATOM     53  H11 UNL     1      30.965   4.738  38.485  1.00  0.00     0.213 HD
ENDBRANCH  44  52
ENDBRANCH  37  40
ENDBRANCH   5  37
TORSDOF 15
ENDMDL