MODEL 4
REMARK VINA RESULT: -6.944661768      1.269      2.267
REMARK  14 active torsions:
REMARK  status: ('A' for Active; 'I' for Inactive)
REMARK    1  A    between atoms: C2_2  and  O1_4
REMARK    2  A    between atoms: C2_2  and  O2_6
REMARK    3  A    between atoms: O2_6  and  C4_7
REMARK    4  A    between atoms: C4_7  and  C5_9
REMARK    5  A    between atoms: C14_21  and  C15_22
REMARK    6  A    between atoms: C14_21  and  C16_25
REMARK    7  A    between atoms: C17_30  and  C18_31
REMARK       I    between atoms: C18_31  and  N1_33
REMARK    8  A    between atoms: N1_33  and  C19_35
REMARK    9  A    between atoms: C19_35  and  C20_36
REMARK   10  A    between atoms: N2_39  and  C21_40
REMARK   11  A    between atoms: C21_40  and  C22_45
REMARK   12  A    between atoms: N3_41  and  O15_43
REMARK   13  A    between atoms: C22_45  and  C23_47
REMARK   14  A    between atoms: C23_47  and  C24_48
ROOT
HETATM    1  C5  UNL     1      19.275   7.818  36.843  1.00  0.00     0.399 C
HETATM    2  O4  UNL     1      18.690   6.567  36.744  1.00  0.00    -0.321 OA
HETATM    3  C6  UNL     1      18.562   5.954  35.574  1.00  0.00     0.208 C
HETATM    4  C7  UNL     1      19.576   6.088  34.521  1.00  0.00     0.173 C
HETATM    5  C8  UNL     1      18.959   5.812  33.139  1.00  0.00     0.210 C
HETATM    6  O5  UNL     1      17.794   6.527  32.945  1.00  0.00    -0.341 OA
HETATM    7  C9  UNL     1      17.346   7.428  32.064  1.00  0.00     0.112 C
HETATM    8  S1  UNL     1      15.945   7.056  31.227  1.00  0.00    -0.058 SA
HETATM    9  C10 UNL     1      17.893   8.747  31.683  1.00  0.00     0.077 C
HETATM   10  C11 UNL     1      19.201   9.133  32.233  1.00  0.00     0.007 C
HETATM   11  C12 UNL     1      19.199   9.896  33.524  1.00  0.00     0.004 C
HETATM   12  C13 UNL     1      17.939   9.930  34.279  1.00  0.00     0.061 C
HETATM   13  C14 UNL     1      18.328   9.785  35.813  1.00  0.00     0.241 C
HETATM   14  O10 UNL     1      18.936   8.647  35.881  1.00  0.00    -0.289 OA
HETATM   15  O11 UNL     1      20.614   5.158  34.752  1.00  0.00    -0.346 OA
HETATM   16  C17 UNL     1      21.053   5.283  36.063  1.00  0.00     0.345 C
HETATM   17  N2  UNL     1      21.266   6.667  36.353  1.00  0.00    -0.192 N
HETATM   18  O18 UNL     1      20.689   7.762  36.848  1.00  0.00    -0.196 OA
ENDROOT
BRANCH  17  19
HETATM   19  C21 UNL     1      22.600   7.068  36.003  1.00  0.00     0.197 C
HETATM   20  N3  UNL     1      23.085   7.292  34.877  1.00  0.00    -0.248 N
ATOM     21  H3  UNL     1      24.066   7.560  34.964  1.00  0.00     0.196 HD
BRANCH  20  22
HETATM   22  O15 UNL     1      22.730   7.292  33.615  1.00  0.00    -0.288 OA
ATOM     23  H15 UNL     1      22.838   7.816  32.831  1.00  0.00     0.244 HD
ENDBRANCH  20  22
BRANCH  19  24
HETATM   24  C22 UNL     1      23.511   7.276  37.144  1.00  0.00     0.205 C
HETATM   25  O16 UNL     1      24.574   7.881  36.979  1.00  0.00    -0.289 OA
BRANCH  24  26
HETATM   26  C23 UNL     1      23.135   6.759  38.469  1.00  0.00     0.186 C
BRANCH  26  27
HETATM   27  C24 UNL     1      24.257   6.128  39.218  1.00  0.00     0.238 C
HETATM   28  N4  UNL     1      24.804   6.728  40.392  1.00  0.00    -0.062 NA
HETATM   29  O17 UNL     1      24.778   5.035  38.852  1.00  0.00    -0.276 OA
ENDBRANCH  26  27
ENDBRANCH  24  26
ENDBRANCH  19  24
ENDBRANCH  17  19
BRANCH  16  30
HETATM   30  C18 UNL     1      22.233   4.398  36.235  1.00  0.00     0.269 C
HETATM   31  O12 UNL     1      22.346   3.721  37.284  1.00  0.00    -0.268 OA
HETATM   32  N1  UNL     1      23.270   4.267  35.272  1.00  0.00    -0.347 N
ATOM     33  H1  UNL     1      23.235   4.786  34.395  1.00  0.00     0.163 HD
BRANCH  32  34
HETATM   34  C19 UNL     1      24.372   3.382  35.562  1.00  0.00     0.235 C
BRANCH  34  35
HETATM   35  C20 UNL     1      24.322   2.107  34.832  1.00  0.00     0.191 C
HETATM   36  O13 UNL     1      23.290   1.733  34.247  1.00  0.00    -0.647 OA
HETATM   37  O14 UNL     1      25.451   1.311  34.798  1.00  0.00    -0.647 OA
ENDBRANCH  34  35
ENDBRANCH  32  34
ENDBRANCH  16  30
BRANCH   1  38
HETATM   38  C4  UNL     1      19.030   8.207  38.266  1.00  0.00     0.358 C
HETATM   39  O3  UNL     1      19.756   7.750  39.226  1.00  0.00    -0.256 OA
BRANCH  38  40
HETATM   40  O2  UNL     1      18.042   9.067  38.688  1.00  0.00    -0.278 OA
BRANCH  40  41
HETATM   41  C2  UNL     1      18.256  10.036  39.697  1.00  0.00     0.163 C
HETATM   42  C1  UNL     1      16.872  10.458  40.184  1.00  0.00     0.078 C
HETATM   43  C3  UNL     1      18.989   9.419  40.870  1.00  0.00     0.078 C
BRANCH  41  44
HETATM   44  O1  UNL     1      18.993  11.124  39.283  1.00  0.00    -0.365 OA
ATOM     45  H1  UNL     1      19.304  11.631  40.024  1.00  0.00     0.213 HD
ENDBRANCH  41  44
ENDBRANCH  40  41
ENDBRANCH  38  40
ENDBRANCH   1  38
BRANCH  13  46
HETATM   46  C15 UNL     1      19.294  10.937  35.951  1.00  0.00     0.221 C
HETATM   47  O6  UNL     1      19.083  11.981  36.565  1.00  0.00    -0.645 OA
HETATM   48  O7  UNL     1      20.534  10.775  35.311  1.00  0.00    -0.645 OA
ENDBRANCH  13  46
BRANCH  13  49
HETATM   49  C16 UNL     1      17.048  10.062  36.459  1.00  0.00     0.221 C
HETATM   50  O8  UNL     1      16.113   9.246  36.520  1.00  0.00    -0.645 OA
HETATM   51  O9  UNL     1      16.838  11.299  37.049  1.00  0.00    -0.645 OA
ENDBRANCH  13  49
TORSDOF 14
ENDMDL