MODEL 2
REMARK VINA RESULT: -10.755219777      3.955     11.532
REMARK  16 active torsions:
REMARK  status: ('A' for Active; 'I' for Inactive)
REMARK    1  A    between atoms: N1_2  and  S1_4
REMARK    2  A    between atoms: S1_4  and  N2_7
REMARK    3  A    between atoms: C3_9  and  C4_10
REMARK    4  A    between atoms: C4_10  and  N3_11
REMARK    5  A    between atoms: N3_11  and  C5_13
REMARK    6  A    between atoms: C8_20  and  C9_21
REMARK    7  A    between atoms: C9_21  and  N6_23
REMARK    8  A    between atoms: C11_26  and  O3_27
REMARK    9  A    between atoms: O3_27  and  C12_28
REMARK   10  A    between atoms: C14_30  and  O4_31
REMARK   11  A    between atoms: C15_33  and  C16_34
REMARK   12  A    between atoms: C16_34  and  O5_35
REMARK   13  A    between atoms: C19_43  and  N9_44
REMARK   14  A    between atoms: N9_44  and  C20_46
REMARK   15  A    between atoms: C20_46  and  C21_47
REMARK   16  A    between atoms: C21_47  and  O8_48
ROOT
HETATM    1  N6  UNL     1      21.826   6.237  37.277  1.00  0.00    -0.263 N
HETATM    2  N7  UNL     1      20.580   6.134  36.923  1.00  0.00    -0.274 N
ATOM      3  H7  UNL     1      19.932   5.450  37.311  1.00  0.00     0.189 HD
HETATM    4  C11 UNL     1      20.242   7.053  35.966  1.00  0.00     0.179 A
HETATM    5  C17 UNL     1      21.420   7.767  35.739  1.00  0.00     0.131 A
HETATM    6  C18 UNL     1      21.705   8.822  34.884  1.00  0.00     0.278 A
HETATM    7  O7  UNL     1      20.811   9.286  34.139  1.00  0.00    -0.266 OA
HETATM    8  N8  UNL     1      22.964   9.302  34.900  1.00  0.00    -0.155 N
ATOM      9  H8  UNL     1      23.201  10.076  34.280  1.00  0.00     0.187 HD
HETATM   10  C19 UNL     1      23.918   8.799  35.700  1.00  0.00     0.682 A
HETATM   11  N10 UNL     1      23.614   7.781  36.515  1.00  0.00    -0.174 N
ATOM     12  H10 UNL     1      24.343   7.403  37.120  1.00  0.00     0.186 HD
HETATM   13  C22 UNL     1      22.368   7.229  36.570  1.00  0.00     0.158 A
ENDROOT
BRANCH   1  14
HETATM   14  C9  UNL     1      22.525   5.438  38.256  1.00  0.00     0.158 C
HETATM   15  C10 UNL     1      23.045   6.255  39.412  1.00  0.00     0.041 C
BRANCH  14  16
HETATM   16  C8  UNL     1      23.598   4.623  37.623  1.00  0.00     0.064 A
HETATM   17  C7  UNL     1      23.473   3.743  36.547  1.00  0.00     0.099 A
HETATM   18  C6  UNL     1      22.407   3.372  35.782  1.00  0.00     0.140 A
HETATM   19  N12 UNL     1      24.667   3.194  36.265  1.00  0.00    -0.139 N
HETATM   20  N5  UNL     1      22.565   2.484  34.784  1.00  0.00    -0.295 N
HETATM   21  N4  UNL     1      23.735   1.939  34.499  1.00  0.00    -0.132 N
ATOM     22  H5  UNL     1      21.752   2.222  34.225  1.00  0.00     0.186 HD
HETATM   23  C5  UNL     1      24.789   2.297  35.244  1.00  0.00     0.701 A
ATOM     24  H4  UNL     1      23.832   1.267  33.737  1.00  0.00     0.205 HD
HETATM   25  C23 UNL     1      25.541   3.714  37.145  1.00  0.00     0.207 A
HETATM   26  N11 UNL     1      24.900   4.568  37.957  1.00  0.00    -0.351 N
ATOM     27  H11 UNL     1      25.334   5.096  38.714  1.00  0.00     0.166 HD
BRANCH  23  28
HETATM   28  N3  UNL     1      25.967   1.819  35.044  1.00  0.00    -0.218 N
ATOM     29  H3  UNL     1      26.290   1.060  35.643  1.00  0.00     0.178 HD
BRANCH  28  30
HETATM   30  C4  UNL     1      26.853   2.302  34.012  1.00  0.00     0.198 C
BRANCH  30  31
HETATM   31  C3  UNL     1      28.153   2.638  34.628  1.00  0.00     0.063 A
HETATM   32  C2  UNL     1      28.521   2.357  35.923  1.00  0.00     0.160 A
HETATM   33  N2  UNL     1      29.763   2.809  36.130  1.00  0.00    -0.159 N
HETATM   34  N14 UNL     1      30.163   3.361  34.984  1.00  0.00    -0.225 N
HETATM   35  N13 UNL     1      29.213   3.267  34.080  1.00  0.00    -0.286 N
ATOM     36  H14 UNL     1      31.074   3.793  34.831  1.00  0.00     0.209 HD
ATOM     37  H13 UNL     1      29.269   3.614  33.122  1.00  0.00     0.188 HD
BRANCH  33  38
HETATM   38  S1  UNL     1      30.634   2.678  37.603  1.00  0.00     0.339 S
HETATM   39  O1  UNL     1      30.828   4.036  38.224  1.00  0.00    -0.181 OA
HETATM   40  O2  UNL     1      29.886   1.810  38.542  1.00  0.00    -0.181 OA
BRANCH  38  41
HETATM   41  N1  UNL     1      32.156   1.941  37.244  1.00  0.00    -0.305 N
HETATM   42  C1  UNL     1      33.141   2.891  36.822  1.00  0.00     0.161 C
ATOM     43  H1  UNL     1      32.334   0.940  37.324  1.00  0.00     0.173 HD
ENDBRANCH  38  41
ENDBRANCH  33  38
ENDBRANCH  30  31
ENDBRANCH  28  30
ENDBRANCH  23  28
ENDBRANCH  14  16
ENDBRANCH   1  14
BRANCH   4  44
HETATM   44  O3  UNL     1      19.097   7.255  35.371  1.00  0.00    -0.302 OA
BRANCH  44  45
HETATM   45  C12 UNL     1      18.039   7.381  34.645  1.00  0.00     0.271 C
HETATM   46  C13 UNL     1      18.250   7.247  33.113  1.00  0.00     0.095 C
HETATM   47  C14 UNL     1      16.901   7.751  32.619  1.00  0.00     0.154 C
HETATM   48  C15 UNL     1      16.468   8.664  33.729  1.00  0.00     0.177 C
HETATM   49  O6  UNL     1      17.534   8.725  34.625  1.00  0.00    -0.351 OA
BRANCH  47  50
HETATM   50  O4  UNL     1      16.055   6.620  32.562  1.00  0.00    -0.393 OA
ATOM     51  H4  UNL     1      16.546   5.947  32.104  1.00  0.00     0.210 HD
ENDBRANCH  47  50
BRANCH  48  52
HETATM   52  C16 UNL     1      16.133  10.054  33.222  1.00  0.00     0.198 C
BRANCH  52  53
HETATM   53  O5  UNL     1      16.241  11.004  34.238  1.00  0.00    -0.398 OA
ATOM     54  H5  UNL     1      16.614  11.816  33.914  1.00  0.00     0.209 HD
ENDBRANCH  52  53
ENDBRANCH  48  52
ENDBRANCH  44  45
ENDBRANCH   4  44
BRANCH  10  55
HETATM   55  N9  UNL     1      25.098   9.269  35.697  1.00  0.00    -0.224 N
ATOM     56  H9  UNL     1      25.896   8.645  35.572  1.00  0.00     0.177 HD
BRANCH  55  57
HETATM   57  C20 UNL     1      25.307  10.680  35.869  1.00  0.00     0.164 C
BRANCH  57  58
HETATM   58  C21 UNL     1      26.408  10.970  36.876  1.00  0.00     0.184 C
BRANCH  58  59
HETATM   59  O8  UNL     1      26.287  10.233  38.030  1.00  0.00    -0.399 OA
ATOM     60  H8  UNL     1      26.492  10.732  38.812  1.00  0.00     0.209 HD
ENDBRANCH  58  59
ENDBRANCH  57  58
ENDBRANCH  55  57
ENDBRANCH  10  55
TORSDOF 16
ENDMDL