MODEL 2
REMARK VINA RESULT: -8.443841064      1.312      1.887
REMARK  18 active torsions:
REMARK  status: ('A' for Active; 'I' for Inactive)
REMARK    1  A    between atoms: C2_3  and  O1_4
REMARK    2  A    between atoms: C2_3  and  C3_6
REMARK    3  A    between atoms: C3_6  and  N2_7
REMARK    4  A    between atoms: C3_6  and  C20_46
REMARK    5  A    between atoms: N2_7  and  C4_9
REMARK    6  A    between atoms: C4_9  and  C5_10
REMARK    7  A    between atoms: C4_9  and  C15_30
REMARK    8  A    between atoms: C5_10  and  O3_12
REMARK    9  A    between atoms: O3_12  and  C6_13
REMARK   10  A    between atoms: C7_14  and  C8_15
REMARK   11  A    between atoms: C11_22  and  N4_23
REMARK       I    between atoms: N4_23  and  C12_25
REMARK   12  A    between atoms: C15_30  and  C16_31
REMARK   13  A    between atoms: C15_30  and  N6_36
REMARK   14  A    between atoms: C16_31  and  N5_32
REMARK   15  A    between atoms: C18_38  and  C19_39
REMARK   16  A    between atoms: C19_39  and  O8_40
REMARK   17  A    between atoms: C20_46  and  O9_48
REMARK   18  A    between atoms: C20_46  and  C22_50
ROOT
HETATM    1  C1  UNL     1      21.496   1.726  34.936  1.00  0.00     0.262 C
HETATM    2  N1  UNL     1      20.721   2.863  34.954  1.00  0.00    -0.429 NA
HETATM    3  C2  UNL     1      19.940   3.967  34.974  1.00  0.00     0.234 C
ENDROOT
BRANCH   3   4
HETATM    4  O1  UNL     1      18.623   3.659  35.253  1.00  0.00    -0.334 OA
ATOM      5  H1  UNL     1      18.064   3.787  34.496  1.00  0.00     0.220 HD
ENDBRANCH   3   4
BRANCH   3   6
HETATM    6  C3  UNL     1      20.100   5.353  34.801  1.00  0.00     0.112 C
BRANCH   6   7
HETATM    7  N2  UNL     1      21.116   5.952  35.315  1.00  0.00    -0.371 N
ATOM      8  H2  UNL     1      21.237   6.873  34.893  1.00  0.00     0.160 HD
BRANCH   7   9
HETATM    9  C4  UNL     1      22.104   5.722  36.275  1.00  0.00     0.209 C
BRANCH   9  10
HETATM   10  C5  UNL     1      23.307   5.068  35.623  1.00  0.00     0.289 C
HETATM   11  O2  UNL     1      23.878   5.501  34.630  1.00  0.00    -0.262 OA
BRANCH  10  12
HETATM   12  O3  UNL     1      23.796   3.878  36.203  1.00  0.00    -0.271 OA
BRANCH  12  13
HETATM   13  C6  UNL     1      25.070   3.453  36.287  1.00  0.00     0.160 C
HETATM   14  C7  UNL     1      25.856   3.580  37.321  1.00  0.00     0.147 C
HETATM   15  N3  UNL     1      27.234   3.110  37.337  1.00  0.00    -0.348 N
HETATM   16  C9  UNL     1      28.523   3.299  38.017  1.00  0.00     0.201 C
HETATM   17  C10 UNL     1      27.585   2.079  36.408  1.00  0.00     0.179 C
HETATM   18  S1  UNL     1      29.358   2.435  36.660  1.00  0.00    -0.121 SA
HETATM   19  C11 UNL     1      27.103   2.606  35.031  1.00  0.00     0.194 C
HETATM   20  C14 UNL     1      25.673   2.770  35.083  1.00  0.00     0.211 C
HETATM   21  O7  UNL     1      24.872   2.386  34.187  1.00  0.00    -0.288 OA
BRANCH  14  22
HETATM   22  C8  UNL     1      25.409   4.243  38.543  1.00  0.00     0.229 C
HETATM   23  O4  UNL     1      24.191   4.360  38.838  1.00  0.00    -0.643 OA
HETATM   24  O5  UNL     1      26.287   4.762  39.445  1.00  0.00    -0.643 OA
ENDBRANCH  14  22
BRANCH  19  25
HETATM   25  N4  UNL     1      27.741   1.839  34.011  1.00  0.00    -0.347 N
HETATM   26  C12 UNL     1      27.969   2.540  32.773  1.00  0.00     0.214 C
HETATM   27  C13 UNL     1      28.677   1.805  31.651  1.00  0.00     0.117 C
HETATM   28  O6  UNL     1      27.638   3.670  32.568  1.00  0.00    -0.274 OA
ATOM     29  H4  UNL     1      28.016   0.867  34.148  1.00  0.00     0.163 HD
ENDBRANCH  19  25
ENDBRANCH  12  13
ENDBRANCH  10  12
ENDBRANCH   9  10
BRANCH   9  30
HETATM   30  C15 UNL     1      22.453   7.092  36.876  1.00  0.00     0.166 C
BRANCH  30  31
HETATM   31  C16 UNL     1      23.843   7.535  36.646  1.00  0.00     0.259 C
BRANCH  31  32
HETATM   32  N5  UNL     1      24.041   8.468  35.598  1.00  0.00    -0.077 N
ATOM     33  H53 UNL     1      23.985   9.417  35.968  1.00  0.00     0.274 HD
ATOM     34  H52 UNL     1      25.015   8.445  35.296  1.00  0.00     0.274 HD
ATOM     35  H51 UNL     1      23.428   8.378  34.788  1.00  0.00     0.274 HD
ENDBRANCH  31  32
ENDBRANCH  30  31
BRANCH  30  36
HETATM   36  N6  UNL     1      22.121   7.081  38.311  1.00  0.00    -0.278 N
HETATM   37  C17 UNL     1      20.901   7.415  38.776  1.00  0.00     0.141 A
HETATM   38  C18 UNL     1      20.895   7.302  40.182  1.00  0.00     0.067 A
HETATM   39  N7  UNL     1      22.143   6.899  40.486  1.00  0.00    -0.287 N
HETATM   40  N8  UNL     1      22.848   6.775  39.347  1.00  0.00    -0.240 N
ATOM     41  H7  UNL     1      22.496   6.717  41.425  1.00  0.00     0.188 HD
ATOM     42  H8  UNL     1      23.823   6.481  39.301  1.00  0.00     0.208 HD
BRANCH  38  43
HETATM   43  C19 UNL     1      19.719   7.593  41.048  1.00  0.00     0.224 C
BRANCH  43  44
HETATM   44  O8  UNL     1      19.004   8.646  40.524  1.00  0.00    -0.395 OA
ATOM     45  H8  UNL     1      19.554   9.420  40.486  1.00  0.00     0.209 HD
ENDBRANCH  43  44
ENDBRANCH  38  43
ENDBRANCH  30  36
ENDBRANCH   9  30
ENDBRANCH   7   9
ENDBRANCH   6   7
BRANCH   6  46
HETATM   46  C20 UNL     1      19.208   6.224  34.023  1.00  0.00     0.151 C
HETATM   47  C21 UNL     1      19.965   7.137  33.067  1.00  0.00     0.061 C
BRANCH  46  48
HETATM   48  O9  UNL     1      18.395   5.384  33.217  1.00  0.00    -0.377 OA
ATOM     49  H9  UNL     1      18.867   5.223  32.409  1.00  0.00     0.211 HD
ENDBRANCH  46  48
BRANCH  46  50
HETATM   50  C22 UNL     1      18.278   7.093  34.789  1.00  0.00     0.110 A
HETATM   51  N9  UNL     1      17.171   6.657  35.407  1.00  0.00    -0.293 N
HETATM   52  N10 UNL     1      16.404   7.445  36.005  1.00  0.00    -0.281 N
ATOM     53  H9  UNL     1      16.950   5.661  35.390  1.00  0.00     0.187 HD
HETATM   54  C23 UNL     1      16.693   8.752  36.033  1.00  0.00     0.174 A
ATOM     55  H10 UNL     1      15.565   7.095  36.467  1.00  0.00     0.188 HD
HETATM   56  N11 UNL     1      15.945   9.814  36.645  1.00  0.00    -0.073 NA
HETATM   57  S2  UNL     1      18.161   8.756  35.125  1.00  0.00    -0.038 SA
ENDBRANCH  46  50
ENDBRANCH   6  46
ENDBRANCH   3   6
TORSDOF 18
ENDMDL