MODEL 2
REMARK VINA RESULT: -8.940343772      3.799      4.754
REMARK  15 active torsions:
REMARK  status: ('A' for Active; 'I' for Inactive)
REMARK    1  A    between atoms: C4_4  and  N1_5
REMARK    2  A    between atoms: N1_5  and  C5_7
REMARK    3  A    between atoms: C5_7  and  C6_8
REMARK    4  A    between atoms: C6_8  and  O1_9
REMARK    5  A    between atoms: C6_8  and  C7_11
REMARK    6  A    between atoms: N3_17  and  C9_19
REMARK    7  A    between atoms: C10_22  and  C11_23
REMARK    8  A    between atoms: C11_23  and  N5_24
REMARK       I    between atoms: N5_24  and  C12_26
REMARK    9  A    between atoms: C12_26  and  O5_28
REMARK   10  A    between atoms: O5_28  and  S1_29
REMARK   11  A    between atoms: N8_41  and  C17_42
REMARK   12  A    between atoms: N9_44  and  C19_45
REMARK   13  A    between atoms: C19_45  and  C20_46
REMARK   14  A    between atoms: C20_46  and  N10_47
REMARK   15  A    between atoms: C20_46  and  C21_51
ROOT
HETATM    1  C9  UNL     1      21.401   6.482  35.327  1.00  0.00     0.129 A
HETATM    2  N4  UNL     1      21.952   7.755  35.385  1.00  0.00    -0.330 N
ATOM      3  H4  UNL     1      22.856   7.861  35.846  1.00  0.00     0.168 HD
HETATM    4  C10 UNL     1      21.387   8.836  34.884  1.00  0.00     0.102 A
HETATM    5  N6  UNL     1      20.199   8.698  34.279  1.00  0.00    -0.328 N
ATOM      6  H6  UNL     1      19.740   9.519  33.885  1.00  0.00     0.169 HD
HETATM    7  C13 UNL     1      19.592   7.486  34.180  1.00  0.00     0.149 A
HETATM    8  C14 UNL     1      20.166   6.349  34.696  1.00  0.00     0.123 A
HETATM    9  C15 UNL     1      19.313   5.292  34.439  1.00  0.00     0.280 A
HETATM   10  O9  UNL     1      19.486   4.088  34.753  1.00  0.00    -0.265 OA
HETATM   11  N7  UNL     1      18.234   5.804  33.771  1.00  0.00    -0.252 N
HETATM   12  C16 UNL     1      17.100   5.000  33.317  1.00  0.00     0.182 C
HETATM   13  N8  UNL     1      18.420   7.097  33.630  1.00  0.00    -0.231 N
ENDROOT
BRANCH   1  14
HETATM   14  N3  UNL     1      22.000   5.556  35.817  1.00  0.00    -0.307 N
HETATM   15  C8  UNL     1      23.104   4.952  36.308  1.00  0.00     0.231 A
HETATM   16  N2  UNL     1      23.880   4.171  35.506  1.00  0.00    -0.308 N
HETATM   17  O12 UNL     1      23.507   5.072  37.586  1.00  0.00    -0.284 OA
HETATM   18  C4  UNL     1      24.985   3.535  35.903  1.00  0.00     0.106 A
ATOM     19  H2  UNL     1      23.597   4.064  34.532  1.00  0.00     0.171 HD
HETATM   20  C3  UNL     1      25.345   3.697  37.224  1.00  0.00     0.080 A
HETATM   21  C2  UNL     1      24.567   4.489  38.054  1.00  0.00     0.056 A
HETATM   22  C1  UNL     1      24.988   4.642  39.478  1.00  0.00     0.077 C
ATOM     23  H3  UNL     1      21.282   4.838  35.911  1.00  0.00     0.171 HD
BRANCH  18  24
HETATM   24  N1  UNL     1      25.694   2.803  35.116  1.00  0.00    -0.373 N
ATOM     25  H1  UNL     1      25.271   2.501  34.239  1.00  0.00     0.161 HD
BRANCH  24  26
HETATM   26  C5  UNL     1      27.031   2.384  35.385  1.00  0.00     0.164 C
BRANCH  26  27
HETATM   27  C6  UNL     1      27.971   3.108  34.415  1.00  0.00     0.236 C
BRANCH  27  28
HETATM   28  O1  UNL     1      29.298   2.850  34.750  1.00  0.00    -0.383 OA
ATOM     29  H1  UNL     1      29.344   2.151  35.391  1.00  0.00     0.210 HD
ENDBRANCH  27  28
BRANCH  27  30
HETATM   30  C7  UNL     1      27.684   2.669  33.018  1.00  0.00     0.204 C
HETATM   31  O2  UNL     1      26.639   3.060  32.476  1.00  0.00    -0.646 OA
HETATM   32  O3  UNL     1      28.553   1.849  32.337  1.00  0.00    -0.646 OA
ENDBRANCH  27  30
ENDBRANCH  26  27
ENDBRANCH  24  26
ENDBRANCH  18  24
ENDBRANCH   1  14
BRANCH   4  33
HETATM   33  C11 UNL     1      22.049  10.184  34.988  1.00  0.00     0.201 C
BRANCH  33  34
HETATM   34  N5  UNL     1      23.444  10.087  35.323  1.00  0.00    -0.329 N
HETATM   35  C12 UNL     1      24.382  11.020  34.790  1.00  0.00     0.377 C
HETATM   36  O4  UNL     1      24.046  11.954  34.015  1.00  0.00    -0.237 OA
ATOM     37  H5  UNL     1      23.765   9.345  35.946  1.00  0.00     0.165 HD
BRANCH  35  38
HETATM   38  O5  UNL     1      25.733  10.942  35.105  1.00  0.00    -0.159 OA
BRANCH  38  39
HETATM   39  S1  UNL     1      26.227  10.729  36.718  1.00  0.00     0.260 S
HETATM   40  O6  UNL     1      25.713   9.393  37.199  1.00  0.00    -0.572 OA
HETATM   41  O7  UNL     1      25.712  11.848  37.572  1.00  0.00    -0.572 OA
HETATM   42  O8  UNL     1      27.903  10.714  36.813  1.00  0.00    -0.572 OA
ENDBRANCH  38  39
ENDBRANCH  35  38
ENDBRANCH  33  34
ENDBRANCH   4  33
BRANCH  13  43
HETATM   43  C17 UNL     1      17.519   7.996  32.986  1.00  0.00     0.099 A
HETATM   44  C18 UNL     1      17.436   8.253  31.644  1.00  0.00     0.144 A
HETATM   45  N9  UNL     1      16.457   9.157  31.484  1.00  0.00    -0.298 N
HETATM   46  N11 UNL     1      15.945   9.456  32.678  1.00  0.00    -0.301 N
HETATM   47  C22 UNL     1      16.566   8.767  33.633  1.00  0.00     0.052 A
ATOM     48  H11 UNL     1      15.186  10.119  32.838  1.00  0.00     0.187 HD
HETATM   49  C23 UNL     1      16.265   8.843  35.080  1.00  0.00     0.072 C
BRANCH  45  50
HETATM   50  C19 UNL     1      16.066   9.683  30.190  1.00  0.00     0.192 C
BRANCH  50  51
HETATM   51  C20 UNL     1      17.273   9.672  29.256  1.00  0.00     0.302 C
BRANCH  51  52
HETATM   52  N10 UNL     1      17.445  10.973  28.661  1.00  0.00    -0.064 N
ATOM     53 3H10 UNL     1      17.497  10.925  27.643  1.00  0.00     0.275 HD
ATOM     54 2H10 UNL     1      16.604  11.545  28.739  1.00  0.00     0.275 HD
ATOM     55 1H10 UNL     1      18.260  11.435  29.064  1.00  0.00     0.275 HD
ENDBRANCH  51  52
BRANCH  51  56
HETATM   56  C21 UNL     1      17.146   8.610  28.254  1.00  0.00     0.206 C
HETATM   57  O10 UNL     1      16.095   8.555  27.568  1.00  0.00    -0.646 OA
HETATM   58  O11 UNL     1      18.124   7.651  28.011  1.00  0.00    -0.646 OA
ENDBRANCH  51  56
ENDBRANCH  50  51
ENDBRANCH  45  50
ENDBRANCH  13  43
TORSDOF 15
ENDMDL