MODEL 5
REMARK VINA RESULT: -9.778732627      2.268     12.488
REMARK  18 active torsions:
REMARK  status: ('A' for Active; 'I' for Inactive)
REMARK    1  A    between atoms: C2_2  and  C3_3
REMARK    2  A    between atoms: C3_3  and  C4_4
REMARK    3  A    between atoms: C3_3  and  C7_9
REMARK    4  A    between atoms: C3_3  and  N1_12
REMARK    5  A    between atoms: C4_4  and  C5_5
REMARK    6  A    between atoms: C5_5  and  C6_6
REMARK    7  A    between atoms: N2_15  and  C10_16
REMARK    8  A    between atoms: C10_16  and  N3_17
REMARK    9  A    between atoms: C12_19  and  C13_20
REMARK   10  A    between atoms: C13_20  and  O5_21
REMARK   11  A    between atoms: O5_21  and  C14_22
REMARK       I    between atoms: C14_22  and  N4_24
REMARK   12  A    between atoms: N4_24  and  C15_26
REMARK   13  A    between atoms: N7_30  and  C16_31
REMARK   14  A    between atoms: N8_37  and  O9_38
REMARK   15  A    between atoms: C21_41  and  O10_42
REMARK   16  A    between atoms: C22_44  and  O11_45
REMARK   17  A    between atoms: C22_44  and  C23_47
REMARK   18  A    between atoms: C23_47  and  O12_48
ROOT
HETATM    1  C14 UNL     1      24.506   1.926  35.013  1.00  0.00     0.379 C
HETATM    2  O6  UNL     1      24.936   1.154  34.137  1.00  0.00    -0.238 OA
HETATM    3  N4  UNL     1      25.091   1.942  36.297  1.00  0.00    -0.133 N
ATOM      4  H4  UNL     1      24.531   1.653  37.099  1.00  0.00     0.190 HD
ENDROOT
BRANCH   1   5
HETATM    5  O5  UNL     1      23.459   2.770  34.744  1.00  0.00    -0.297 OA
BRANCH   5   6
HETATM    6  C13 UNL     1      22.134   2.388  34.891  1.00  0.00     0.240 C
BRANCH   6   7
HETATM    7  C12 UNL     1      21.210   3.471  35.299  1.00  0.00     0.069 A
HETATM    8  C11 UNL     1      21.496   4.716  35.823  1.00  0.00     0.146 A
HETATM    9  N3  UNL     1      20.345   5.376  36.037  1.00  0.00    -0.252 N
HETATM   10  N11 UNL     1      19.386   4.548  35.651  1.00  0.00    -0.236 N
HETATM   11  N10 UNL     1      19.875   3.407  35.207  1.00  0.00    -0.286 N
ATOM     12  H11 UNL     1      18.391   4.767  35.692  1.00  0.00     0.209 HD
ATOM     13  H10 UNL     1      19.334   2.617  34.856  1.00  0.00     0.188 HD
BRANCH   9  14
HETATM   14  C10 UNL     1      20.271   6.698  36.573  1.00  0.00     0.180 C
BRANCH  14  15
HETATM   15  N2  UNL     1      19.280   7.552  36.032  1.00  0.00    -0.250 NA
HETATM   16  C9  UNL     1      17.961   7.029  35.922  1.00  0.00     0.128 C
HETATM   17  C8  UNL     1      17.387   7.630  34.637  1.00  0.00     0.290 C
HETATM   18  N1  UNL     1      18.475   8.259  33.981  1.00  0.00     0.123 N
HETATM   19  C24 UNL     1      19.617   8.245  34.825  1.00  0.00     0.372 C
BRANCH  18  20
HETATM   20  C3  UNL     1      18.205   9.603  33.477  1.00  0.00     0.247 C
BRANCH  20  21
HETATM   21  C2  UNL     1      19.421  10.433  33.824  1.00  0.00     0.049 C
HETATM   22  C1  UNL     1      19.262  11.874  33.404  1.00  0.00     0.008 C
ENDBRANCH  20  21
BRANCH  20  23
HETATM   23  C4  UNL     1      18.019   9.578  31.995  1.00  0.00     0.064 C
BRANCH  23  24
HETATM   24  C5  UNL     1      18.551   8.343  31.339  1.00  0.00     0.116 C
BRANCH  24  25
HETATM   25  C6  UNL     1      18.436   8.518  29.845  1.00  0.00     0.172 C
HETATM   26  O1  UNL     1      17.858   9.497  29.378  1.00  0.00    -0.648 OA
HETATM   27  O2  UNL     1      18.989   7.562  29.026  1.00  0.00    -0.648 OA
ENDBRANCH  24  25
ENDBRANCH  23  24
ENDBRANCH  20  23
BRANCH  20  28
HETATM   28  C7  UNL     1      17.028  10.197  34.133  1.00  0.00     0.213 C
HETATM   29  O3  UNL     1      15.946  10.436  33.480  1.00  0.00    -0.646 OA
HETATM   30  O4  UNL     1      16.943  10.551  35.473  1.00  0.00    -0.646 OA
ENDBRANCH  20  28
ENDBRANCH  18  20
ENDBRANCH  14  15
ENDBRANCH   9  14
ENDBRANCH   6   7
ENDBRANCH   5   6
ENDBRANCH   1   5
BRANCH   3  31
HETATM   31  C15 UNL     1      26.310   2.311  36.486  1.00  0.00     0.715 A
HETATM   32  N5  UNL     1      26.676   3.384  37.214  1.00  0.00    -0.113 N
HETATM   33  N6  UNL     1      27.996   3.451  37.186  1.00  0.00     0.014 NA
ATOM     34  H5  UNL     1      26.049   4.027  37.697  1.00  0.00     0.203 HD
HETATM   35  N7  UNL     1      28.492   2.460  36.467  1.00  0.00    -0.171 N
HETATM   36  N9  UNL     1      27.463   1.757  36.034  1.00  0.00    -0.113 N
ATOM     37  H9  UNL     1      27.525   0.924  35.449  1.00  0.00     0.207 HD
BRANCH  35  38
HETATM   38  C16 UNL     1      29.895   2.183  36.196  1.00  0.00     0.287 C
HETATM   39  C17 UNL     1      30.391   3.160  35.171  1.00  0.00     0.225 C
HETATM   40  O7  UNL     1      31.741   3.052  34.950  1.00  0.00    -0.374 OA
HETATM   41  C18 UNL     1      32.491   2.677  36.037  1.00  0.00     0.206 C
HETATM   42  C19 UNL     1      31.740   2.951  37.337  1.00  0.00     0.255 C
HETATM   43  C22 UNL     1      33.818   3.373  36.146  1.00  0.00     0.135 C
HETATM   44  O8  UNL     1      30.565   2.249  37.407  1.00  0.00    -0.337 OA
HETATM   45  N8  UNL     1      31.491   4.354  37.497  1.00  0.00    -0.165 NA
HETATM   46  C20 UNL     1      32.693   5.150  37.476  1.00  0.00     0.158 C
HETATM   47  C21 UNL     1      33.574   4.847  36.302  1.00  0.00     0.172 C
BRANCH  45  48
HETATM   48  O9  UNL     1      30.900   4.534  38.702  1.00  0.00    -0.310 OA
ATOM     49  H9  UNL     1      29.981   4.724  38.549  1.00  0.00     0.237 HD
ENDBRANCH  45  48
BRANCH  47  50
HETATM   50  O10 UNL     1      32.933   5.295  35.160  1.00  0.00    -0.391 OA
ATOM     51  H10 UNL     1      32.541   6.138  35.355  1.00  0.00     0.210 HD
ENDBRANCH  47  50
BRANCH  43  52
HETATM   52  O11 UNL     1      34.460   2.837  37.285  1.00  0.00    -0.382 OA
ATOM     53  H11 UNL     1      35.317   3.246  37.329  1.00  0.00     0.210 HD
ENDBRANCH  43  52
BRANCH  43  54
HETATM   54  C23 UNL     1      34.724   3.112  34.975  1.00  0.00     0.207 C
BRANCH  54  55
HETATM   55  O12 UNL     1      35.776   4.024  35.052  1.00  0.00    -0.398 OA
ATOM     56  H12 UNL     1      36.075   4.037  35.953  1.00  0.00     0.209 HD
ENDBRANCH  54  55
ENDBRANCH  43  54
ENDBRANCH  35  38
ENDBRANCH   3  31
TORSDOF 18
ENDMDL