MODEL 5
REMARK VINA RESULT: -10.030172569      3.033      5.215
REMARK  15 active torsions:
REMARK  status: ('A' for Active; 'I' for Inactive)
REMARK    1  A    between atoms: N1_4  and  C4_5
REMARK    2  A    between atoms: C4_5  and  C5_6
REMARK    3  A    between atoms: C8_11  and  N3_12
REMARK       I    between atoms: N3_12  and  C9_14
REMARK    4  A    between atoms: C9_14  and  C10_16
REMARK    5  A    between atoms: N4_18  and  O2_19
REMARK    6  A    between atoms: O2_19  and  C12_20
REMARK    7  A    between atoms: C12_20  and  C13_22
REMARK    8  A    between atoms: C13_22  and  N5_23
REMARK    9  A    between atoms: C13_22  and  C14_27
REMARK   10  A    between atoms: C14_27  and  C15_28
REMARK   11  A    between atoms: C15_28  and  C16_29
REMARK   12  A    between atoms: C21_39  and  C22_40
REMARK   13  A    between atoms: N10_47  and  C23_48
REMARK   14  A    between atoms: C24_53  and  N13_54
REMARK   15  A    between atoms: N15_59  and  N16_60
ROOT
HETATM    1  C5  UNL     1      22.503   4.214  35.906  1.00  0.00    -0.024 C
HETATM    2  C6  UNL     1      23.510   3.474  35.641  1.00  0.00    -0.017 C
HETATM    3  C7  UNL     1      24.070   2.615  34.594  1.00  0.00     0.093 C
HETATM    4  N2  UNL     1      25.372   2.622  34.669  1.00  0.00    -0.376 N
ATOM      5  H2  UNL     1      26.001   2.103  34.057  1.00  0.00     0.161 HD
HETATM    6  C8  UNL     1      25.791   3.499  35.782  1.00  0.00     0.202 C
HETATM    7  C19 UNL     1      24.600   3.420  36.659  1.00  0.00     0.124 C
HETATM    8  S1  UNL     1      24.291   4.951  37.581  1.00  0.00    -0.151 SA
HETATM    9  C20 UNL     1      22.510   4.832  37.286  1.00  0.00     0.115 C
ENDROOT
BRANCH   1  10
HETATM   10  C4  UNL     1      21.301   4.532  35.075  1.00  0.00     0.106 C
BRANCH  10  11
HETATM   11  N1  UNL     1      20.922   5.886  34.982  1.00  0.00    -0.312 N
HETATM   12  C3  UNL     1      21.715   6.959  35.067  1.00  0.00     0.124 A
HETATM   13  C2  UNL     1      20.939   8.096  34.886  1.00  0.00     0.048 A
HETATM   14  C1  UNL     1      21.377   9.517  34.891  1.00  0.00     0.072 C
HETATM   15  N15 UNL     1      19.694   7.685  34.694  1.00  0.00    -0.246 N
HETATM   16  C21 UNL     1      19.672   6.325  34.752  1.00  0.00     0.181 A
BRANCH  15  17
HETATM   17  N16 UNL     1      18.575   8.493  34.473  1.00  0.00    -0.337 N
ATOM     18 2H16 UNL     1      18.530   9.254  33.794  1.00  0.00     0.177 HD
ATOM     19 1H16 UNL     1      17.675   8.428  34.947  1.00  0.00     0.177 HD
ENDBRANCH  15  17
BRANCH  16  20
HETATM   20  C22 UNL     1      18.439   5.543  34.575  1.00  0.00     0.209 A
HETATM   21  N7  UNL     1      17.930   4.648  35.478  1.00  0.00    -0.265 N
HETATM   22  N8  UNL     1      16.812   4.130  34.982  1.00  0.00    -0.226 N
ATOM     23  H7  UNL     1      18.342   4.418  36.383  1.00  0.00     0.190 HD
HETATM   24  N9  UNL     1      16.570   4.644  33.803  1.00  0.00    -0.205 N
ATOM     25  H8  UNL     1      16.230   3.436  35.450  1.00  0.00     0.210 HD
HETATM   26  N10 UNL     1      17.571   5.507  33.559  1.00  0.00    -0.047 N
ATOM     27  H9  UNL     1      15.782   4.432  33.193  1.00  0.00     0.211 HD
BRANCH  26  28
HETATM   28  C23 UNL     1      17.692   6.289  32.366  1.00  0.00     0.736 A
HETATM   29  N11 UNL     1      16.710   7.014  31.775  1.00  0.00    -0.115 N
HETATM   30  N12 UNL     1      17.188   7.616  30.693  1.00  0.00    -0.117 N
ATOM     31  H11 UNL     1      15.750   7.086  32.111  1.00  0.00     0.206 HD
HETATM   32  C24 UNL     1      18.480   7.292  30.559  1.00  0.00     0.705 A
ATOM     33  H12 UNL     1      16.658   8.223  30.066  1.00  0.00     0.206 HD
HETATM   34  N14 UNL     1      18.773   6.469  31.607  1.00  0.00    -0.018 N
ATOM     35  H14 UNL     1      19.686   6.051  31.783  1.00  0.00     0.203 HD
BRANCH  32  36
HETATM   36  N13 UNL     1      19.331   7.670  29.648  1.00  0.00    -0.233 N
ATOM     37 2H13 UNL     1      19.084   8.141  28.778  1.00  0.00     0.174 HD
ATOM     38 1H13 UNL     1      20.346   7.559  29.630  1.00  0.00     0.174 HD
ENDBRANCH  32  36
ENDBRANCH  26  28
ENDBRANCH  16  20
ENDBRANCH  10  11
ENDBRANCH   1  10
BRANCH   6  39
HETATM   39  N3  UNL     1      27.007   3.067  36.398  1.00  0.00    -0.333 N
HETATM   40  C9  UNL     1      28.266   3.098  35.727  1.00  0.00     0.271 C
HETATM   41  O1  UNL     1      28.327   3.494  34.545  1.00  0.00    -0.266 OA
ATOM     42  H3  UNL     1      26.973   2.722  37.358  1.00  0.00     0.165 HD
BRANCH  40  43
HETATM   43  C10 UNL     1      29.483   2.673  36.399  1.00  0.00     0.124 A
HETATM   44  C11 UNL     1      30.736   3.219  36.153  1.00  0.00     0.164 A
HETATM   45  N4  UNL     1      31.620   2.620  36.912  1.00  0.00    -0.170 N
HETATM   46  C17 UNL     1      30.950   1.691  37.652  1.00  0.00     0.353 A
HETATM   47  O6  UNL     1      31.487   0.906  38.510  1.00  0.00    -0.244 OA
HETATM   48  N6  UNL     1      29.651   1.731  37.333  1.00  0.00    -0.296 N
HETATM   49  C18 UNL     1      28.596   0.903  37.947  1.00  0.00     0.161 C
BRANCH  45  50
HETATM   50  O2  UNL     1      32.990   2.759  37.016  1.00  0.00    -0.186 OA
BRANCH  50  51
HETATM   51  C12 UNL     1      33.694   3.896  36.672  1.00  0.00     0.312 C
HETATM   52  O3  UNL     1      33.718   4.863  37.493  1.00  0.00    -0.261 OA
BRANCH  51  53
HETATM   53  C13 UNL     1      34.430   4.040  35.390  1.00  0.00     0.284 C
BRANCH  53  54
HETATM   54  N5  UNL     1      33.606   4.966  34.558  1.00  0.00    -0.066 N
ATOM     55  H53 UNL     1      33.930   5.932  34.577  1.00  0.00     0.275 HD
ATOM     56  H52 UNL     1      33.716   4.822  33.554  1.00  0.00     0.275 HD
ATOM     57  H51 UNL     1      32.648   4.847  34.887  1.00  0.00     0.275 HD
ENDBRANCH  53  54
BRANCH  53  58
HETATM   58  C14 UNL     1      34.537   2.770  34.599  1.00  0.00     0.054 C
BRANCH  58  59
HETATM   59  C15 UNL     1      35.803   2.733  33.801  1.00  0.00     0.115 C
BRANCH  59  60
HETATM   60  C16 UNL     1      35.628   3.032  32.363  1.00  0.00     0.172 C
HETATM   61  O4  UNL     1      34.790   3.829  31.883  1.00  0.00    -0.648 OA
HETATM   62  O5  UNL     1      36.454   2.398  31.423  1.00  0.00    -0.648 OA
ENDBRANCH  59  60
ENDBRANCH  58  59
ENDBRANCH  53  58
ENDBRANCH  51  53
ENDBRANCH  50  51
ENDBRANCH  45  50
ENDBRANCH  40  43
ENDBRANCH   6  39
TORSDOF 15
ENDMDL