MODEL 4
REMARK VINA RESULT: -4.240429969      1.515      3.179
REMARK  1 active torsions:
REMARK  status: ('A' for Active; 'I' for Inactive)
REMARK       I    between atoms: C2_2  and  N1_4
REMARK    1  A    between atoms: N5_13  and  N6_15
ROOT
HETATM    1  C1  UNL     1      53.586  59.200  68.225  1.00  0.00     0.119 C
HETATM    2  C2  UNL     1      53.576  57.821  67.746  1.00  0.00     0.244 C
HETATM    3  O1  UNL     1      54.673  57.236  67.555  1.00  0.00    -0.272 OA
HETATM    4  N1  UNL     1      52.396  57.073  67.474  1.00  0.00    -0.060 N
HETATM    5  C3  UNL     1      51.089  57.639  67.656  1.00  0.00     0.361 C
HETATM    6  O2  UNL     1      50.966  58.802  68.057  1.00  0.00    -0.244 OA
HETATM    7  N2  UNL     1      49.923  56.848  67.369  1.00  0.00    -0.234 N
ATOM      8  H2  UNL     1      49.023  57.298  67.201  1.00  0.00     0.189 HD
HETATM    9  N3  UNL     1      50.038  55.456  67.325  1.00  0.00    -0.004 NA
HETATM   10  N4  UNL     1      51.228  55.030  66.751  1.00  0.00    -0.114 N
ATOM     11  H4  UNL     1      51.237  54.211  66.143  1.00  0.00     0.203 HD
HETATM   12  C4  UNL     1      52.430  55.735  67.010  1.00  0.00     0.722 C
HETATM   13  N5  UNL     1      53.577  55.171  66.828  1.00  0.00    -0.137 N
ATOM     14  H5  UNL     1      54.422  55.709  67.025  1.00  0.00     0.205 HD
ENDROOT
BRANCH  13  15
HETATM   15  N6  UNL     1      53.713  53.868  66.378  1.00  0.00    -0.331 N
ATOM     16  H62 UNL     1      52.895  53.428  65.957  1.00  0.00     0.177 HD
ATOM     17  H61 UNL     1      54.585  53.344  66.452  1.00  0.00     0.177 HD
ENDBRANCH  13  15
TORSDOF 1
ENDMDL