MODEL 4
REMARK VINA RESULT: -4.548417922      2.226      4.719
REMARK  3 active torsions:
REMARK  status: ('A' for Active; 'I' for Inactive)
REMARK    1  A    between atoms: C2_2  and  C3_3
REMARK       I    between atoms: C3_3  and  N1_5
REMARK    2  A    between atoms: C5_11  and  N4_12
REMARK    3  A    between atoms: N4_12  and  N5_14
ROOT
HETATM    1  C3  UNL     1      51.422  55.581  66.264  1.00  0.00     0.277 C
HETATM    2  O1  UNL     1      50.880  54.725  65.534  1.00  0.00    -0.268 OA
HETATM    3  N1  UNL     1      50.791  56.151  67.395  1.00  0.00    -0.260 N
ATOM      4  H1  UNL     1      51.293  56.847  67.947  1.00  0.00     0.181 HD
HETATM    5  C4  UNL     1      49.486  55.783  67.778  1.00  0.00     0.184 C
HETATM    6  N2  UNL     1      48.403  55.498  68.093  1.00  0.00    -0.172 NA
ENDROOT
BRANCH   1   7
HETATM    7  C2  UNL     1      52.794  56.020  65.926  1.00  0.00     0.203 C
HETATM    8  C1  UNL     1      53.374  55.218  64.792  1.00  0.00     0.071 C
HETATM    9  N3  UNL     1      53.599  55.938  67.125  1.00  0.00    -0.328 N
HETATM   10  C5  UNL     1      54.359  56.972  67.155  1.00  0.00     0.207 C
ATOM     11  H3  UNL     1      53.568  55.193  67.821  1.00  0.00     0.165 HD
HETATM   12  N6  UNL     1      54.107  57.758  66.004  1.00  0.00    -0.271 N
HETATM   13  N7  UNL     1      52.821  57.431  65.561  1.00  0.00    -0.096 NA
ATOM     14  H6  UNL     1      54.741  58.434  65.579  1.00  0.00     0.185 HD
BRANCH  10  15
HETATM   15  N4  UNL     1      55.328  57.288  68.188  1.00  0.00    -0.277 N
ATOM     16  H4  UNL     1      55.199  58.096  68.796  1.00  0.00     0.189 HD
BRANCH  15  17
HETATM   17  N5  UNL     1      56.441  56.460  68.330  1.00  0.00    -0.343 N
ATOM     18  H52 UNL     1      57.213  56.530  67.666  1.00  0.00     0.176 HD
ATOM     19  H51 UNL     1      56.456  55.795  69.104  1.00  0.00     0.176 HD
ENDBRANCH  15  17
ENDBRANCH  10  15
ENDBRANCH   1   7
TORSDOF 3
ENDMDL