MODEL 3
REMARK VINA RESULT: -4.705656927      2.094      5.003
REMARK  3 active torsions:
REMARK  status: ('A' for Active; 'I' for Inactive)
REMARK    1  A    between atoms: N1_1  and  C1_4
REMARK    2  A    between atoms: C2_7  and  C3_8
REMARK       I    between atoms: C3_8  and  N3_10
REMARK    3  A    between atoms: N3_10  and  N4_12
ROOT
HETATM    1  C1  UNL     1      49.829  56.147  68.342  1.00  0.00     0.681 A
HETATM    2  N2  UNL     1      50.663  55.306  67.702  1.00  0.00    -0.171 N
ATOM      3  H2  UNL     1      50.372  54.336  67.580  1.00  0.00     0.186 HD
HETATM    4  C2  UNL     1      51.864  55.682  67.213  1.00  0.00     0.195 A
HETATM    5  N5  UNL     1      52.261  56.969  67.370  1.00  0.00    -0.289 N
ATOM      6  H5  UNL     1      53.163  57.284  67.012  1.00  0.00     0.172 HD
HETATM    7  C4  UNL     1      51.437  57.819  68.008  1.00  0.00     0.340 A
HETATM    8  O2  UNL     1      51.803  59.011  68.153  1.00  0.00    -0.246 OA
HETATM    9  N6  UNL     1      50.239  57.420  68.489  1.00  0.00    -0.141 N
ATOM     10  H6  UNL     1      49.639  58.091  68.967  1.00  0.00     0.189 HD
ENDROOT
BRANCH   4  11
HETATM   11  C3  UNL     1      52.712  54.714  66.529  1.00  0.00     0.304 C
HETATM   12  O1  UNL     1      53.598  54.108  67.149  1.00  0.00    -0.263 OA
HETATM   13  N3  UNL     1      52.520  54.463  65.148  1.00  0.00    -0.270 N
ATOM     14  H3  UNL     1      51.782  54.974  64.663  1.00  0.00     0.189 HD
BRANCH  13  15
HETATM   15  N4  UNL     1      53.282  53.557  64.418  1.00  0.00    -0.342 N
ATOM     16  H42 UNL     1      54.003  53.943  63.807  1.00  0.00     0.176 HD
ATOM     17  H41 UNL     1      53.155  52.546  64.465  1.00  0.00     0.176 HD
ENDBRANCH  13  15
ENDBRANCH   4  11
BRANCH   1  18
HETATM   18  N1  UNL     1      48.673  55.761  68.808  1.00  0.00    -0.234 N
ATOM     19  H12 UNL     1      47.975  56.445  69.100  1.00  0.00     0.174 HD
ATOM     20  H11 UNL     1      48.422  54.777  68.898  1.00  0.00     0.174 HD
ENDBRANCH   1  18
TORSDOF 3
ENDMDL