MODEL 5
REMARK VINA RESULT: -4.421510156      1.840      3.117
REMARK  2 active torsions:
REMARK  status: ('A' for Active; 'I' for Inactive)
REMARK    1  A    between atoms: N1_1  and  C1_4
REMARK    2  A    between atoms: C2_7  and  N3_8
ROOT
HETATM    1  C1  UNL     1      51.791  58.967  68.712  1.00  0.00     0.679 A
HETATM    2  N2  UNL     1      50.684  58.263  68.475  1.00  0.00    -0.176 N
ATOM      3  H2  UNL     1      49.817  58.558  68.924  1.00  0.00     0.186 HD
HETATM    4  C2  UNL     1      50.653  57.181  67.671  1.00  0.00     0.134 A
HETATM    5  C3  UNL     1      51.804  56.772  67.058  1.00  0.00     0.123 A
HETATM    6  C4  UNL     1      51.786  55.662  66.230  1.00  0.00     0.278 A
HETATM    7  O1  UNL     1      50.749  54.991  65.998  1.00  0.00    -0.266 OA
HETATM    8  N4  UNL     1      52.969  55.317  65.657  1.00  0.00    -0.251 N
ATOM      9  H4  UNL     1      53.017  54.509  65.036  1.00  0.00     0.192 HD
HETATM   10  N5  UNL     1      54.059  56.024  65.902  1.00  0.00    -0.238 N
ATOM     11  H5  UNL     1      54.931  55.737  65.457  1.00  0.00     0.208 HD
HETATM   12  N6  UNL     1      54.078  57.086  66.695  1.00  0.00    -0.269 N
ATOM     13  H6  UNL     1      54.951  57.591  66.845  1.00  0.00     0.190 HD
HETATM   14  C5  UNL     1      52.962  57.497  67.298  1.00  0.00     0.156 A
HETATM   15  N7  UNL     1      52.937  58.585  68.123  1.00  0.00    -0.174 N
ATOM     16  H7  UNL     1      53.793  59.111  68.292  1.00  0.00     0.186 HD
ENDROOT
BRANCH   1  17
HETATM   17  N1  UNL     1      51.794  59.999  69.487  1.00  0.00    -0.234 N
ATOM     18  H12 UNL     1      52.683  60.355  69.839  1.00  0.00     0.174 HD
ATOM     19  H11 UNL     1      50.935  60.474  69.759  1.00  0.00     0.174 HD
ENDBRANCH   1  17
BRANCH   4  20
HETATM   20  N3  UNL     1      49.573  56.510  67.451  1.00  0.00    -0.384 N
ATOM     21  H32 UNL     1      48.680  56.944  67.684  1.00  0.00     0.157 HD
ATOM     22  H31 UNL     1      49.581  55.570  67.057  1.00  0.00     0.157 HD
ENDBRANCH   4  20
TORSDOF 2
ENDMDL