MODEL 4
REMARK VINA RESULT: -4.113187043      1.883      2.697
REMARK  1 active torsions:
REMARK  status: ('A' for Active; 'I' for Inactive)
REMARK       I    between atoms: C1_4  and  N3_6
REMARK    1  A    between atoms: N3_6  and  N4_8
ROOT
HETATM    1  N4  UNL     1      52.137  56.791  66.270  1.00  0.00    -0.252 N
HETATM    2  C2  UNL     1      52.525  57.565  67.451  1.00  0.00     0.256 C
HETATM    3  C3  UNL     1      51.274  58.016  68.100  1.00  0.00     0.256 C
HETATM    4  O1  UNL     1      51.141  59.194  68.468  1.00  0.00    -0.270 OA
HETATM    5  N5  UNL     1      50.240  57.058  68.288  1.00  0.00    -0.266 N
ATOM      6  H5  UNL     1      49.549  57.162  69.030  1.00  0.00     0.190 HD
HETATM    7  N6  UNL     1      50.209  55.972  67.417  1.00  0.00    -0.270 N
ATOM      8  H6  UNL     1      49.479  55.268  67.525  1.00  0.00     0.189 HD
HETATM    9  C4  UNL     1      51.097  55.835  66.463  1.00  0.00     0.224 C
HETATM   10  N7  UNL     1      51.033  54.720  65.599  1.00  0.00    -0.060 NA
ENDROOT
BRANCH   1  11
HETATM   11  N3  UNL     1      52.744  56.981  65.048  1.00  0.00    -0.269 N
HETATM   12  C1  UNL     1      53.913  56.275  64.670  1.00  0.00     0.201 C
HETATM   13  N1  UNL     1      54.305  55.303  65.403  1.00  0.00    -0.372 N
HETATM   14  N2  UNL     1      54.661  56.602  63.513  1.00  0.00    -0.062 NA
ATOM     15  H12 UNL     1      55.147  54.794  65.131  1.00  0.00     0.158 HD
ATOM     16  H11 UNL     1      53.766  55.067  66.236  1.00  0.00     0.158 HD
ATOM     17  H3  UNL     1      52.340  57.653  64.394  1.00  0.00     0.190 HD
ENDBRANCH   1  11
TORSDOF 1
ENDMDL