MODEL 4
REMARK VINA RESULT: -4.627598734      2.708      5.037
REMARK  3 active torsions:
REMARK  status: ('A' for Active; 'I' for Inactive)
REMARK    1  A    between atoms: N1_1  and  N2_4
REMARK       I    between atoms: C1_6  and  N4_8
REMARK    2  A    between atoms: N4_8  and  N5_10
REMARK       I    between atoms: C2_12  and  N7_14
REMARK    3  A    between atoms: N7_14  and  N8_16
ROOT
HETATM    1  N2  UNL     1      53.723  55.374  64.790  1.00  0.00    -0.279 N
ATOM      2  H2  UNL     1      54.179  55.011  63.953  1.00  0.00     0.189 HD
HETATM    3  C1  UNL     1      53.625  54.565  65.784  1.00  0.00     0.221 C
HETATM    4  N3  UNL     1      54.176  53.254  65.577  1.00  0.00    -0.061 NA
HETATM    5  N4  UNL     1      53.021  54.910  67.015  1.00  0.00    -0.270 N
ATOM      6  H4  UNL     1      53.595  54.892  67.857  1.00  0.00     0.189 HD
ENDROOT
BRANCH   5   7
HETATM    7  N5  UNL     1      51.685  55.272  67.136  1.00  0.00    -0.270 N
HETATM    8  C2  UNL     1      51.271  56.456  67.371  1.00  0.00     0.226 C
HETATM    9  N6  UNL     1      52.083  57.583  67.542  1.00  0.00    -0.060 NA
HETATM   10  N7  UNL     1      49.847  56.633  67.462  1.00  0.00    -0.212 N
ATOM     11  H7  UNL     1      49.421  57.453  67.029  1.00  0.00     0.196 HD
ATOM     12  H5  UNL     1      50.984  54.538  67.030  1.00  0.00     0.189 HD
BRANCH  10  13
HETATM   13  N8  UNL     1      49.029  55.715  68.126  1.00  0.00    -0.036 N
HETATM   14  O1  UNL     1      49.449  54.830  68.869  1.00  0.00    -0.516 OA
HETATM   15  O2  UNL     1      47.648  55.779  67.957  1.00  0.00    -0.516 OA
ENDBRANCH  10  13
ENDBRANCH   5   7
BRANCH   1  16
HETATM   16  N1  UNL     1      53.284  56.661  64.733  1.00  0.00    -0.343 N
ATOM     17  H12 UNL     1      52.283  56.787  64.884  1.00  0.00     0.176 HD
ATOM     18  H11 UNL     1      53.845  57.495  64.557  1.00  0.00     0.176 HD
ENDBRANCH   1  16
TORSDOF 3
ENDMDL