MODEL 2
REMARK VINA RESULT: -4.334623256      1.859      2.937
REMARK  4 active torsions:
REMARK  status: ('A' for Active; 'I' for Inactive)
REMARK    1  A    between atoms: N1_1  and  C1_4
REMARK    2  A    between atoms: C2_7  and  N3_8
REMARK    3  A    between atoms: N4_11  and  O1_12
REMARK    4  A    between atoms: O1_12  and  C3_13
ROOT
HETATM    1  C1  UNL     1      51.202  58.557  68.455  1.00  0.00     0.694 A
HETATM    2  N2  UNL     1      50.329  57.538  68.515  1.00  0.00    -0.021 N
ATOM      3  H2  UNL     1      49.395  57.660  68.906  1.00  0.00     0.203 HD
HETATM    4  C2  UNL     1      50.736  56.348  68.037  1.00  0.00     0.722 A
HETATM    5  N4  UNL     1      51.976  56.170  67.511  1.00  0.00     0.016 N
HETATM    6  C4  UNL     1      52.828  57.184  67.459  1.00  0.00     0.381 A
HETATM    7  O3  UNL     1      53.973  57.041  66.981  1.00  0.00    -0.243 OA
HETATM    8  N6  UNL     1      52.439  58.372  67.931  1.00  0.00    -0.139 N
ATOM      9  H6  UNL     1      53.088  59.159  67.895  1.00  0.00     0.189 HD
ENDROOT
BRANCH   5  10
HETATM   10  O1  UNL     1      52.268  54.903  67.056  1.00  0.00    -0.157 OA
BRANCH  10  11
HETATM   11  C3  UNL     1      52.105  54.601  65.726  1.00  0.00     0.395 C
HETATM   12  N5  UNL     1      53.190  54.337  64.837  1.00  0.00    -0.031 NA
HETATM   13  O2  UNL     1      50.905  54.563  65.288  1.00  0.00    -0.240 OA
ENDBRANCH  10  11
ENDBRANCH   5  10
BRANCH   4  14
HETATM   14  N3  UNL     1      49.891  55.361  68.094  1.00  0.00    -0.232 N
ATOM     15  H32 UNL     1      49.021  55.388  67.561  1.00  0.00     0.174 HD
ATOM     16  H31 UNL     1      50.135  54.571  68.690  1.00  0.00     0.174 HD
ENDBRANCH   4  14
BRANCH   1  17
HETATM   17  N1  UNL     1      50.861  59.702  68.896  1.00  0.00    -0.234 N
ATOM     18  H12 UNL     1      50.891  59.894  69.898  1.00  0.00     0.174 HD
ATOM     19  H11 UNL     1      50.560  60.424  68.242  1.00  0.00     0.174 HD
ENDBRANCH   1  17
TORSDOF 4
ENDMDL