MODEL 5
REMARK VINA RESULT: -4.511944926      5.921      7.321
REMARK  4 active torsions:
REMARK  status: ('A' for Active; 'I' for Inactive)
REMARK    1  A    between atoms: N1_1  and  N2_4
REMARK       I    between atoms: N2_4  and  C1_6
REMARK       I    between atoms: C1_6  and  N3_8
REMARK    2  A    between atoms: C3_15  and  N6_16
REMARK    3  A    between atoms: N6_16  and  N7_18
REMARK    4  A    between atoms: N7_18  and  O3_20
ROOT
HETATM    1  N2  UNL     1      52.812  61.787  72.919  1.00  0.00    -0.257 N
ATOM      2  H2  UNL     1      52.546  61.238  73.736  1.00  0.00     0.191 HD
HETATM    3  C1  UNL     1      52.106  61.639  71.698  1.00  0.00     0.363 C
HETATM    4  O1  UNL     1      52.488  62.359  70.704  1.00  0.00    -0.244 OA
HETATM    5  N3  UNL     1      51.019  60.768  71.482  1.00  0.00    -0.038 N
HETATM    6  C2  UNL     1      50.499  59.950  72.417  1.00  0.00     0.364 A
HETATM    7  O2  UNL     1      50.846  59.788  73.622  1.00  0.00    -0.244 OA
HETATM    8  N4  UNL     1      49.475  59.274  71.837  1.00  0.00    -0.236 N
ATOM      9  H4  UNL     1      48.896  58.582  72.312  1.00  0.00     0.192 HD
HETATM   10  N5  UNL     1      49.333  59.628  70.601  1.00  0.00    -0.126 N
ATOM     11  H5  UNL     1      48.639  59.274  69.942  1.00  0.00     0.206 HD
HETATM   12  C3  UNL     1      50.298  60.574  70.348  1.00  0.00     0.728 A
ENDROOT
BRANCH  12  13
HETATM   13  N6  UNL     1      50.388  61.085  69.231  1.00  0.00    -0.110 N
ATOM     14  H6  UNL     1      50.658  60.326  68.605  1.00  0.00     0.207 HD
BRANCH  13  15
HETATM   15  N7  UNL     1      50.298  62.139  68.481  1.00  0.00    -0.196 N
ATOM     16  H7  UNL     1      50.525  63.039  68.903  1.00  0.00     0.216 HD
BRANCH  15  17
HETATM   17  O3  UNL     1      49.953  62.135  67.275  1.00  0.00    -0.274 OA
ATOM     18  H3  UNL     1      49.072  61.963  66.963  1.00  0.00     0.246 HD
ENDBRANCH  15  17
ENDBRANCH  13  15
ENDBRANCH  12  13
BRANCH   1  19
HETATM   19  N1  UNL     1      53.871  62.689  72.993  1.00  0.00    -0.341 N
ATOM     20  H12 UNL     1      54.110  63.247  72.174  1.00  0.00     0.177 HD
ATOM     21  H11 UNL     1      54.393  62.779  73.865  1.00  0.00     0.177 HD
ENDBRANCH   1  19
TORSDOF 4
ENDMDL