MODEL 4
REMARK VINA RESULT: -4.470958152      1.816      2.973
REMARK  1 active torsions:
REMARK  status: ('A' for Active; 'I' for Inactive)
REMARK    1  A    between atoms: N1_1  and  C1_4
REMARK       I    between atoms: N3_9  and  C3_10
REMARK       I    between atoms: C3_10  and  N4_11
REMARK       I    between atoms: C3_10  and  N5_15
ROOT
HETATM    1  C1  UNL     1      51.196  58.462  68.496  1.00  0.00     0.683 A
HETATM    2  N2  UNL     1      52.466  58.359  68.080  1.00  0.00    -0.141 N
ATOM      3  H2  UNL     1      53.126  59.111  68.275  1.00  0.00     0.189 HD
HETATM    4  C2  UNL     1      52.880  57.254  67.397  1.00  0.00     0.347 A
HETATM    5  O1  UNL     1      54.070  57.167  67.012  1.00  0.00    -0.246 OA
HETATM    6  N3  UNL     1      52.033  56.250  67.127  1.00  0.00    -0.197 N
HETATM    7  C3  UNL     1      52.455  55.071  66.405  1.00  0.00     0.494 C
HETATM    8  N4  UNL     1      53.680  55.307  65.662  1.00  0.00    -0.032 N
ATOM      9  H41 UNL     1      53.978  54.475  65.152  1.00  0.00     0.279 HD
ATOM     10  H42 UNL     1      54.421  55.657  66.269  1.00  0.00     0.279 HD
ATOM     11  H43 UNL     1      53.589  56.111  65.041  1.00  0.00     0.279 HD
HETATM   12  N5  UNL     1      51.476  54.572  65.495  1.00  0.00    -0.032 N
ATOM     13  H51 UNL     1      51.774  53.740  64.985  1.00  0.00     0.279 HD
ATOM     14  H52 UNL     1      51.182  55.303  64.847  1.00  0.00     0.279 HD
ATOM     15  H53 UNL     1      50.593  54.402  65.975  1.00  0.00     0.279 HD
HETATM   16  C4  UNL     1      50.773  56.351  67.539  1.00  0.00     0.347 A
HETATM   17  O2  UNL     1      49.940  55.447  67.316  1.00  0.00    -0.246 OA
HETATM   18  N6  UNL     1      50.347  57.453  68.223  1.00  0.00    -0.141 N
ATOM     19  H6  UNL     1      49.376  57.513  68.530  1.00  0.00     0.189 HD
ENDROOT
BRANCH   1  20
HETATM   20  N1  UNL     1      50.794  59.493  69.137  1.00  0.00    -0.234 N
ATOM     21  H12 UNL     1      50.190  60.181  68.686  1.00  0.00     0.174 HD
ATOM     22  H11 UNL     1      51.067  59.649  70.107  1.00  0.00     0.174 HD
ENDBRANCH   1  20
TORSDOF 1
ENDMDL