MODEL 2
REMARK VINA RESULT: -4.685529898      3.526      4.831
REMARK  2 active torsions:
REMARK  status: ('A' for Active; 'I' for Inactive)
REMARK    1  A    between atoms: C2_7  and  S1_8
REMARK    2  A    between atoms: S1_8  and  N3_9
ROOT
HETATM    1  N1  UNL     1      48.729  55.691  68.567  1.00  0.00    -0.234 N
ATOM      2  H11 UNL     1      48.051  56.281  69.051  1.00  0.00     0.174 HD
ATOM      3  H12 UNL     1      48.499  54.717  68.369  1.00  0.00     0.174 HD
HETATM    4  C1  UNL     1      49.888  56.112  68.182  1.00  0.00     0.680 A
HETATM    5  N2  UNL     1      50.783  55.333  67.544  1.00  0.00    -0.164 N
ATOM      6  H2  UNL     1      50.536  54.362  67.353  1.00  0.00     0.186 HD
HETATM    7  C2  UNL     1      51.983  55.777  67.148  1.00  0.00     0.240 A
HETATM    8  N4  UNL     1      52.282  57.062  67.412  1.00  0.00    -0.305 N
ATOM      9  H4  UNL     1      53.184  57.442  67.128  1.00  0.00     0.170 HD
HETATM   10  C3  UNL     1      51.385  57.856  68.056  1.00  0.00     0.208 A
HETATM   11  N5  UNL     1      51.729  59.192  68.317  1.00  0.00    -0.063 NA
HETATM   12  N6  UNL     1      50.191  57.397  68.445  1.00  0.00    -0.163 N
ATOM     13  H6  UNL     1      49.528  58.003  68.927  1.00  0.00     0.187 HD
ENDROOT
BRANCH   7  14
HETATM   14  S1  UNL     1      53.150  54.768  66.318  1.00  0.00     0.289 S
HETATM   15  O1  UNL     1      52.492  54.112  65.141  1.00  0.00    -0.198 OA
HETATM   16  O2  UNL     1      53.775  53.763  67.244  1.00  0.00    -0.198 OA
BRANCH  14  17
HETATM   17  N3  UNL     1      54.431  55.824  65.779  1.00  0.00    -0.322 N
ATOM     18  H32 UNL     1      55.007  55.690  64.947  1.00  0.00     0.169 HD
ATOM     19  H31 UNL     1      54.485  56.588  66.453  1.00  0.00     0.169 HD
ENDBRANCH  14  17
ENDBRANCH   7  14
TORSDOF 2
ENDMDL