MODEL 4
REMARK VINA RESULT: -6.529794153      2.667      3.574
REMARK  8 active torsions:
REMARK  status: ('A' for Active; 'I' for Inactive)
REMARK    1  A    between atoms: N1_2  and  C2_3
REMARK    2  A    between atoms: N1_2  and  C12_36
REMARK    3  A    between atoms: C2_3  and  N2_4
REMARK    4  A    between atoms: N2_4  and  C3_6
REMARK       I    between atoms: N7_19  and  C8_21
REMARK       I    between atoms: C8_21  and  N8_22
REMARK       I    between atoms: C8_21  and  N9_26
REMARK    5  A    between atoms: C12_36  and  C13_37
REMARK       I    between atoms: C13_37  and  N12_39
REMARK    6  A    between atoms: N12_39  and  C14_41
REMARK    7  A    between atoms: C14_41  and  C15_42
REMARK    8  A    between atoms: C15_42  and  O2_43
ROOT
HETATM    1  C3  UNL     1      34.951  33.340  26.633  1.00  0.00     0.137 A
HETATM    2  N3  UNL     1      33.725  33.709  27.039  1.00  0.00    -0.337 N
ATOM      3  H3  UNL     1      33.331  34.559  26.633  1.00  0.00     0.168 HD
HETATM    4  C4  UNL     1      32.980  33.050  27.933  1.00  0.00     0.183 A
HETATM    5  N4  UNL     1      33.497  31.933  28.469  1.00  0.00    -0.337 N
ATOM      6  H4  UNL     1      32.960  31.402  29.156  1.00  0.00     0.168 HD
HETATM    7  C5  UNL     1      34.718  31.511  28.103  1.00  0.00     0.139 A
HETATM    8  N5  UNL     1      35.194  30.393  28.661  1.00  0.00    -0.323 N
ATOM      9  H5  UNL     1      34.634  29.884  29.345  1.00  0.00     0.169 HD
HETATM   10  C6  UNL     1      36.402  29.945  28.324  1.00  0.00     0.168 A
HETATM   11  N6  UNL     1      37.060  28.867  28.753  1.00  0.00    -0.173 N
ATOM     12  H6  UNL     1      36.732  28.185  29.437  1.00  0.00     0.186 HD
HETATM   13  C7  UNL     1      38.249  28.856  28.105  1.00  0.00     0.686 A
HETATM   14  N7  UNL     1      39.207  28.008  28.203  1.00  0.00    -0.173 N
ATOM     15  H7  UNL     1      40.035  28.167  27.630  1.00  0.00     0.181 HD
HETATM   16  C8  UNL     1      39.205  26.861  29.052  1.00  0.00     0.494 C
HETATM   17  N8  UNL     1      38.086  25.981  28.902  1.00  0.00    -0.032 N
ATOM     18  H81 UNL     1      38.084  25.161  29.508  1.00  0.00     0.278 HD
ATOM     19  H82 UNL     1      37.998  25.693  27.927  1.00  0.00     0.278 HD
ATOM     20  H83 UNL     1      37.216  26.500  29.017  1.00  0.00     0.278 HD
HETATM   21  N9  UNL     1      39.333  27.189  30.457  1.00  0.00    -0.032 N
ATOM     22  H91 UNL     1      39.331  26.370  31.064  1.00  0.00     0.278 HD
ATOM     23  H92 UNL     1      38.612  27.852  30.742  1.00  0.00     0.278 HD
ATOM     24  H93 UNL     1      40.162  27.761  30.622  1.00  0.00     0.278 HD
HETATM   25  N10 UNL     1      38.311  29.922  27.287  1.00  0.00    -0.169 N
HETATM   26  C9  UNL     1      39.423  30.275  26.415  1.00  0.00     0.177 C
HETATM   27  C10 UNL     1      37.161  30.640  27.394  1.00  0.00     0.169 A
HETATM   28  N11 UNL     1      36.710  31.766  26.815  1.00  0.00    -0.333 N
ATOM     29  H11 UNL     1      37.271  32.275  26.132  1.00  0.00     0.168 HD
HETATM   30  C11 UNL     1      35.478  32.195  27.181  1.00  0.00     0.123 A
ENDROOT
BRANCH   1  31
HETATM   31  N2  UNL     1      35.525  34.066  25.785  1.00  0.00    -0.341 N
ATOM     32  H2  UNL     1      35.223  33.891  24.826  1.00  0.00     0.167 HD
BRANCH  31  33
HETATM   33  C2  UNL     1      36.502  35.074  25.896  1.00  0.00     0.152 C
BRANCH  33  34
HETATM   34  N1  UNL     1      35.981  36.419  25.904  1.00  0.00    -0.275 NA
HETATM   35  C1  UNL     1      35.627  36.893  24.590  1.00  0.00     0.118 C
BRANCH  34  36
HETATM   36  C12 UNL     1      36.839  37.342  26.610  1.00  0.00     0.198 C
BRANCH  36  37
HETATM   37  C13 UNL     1      36.031  38.408  27.235  1.00  0.00     0.231 C
HETATM   38  O1  UNL     1      34.947  38.124  27.772  1.00  0.00    -0.272 OA
HETATM   39  N12 UNL     1      36.487  39.735  27.221  1.00  0.00    -0.358 N
ATOM     40  H12 UNL     1      37.380  39.959  26.779  1.00  0.00     0.162 HD
BRANCH  39  41
HETATM   41  C14 UNL     1      35.712  40.776  27.820  1.00  0.00     0.148 C
BRANCH  41  42
HETATM   42  C15 UNL     1      35.899  42.137  27.234  1.00  0.00     0.183 C
BRANCH  42  43
HETATM   43  O2  UNL     1      36.421  42.080  25.932  1.00  0.00    -0.399 OA
ATOM     44  H2  UNL     1      37.131  42.700  25.808  1.00  0.00     0.209 HD
ENDBRANCH  42  43
ENDBRANCH  41  42
ENDBRANCH  39  41
ENDBRANCH  36  37
ENDBRANCH  34  36
ENDBRANCH  33  34
ENDBRANCH  31  33
ENDBRANCH   1  31
TORSDOF 8
ENDMDL