MODEL 2
REMARK VINA RESULT: -5.928499412      3.748      7.884
REMARK  9 active torsions:
REMARK  status: ('A' for Active; 'I' for Inactive)
REMARK    1  A    between atoms: C2_5  and  N3_6
REMARK    2  A    between atoms: C2_5  and  C8_19
REMARK    3  A    between atoms: C6_11  and  C7_12
REMARK    4  A    between atoms: C8_19  and  C9_20
REMARK    5  A    between atoms: C8_19  and  N7_23
REMARK    6  A    between atoms: C9_20  and  O3_21
REMARK    7  A    between atoms: N7_23  and  C10_25
REMARK    8  A    between atoms: C11_28  and  S1_29
REMARK    9  A    between atoms: S1_29  and  N9_30
ROOT
HETATM    1  C1  UNL     1      40.671  38.359  24.900  1.00  0.00     0.258 C
HETATM    2  N1  UNL     1      39.870  37.567  24.593  1.00  0.00    -0.349 NA
HETATM    3  N2  UNL     1      38.925  36.670  24.239  1.00  0.00    -0.223 N
ATOM      4  H2  UNL     1      39.185  35.731  23.934  1.00  0.00     0.203 HD
HETATM    5  C2  UNL     1      37.655  37.036  24.298  1.00  0.00     0.134 C
ENDROOT
BRANCH   5   6
HETATM    6  N3  UNL     1      37.378  38.299  24.711  1.00  0.00    -0.328 N
HETATM    7  C3  UNL     1      37.076  38.986  25.692  1.00  0.00     0.119 C
HETATM    8  C4  UNL     1      36.888  38.446  27.029  1.00  0.00     0.048 C
HETATM    9  N6  UNL     1      36.924  40.403  25.426  1.00  0.00    -0.273 N
HETATM   10  C5  UNL     1      36.741  39.080  28.212  1.00  0.00     0.010 C
HETATM   11  C6  UNL     1      36.751  40.563  28.349  1.00  0.00     0.220 C
HETATM   12  N4  UNL     1      35.800  41.062  27.373  1.00  0.00    -0.106 NA
HETATM   13  N5  UNL     1      36.402  41.449  26.177  1.00  0.00    -0.029 NA
ATOM     14  H6  UNL     1      37.266  40.688  24.509  1.00  0.00     0.185 HD
ATOM     15  H3  UNL     1      37.445  38.916  23.902  1.00  0.00     0.169 HD
BRANCH  11  16
HETATM   16  C7  UNL     1      36.444  41.004  29.714  1.00  0.00     0.198 C
HETATM   17  O1  UNL     1      35.779  40.221  30.479  1.00  0.00    -0.646 OA
HETATM   18  O2  UNL     1      36.818  42.212  30.248  1.00  0.00    -0.646 OA
ENDBRANCH  11  16
ENDBRANCH   5   6
BRANCH   5  19
HETATM   19  C8  UNL     1      36.596  36.082  23.928  1.00  0.00     0.178 C
BRANCH  19  20
HETATM   20  C9  UNL     1      35.575  36.817  23.068  1.00  0.00     0.197 C
BRANCH  20  21
HETATM   21  O3  UNL     1      35.232  36.055  21.937  1.00  0.00    -0.398 OA
ATOM     22  H3  UNL     1      34.591  35.390  22.160  1.00  0.00     0.209 HD
ENDBRANCH  20  21
ENDBRANCH  19  20
BRANCH  19  23
HETATM   23  N7  UNL     1      35.854  35.597  25.072  1.00  0.00    -0.341 N
ATOM     24  H7  UNL     1      35.111  36.197  25.432  1.00  0.00     0.164 HD
BRANCH  23  25
HETATM   25  C10 UNL     1      36.044  34.498  25.664  1.00  0.00     0.246 A
HETATM   26  N8  UNL     1      35.109  33.667  26.121  1.00  0.00    -0.294 N
HETATM   27  C11 UNL     1      35.746  32.615  26.683  1.00  0.00     0.247 A
ATOM     28  H8  UNL     1      34.099  33.800  26.059  1.00  0.00     0.171 HD
HETATM   29  N10 UNL     1      37.047  32.823  26.558  1.00  0.00    -0.230 N
HETATM   30  O6  UNL     1      37.202  33.968  25.940  1.00  0.00    -0.199 OA
ATOM     31  H10 UNL     1      37.792  32.207  26.883  1.00  0.00     0.197 HD
BRANCH  27  32
HETATM   32  S1  UNL     1      34.998  31.230  27.443  1.00  0.00     0.290 S
HETATM   33  O4  UNL     1      33.651  31.654  27.956  1.00  0.00    -0.198 OA
HETATM   34  O5  UNL     1      34.800  30.127  26.422  1.00  0.00    -0.198 OA
BRANCH  32  35
HETATM   35  N9  UNL     1      35.990  30.615  28.703  1.00  0.00    -0.322 N
ATOM     36  H92 UNL     1      36.968  30.353  28.578  1.00  0.00     0.169 HD
ATOM     37  H91 UNL     1      35.468  30.553  29.577  1.00  0.00     0.169 HD
ENDBRANCH  32  35
ENDBRANCH  27  32
ENDBRANCH  23  25
ENDBRANCH  19  23
ENDBRANCH   5  19
TORSDOF 9
ENDMDL