MODEL 1
REMARK VINA RESULT: -6.048142136      0.000      0.000
REMARK  10 active torsions:
REMARK  status: ('A' for Active; 'I' for Inactive)
REMARK    1  A    between atoms: C1_2  and  C2_4
REMARK    2  A    between atoms: C2_4  and  C13_35
REMARK    3  A    between atoms: C3_5  and  C4_6
REMARK    4  A    between atoms: C5_8  and  N2_9
REMARK    5  A    between atoms: C6_12  and  C7_13
REMARK    6  A    between atoms: C8_18  and  C9_19
REMARK    7  A    between atoms: C9_19  and  N6_20
REMARK    8  A    between atoms: C9_19  and  N7_24
REMARK    9  A    between atoms: C11_29  and  O4_30
REMARK   10  A    between atoms: C11_29  and  C12_32
ROOT
HETATM    1  N2  UNL     1      35.941  34.346  25.880  1.00  0.00    -0.245 N
HETATM    2  N3  UNL     1      34.762  34.120  26.423  1.00  0.00    -0.275 N
ATOM      3  H3  UNL     1      33.977  34.769  26.386  1.00  0.00     0.189 HD
HETATM    4  C6  UNL     1      34.730  32.943  27.022  1.00  0.00     0.188 A
HETATM    5  N5  UNL     1      35.946  32.402  26.849  1.00  0.00    -0.322 N
ATOM      6  H5  UNL     1      36.251  31.491  27.192  1.00  0.00     0.169 HD
HETATM    7  C8  UNL     1      36.699  33.279  26.138  1.00  0.00     0.161 A
ENDROOT
BRANCH   1   8
HETATM    8  C5  UNL     1      36.269  35.566  25.161  1.00  0.00     0.250 C
HETATM    9  O2  UNL     1      35.503  36.584  25.671  1.00  0.00    -0.352 OA
HETATM   10  C4  UNL     1      36.258  37.735  25.872  1.00  0.00     0.193 C
HETATM   11  C11 UNL     1      37.595  37.497  25.223  1.00  0.00     0.179 C
HETATM   12  C10 UNL     1      37.669  35.987  25.297  1.00  0.00     0.108 C
BRANCH  10  13
HETATM   13  C3  UNL     1      36.390  38.051  27.295  1.00  0.00     0.032 C
HETATM   14  C2  UNL     1      36.517  39.225  27.872  1.00  0.00     0.104 C
BRANCH  14  15
HETATM   15  C1  UNL     1      36.635  39.281  29.353  1.00  0.00     0.271 C
HETATM   16  N1  UNL     1      37.747  38.667  29.946  1.00  0.00    -0.057 NA
HETATM   17  O1  UNL     1      35.771  39.853  30.014  1.00  0.00    -0.271 OA
ENDBRANCH  14  15
BRANCH  14  18
HETATM   18  C13 UNL     1      36.555  40.505  27.207  1.00  0.00     0.214 C
HETATM   19  O7  UNL     1      35.638  41.329  27.290  1.00  0.00    -0.644 OA
HETATM   20  O8  UNL     1      37.657  40.843  26.437  1.00  0.00    -0.644 OA
ENDBRANCH  14  18
ENDBRANCH  10  13
BRANCH  11  21
HETATM   21  O4  UNL     1      38.664  38.067  25.915  1.00  0.00    -0.376 OA
ATOM     22  H4  UNL     1      39.245  38.580  25.366  1.00  0.00     0.211 HD
ENDBRANCH  11  21
BRANCH  11  23
HETATM   23  C12 UNL     1      37.565  37.935  23.806  1.00  0.00     0.212 C
HETATM   24  O5  UNL     1      38.364  37.482  22.954  1.00  0.00    -0.646 OA
HETATM   25  O6  UNL     1      36.643  38.876  23.350  1.00  0.00    -0.646 OA
ENDBRANCH  11  23
ENDBRANCH   1   8
BRANCH   7  26
HETATM   26  C9  UNL     1      38.090  33.052  25.738  1.00  0.00     0.446 C
BRANCH  26  27
HETATM   27  N6  UNL     1      38.307  31.831  24.989  1.00  0.00    -0.043 N
ATOM     28  H63 UNL     1      37.680  31.790  24.186  1.00  0.00     0.277 HD
ATOM     29  H62 UNL     1      39.206  31.865  24.507  1.00  0.00     0.277 HD
ATOM     30  H61 UNL     1      38.233  30.977  25.543  1.00  0.00     0.277 HD
ENDBRANCH  26  27
BRANCH  26  31
HETATM   31  N7  UNL     1      38.911  32.886  26.955  1.00  0.00    -0.043 N
ATOM     32  H73 UNL     1      39.284  33.771  27.297  1.00  0.00     0.277 HD
ATOM     33  H72 UNL     1      38.352  32.643  27.772  1.00  0.00     0.277 HD
ATOM     34  H71 UNL     1      39.643  32.201  26.764  1.00  0.00     0.277 HD
ENDBRANCH  26  31
ENDBRANCH   7  26
BRANCH   4  35
HETATM   35  C7  UNL     1      33.601  32.325  27.742  1.00  0.00     0.300 C
HETATM   36  N4  UNL     1      32.270  32.516  27.287  1.00  0.00    -0.054 NA
HETATM   37  O3  UNL     1      33.810  31.633  28.754  1.00  0.00    -0.268 OA
ENDBRANCH   4  35
TORSDOF 10
ENDMDL