MODEL 5
REMARK VINA RESULT: -5.700332193      3.403      7.615
REMARK  10 active torsions:
REMARK  status: ('A' for Active; 'I' for Inactive)
REMARK    1  A    between atoms: O1_2  and  N1_3
REMARK    2  A    between atoms: C5_9  and  O3_10
REMARK    3  A    between atoms: C5_9  and  C6_12
REMARK    4  A    between atoms: C6_12  and  O4_13
REMARK    5  A    between atoms: C6_12  and  C7_15
REMARK    6  A    between atoms: C7_15  and  N3_16
REMARK    7  A    between atoms: N3_16  and  S1_18
REMARK    8  A    between atoms: S1_18  and  O7_21
REMARK    9  A    between atoms: O7_21  and  C8_22
REMARK   10  A    between atoms: C10_27  and  N6_28
ROOT
HETATM    1  N3  UNL     1      37.841  35.549  25.504  1.00  0.00    -0.294 N
ATOM      2  H3  UNL     1      37.375  36.427  25.734  1.00  0.00     0.174 HD
ENDROOT
BRANCH   1   3
HETATM    3  C7  UNL     1      37.643  34.344  26.243  1.00  0.00     0.171 C
BRANCH   3   4
HETATM    4  C6  UNL     1      36.210  33.901  26.293  1.00  0.00     0.196 C
BRANCH   4   5
HETATM    5  C5  UNL     1      36.090  32.409  26.072  1.00  0.00     0.206 C
HETATM    6  N1  UNL     1      36.213  31.634  27.273  1.00  0.00    -0.167 N
HETATM    7  C2  UNL     1      34.899  31.588  27.829  1.00  0.00     0.347 C
HETATM    8  O2  UNL     1      34.585  31.102  28.949  1.00  0.00    -0.245 OA
HETATM    9  N2  UNL     1      33.973  32.180  26.927  1.00  0.00    -0.332 N
HETATM   10  C3  UNL     1      32.646  32.672  27.275  1.00  0.00     0.154 C
HETATM   11  C4  UNL     1      34.638  32.170  25.637  1.00  0.00     0.193 C
BRANCH   6  12
HETATM   12  O1  UNL     1      37.334  31.090  27.742  1.00  0.00    -0.276 OA
HETATM   13  C1  UNL     1      37.400  29.712  27.571  1.00  0.00     0.238 C
ENDBRANCH   6  12
BRANCH   5  14
HETATM   14  O3  UNL     1      36.886  31.960  25.039  1.00  0.00    -0.365 OA
ATOM     15  H3  UNL     1      37.768  32.312  25.055  1.00  0.00     0.212 HD
ENDBRANCH   5  14
ENDBRANCH   4   5
BRANCH   4  16
HETATM   16  O4  UNL     1      35.560  34.492  25.181  1.00  0.00    -0.389 OA
ATOM     17  H4  UNL     1      35.794  35.412  25.218  1.00  0.00     0.210 HD
ENDBRANCH   4  16
ENDBRANCH   3   4
ENDBRANCH   1   3
BRANCH   1  18
HETATM   18  S1  UNL     1      38.927  35.386  24.201  1.00  0.00     0.363 S
HETATM   19  O5  UNL     1      38.738  34.028  23.572  1.00  0.00    -0.175 OA
HETATM   20  O6  UNL     1      40.362  35.471  24.635  1.00  0.00    -0.175 OA
BRANCH  18  21
HETATM   21  O7  UNL     1      38.692  36.578  23.015  1.00  0.00    -0.207 OA
BRANCH  21  22
HETATM   22  C8  UNL     1      38.029  36.293  21.829  1.00  0.00     0.200 A
HETATM   23  C9  UNL     1      38.722  36.006  20.652  1.00  0.00     0.172 A
HETATM   24  N4  UNL     1      40.140  36.003  20.650  1.00  0.00    -0.079 NA
HETATM   25  N5  UNL     1      38.008  35.740  19.539  1.00  0.00    -0.176 N
HETATM   26  C10 UNL     1      36.666  35.745  19.540  1.00  0.00     0.680 A
ATOM     27  H5  UNL     1      38.502  35.528  18.673  1.00  0.00     0.185 HD
HETATM   28  N7  UNL     1      36.024  36.022  20.676  1.00  0.00    -0.154 N
HETATM   29  C11 UNL     1      36.653  36.299  21.831  1.00  0.00     0.298 A
ATOM     30  H7  UNL     1      35.004  36.023  20.669  1.00  0.00     0.187 HD
HETATM   31  O8  UNL     1      36.002  36.559  22.891  1.00  0.00    -0.264 OA
BRANCH  26  32
HETATM   32  N6  UNL     1      36.000  35.487  18.446  1.00  0.00    -0.234 N
ATOM     33  H62 UNL     1      36.486  35.193  17.599  1.00  0.00     0.174 HD
ATOM     34  H61 UNL     1      34.984  35.575  18.424  1.00  0.00     0.174 HD
ENDBRANCH  26  32
ENDBRANCH  21  22
ENDBRANCH  18  21
ENDBRANCH   1  18
TORSDOF 10
ENDMDL