MODEL 4
REMARK VINA RESULT: -4.804447283      3.458      6.059
REMARK  10 active torsions:
REMARK  status: ('A' for Active; 'I' for Inactive)
REMARK    1  A    between atoms: C2_3  and  N2_4
REMARK    2  A    between atoms: N4_11  and  C4_12
REMARK    3  A    between atoms: C4_12  and  C5_13
REMARK    4  A    between atoms: C6_17  and  N7_18
REMARK    5  A    between atoms: N8_21  and  C7_22
REMARK    6  A    between atoms: C7_22  and  C8_23
REMARK    7  A    between atoms: C10_27  and  C11_28
REMARK    8  A    between atoms: C11_28  and  N9_29
REMARK    9  A    between atoms: C12_33  and  O4_34
REMARK   10  A    between atoms: C12_33  and  C13_36
ROOT
HETATM    1  C13 UNL     1      35.769  36.991  23.793  1.00  0.00     0.164 C
HETATM    2  C14 UNL     1      35.693  36.458  22.463  1.00  0.00     0.062 C
HETATM    3  N10 UNL     1      35.635  36.052  21.383  1.00  0.00    -0.197 NA
ENDROOT
BRANCH   1   4
HETATM    4  C12 UNL     1      36.183  36.003  24.861  1.00  0.00     0.106 C
HETATM    5  C5  UNL     1      37.650  35.817  24.762  1.00  0.00     0.166 C
HETATM    6  N5  UNL     1      38.199  36.840  25.675  1.00  0.00    -0.255 N
HETATM    7  N6  UNL     1      39.283  37.500  25.947  1.00  0.00    -0.128 N
HETATM    8  C9  UNL     1      37.254  37.250  26.548  1.00  0.00     0.127 A
HETATM    9  C6  UNL     1      39.102  38.338  26.972  1.00  0.00     0.694 A
ATOM     10  H6  UNL     1      40.163  37.393  25.442  1.00  0.00     0.206 HD
HETATM   11  N8  UNL     1      37.799  38.173  27.352  1.00  0.00    -0.159 N
HETATM   12  C10 UNL     1      36.001  36.486  26.249  1.00  0.00     0.118 C
BRANCH   5  13
HETATM   13  C4  UNL     1      38.294  34.521  25.002  1.00  0.00     0.185 C
BRANCH  13  14
HETATM   14  N4  UNL     1      39.485  34.156  24.332  1.00  0.00    -0.224 N
HETATM   15  N1  UNL     1      40.689  34.065  24.933  1.00  0.00    -0.122 N
HETATM   16  C1  UNL     1      40.983  34.274  26.342  1.00  0.00     0.198 C
HETATM   17  C2  UNL     1      41.631  33.743  24.036  1.00  0.00     0.696 A
HETATM   18  N3  UNL     1      41.018  33.631  22.862  1.00  0.00    -0.139 N
HETATM   19  C3  UNL     1      39.687  33.885  23.039  1.00  0.00     0.356 A
ATOM     20  H3  UNL     1      41.467  33.395  21.977  1.00  0.00     0.189 HD
HETATM   21  O1  UNL     1      38.905  33.829  22.058  1.00  0.00    -0.244 OA
BRANCH  17  22
HETATM   22  N2  UNL     1      42.891  33.569  24.232  1.00  0.00    -0.233 N
ATOM     23  H22 UNL     1      43.375  33.734  25.114  1.00  0.00     0.174 HD
ATOM     24  H21 UNL     1      43.595  33.249  23.567  1.00  0.00     0.174 HD
ENDBRANCH  17  22
ENDBRANCH  13  14
ENDBRANCH   5  13
BRANCH   9  25
HETATM   25  N7  UNL     1      39.921  39.144  27.525  1.00  0.00    -0.233 N
ATOM     26  H72 UNL     1      40.271  40.000  27.095  1.00  0.00     0.174 HD
ATOM     27  H71 UNL     1      40.363  39.100  28.443  1.00  0.00     0.174 HD
ENDBRANCH   9  25
BRANCH  11  28
HETATM   28  C7  UNL     1      37.192  38.921  28.462  1.00  0.00     0.262 C
BRANCH  28  29
HETATM   29  C8  UNL     1      36.577  40.156  27.933  1.00  0.00     0.192 C
HETATM   30  O2  UNL     1      35.336  40.323  28.053  1.00  0.00    -0.647 OA
HETATM   31  O3  UNL     1      37.299  41.160  27.303  1.00  0.00    -0.647 OA
ENDBRANCH  28  29
ENDBRANCH  11  28
BRANCH  12  32
HETATM   32  C11 UNL     1      34.826  37.271  26.611  1.00  0.00     0.245 C
BRANCH  32  33
HETATM   33  N9  UNL     1      33.620  36.480  26.838  1.00  0.00    -0.079 N
ATOM     34  H93 UNL     1      33.278  36.092  25.958  1.00  0.00     0.274 HD
ATOM     35  H92 UNL     1      33.848  35.618  27.332  1.00  0.00     0.274 HD
ATOM     36  H91 UNL     1      32.873  36.981  27.320  1.00  0.00     0.274 HD
ENDBRANCH  32  33
ENDBRANCH  12  32
BRANCH   4  37
HETATM   37  O4  UNL     1      35.432  34.878  24.627  1.00  0.00    -0.386 OA
ATOM     38  H4  UNL     1      35.917  34.125  24.312  1.00  0.00     0.210 HD
ENDBRANCH   4  37
ENDBRANCH   1   4
TORSDOF 10
ENDMDL