MODEL 1
REMARK VINA RESULT: -5.301679232      0.000      0.000
REMARK  10 active torsions:
REMARK  status: ('A' for Active; 'I' for Inactive)
REMARK    1  A    between atoms: N1_1  and  C1_4
REMARK    2  A    between atoms: C2_7  and  S1_8
REMARK    3  A    between atoms: S1_8  and  N3_9
REMARK    4  A    between atoms: N4_13  and  C3_14
REMARK    5  A    between atoms: C5_19  and  N6_20
REMARK    6  A    between atoms: N6_20  and  S2_22
REMARK    7  A    between atoms: S2_22  and  C6_25
REMARK    8  A    between atoms: C6_25  and  C7_26
REMARK    9  A    between atoms: C7_26  and  N7_27
REMARK   10  A    between atoms: C9_32  and  O4_33
ROOT
HETATM    1  C3  UNL     1      37.035  37.022  25.212  1.00  0.00     0.325 C
HETATM    2  N5  UNL     1      37.783  36.361  26.272  1.00  0.00    -0.049 N
ATOM      3  H51 UNL     1      37.301  36.445  27.167  1.00  0.00     0.279 HD
ATOM      4  H52 UNL     1      38.634  36.877  26.495  1.00  0.00     0.279 HD
HETATM    5  C4  UNL     1      38.075  34.993  25.971  1.00  0.00     0.260 C
HETATM    6  C5  UNL     1      36.804  34.153  25.737  1.00  0.00     0.121 C
HETATM    7  C8  UNL     1      35.664  35.105  26.061  1.00  0.00     0.063 C
HETATM    8  C9  UNL     1      35.689  36.326  25.179  1.00  0.00     0.171 C
ENDROOT
BRANCH   1   9
HETATM    9  N4  UNL     1      37.009  38.409  25.474  1.00  0.00    -0.243 N
HETATM   10  C2  UNL     1      37.227  39.259  24.460  1.00  0.00     0.218 A
HETATM   11  N2  UNL     1      37.196  40.609  24.715  1.00  0.00    -0.166 N
HETATM   12  C1  UNL     1      36.957  41.105  25.935  1.00  0.00     0.682 A
ATOM     13  H2  UNL     1      37.361  41.258  23.945  1.00  0.00     0.186 HD
HETATM   14  N8  UNL     1      36.740  40.252  26.942  1.00  0.00    -0.141 N
HETATM   15  C10 UNL     1      36.773  38.933  26.677  1.00  0.00     0.344 A
ATOM     16  H8  UNL     1      36.554  40.591  27.885  1.00  0.00     0.189 HD
HETATM   17  O5  UNL     1      36.568  38.166  27.639  1.00  0.00    -0.246 OA
BRANCH  10  18
HETATM   18  S1  UNL     1      37.540  38.786  22.884  1.00  0.00     0.180 S
HETATM   19  O1  UNL     1      36.650  37.813  22.011  1.00  0.00    -0.227 OA
BRANCH  18  20
HETATM   20  N3  UNL     1      38.076  40.135  21.953  1.00  0.00    -0.343 N
ATOM     21  H32 UNL     1      37.710  41.009  22.332  1.00  0.00     0.167 HD
ATOM     22  H31 UNL     1      39.027  39.977  21.619  1.00  0.00     0.167 HD
ENDBRANCH  18  20
ENDBRANCH  10  18
BRANCH  12  23
HETATM   23  N1  UNL     1      36.922  42.365  26.198  1.00  0.00    -0.234 N
ATOM     24  H12 UNL     1      36.013  42.826  26.199  1.00  0.00     0.174 HD
ATOM     25  H11 UNL     1      37.751  42.922  26.404  1.00  0.00     0.174 HD
ENDBRANCH  12  23
ENDBRANCH   1   9
BRANCH   8  26
HETATM   26  O4  UNL     1      35.425  35.820  23.880  1.00  0.00    -0.392 OA
ATOM     27  H4  UNL     1      35.714  34.918  23.811  1.00  0.00     0.210 HD
ENDBRANCH   8  26
BRANCH   6  28
HETATM   28  N6  UNL     1      36.735  33.077  26.672  1.00  0.00    -0.313 N
ATOM     29  H6  UNL     1      37.428  32.942  27.409  1.00  0.00     0.172 HD
BRANCH  28  30
HETATM   30  S2  UNL     1      35.421  32.048  26.463  1.00  0.00     0.228 S
HETATM   31  O2  UNL     1      36.008  30.638  26.226  1.00  0.00    -0.206 OA
HETATM   32  O3  UNL     1      34.652  32.417  25.176  1.00  0.00    -0.206 OA
BRANCH  30  33
HETATM   33  C6  UNL     1      34.250  31.931  27.735  1.00  0.00     0.190 C
BRANCH  33  34
HETATM   34  C7  UNL     1      33.227  33.008  27.845  1.00  0.00     0.246 C
BRANCH  34  35
HETATM   35  N7  UNL     1      32.236  32.811  26.761  1.00  0.00    -0.078 N
ATOM     36  H73 UNL     1      32.438  33.375  25.936  1.00  0.00     0.274 HD
ATOM     37  H72 UNL     1      32.309  31.894  26.321  1.00  0.00     0.274 HD
ATOM     38  H71 UNL     1      31.308  32.992  27.145  1.00  0.00     0.274 HD
ENDBRANCH  34  35
ENDBRANCH  33  34
ENDBRANCH  30  33
ENDBRANCH  28  30
ENDBRANCH   6  28
TORSDOF 10
ENDMDL