MODEL 2
REMARK VINA RESULT: -5.709549085      1.492      1.879
REMARK  9 active torsions:
REMARK  status: ('A' for Active; 'I' for Inactive)
REMARK    1  A    between atoms: N1_1  and  C1_5
REMARK    2  A    between atoms: C1_5  and  C2_6
REMARK    3  A    between atoms: C1_5  and  C11_28
REMARK       I    between atoms: C2_6  and  N2_8
REMARK    4  A    between atoms: C4_11  and  C5_12
REMARK    5  A    between atoms: C5_12  and  O2_13
REMARK    6  A    between atoms: C5_12  and  O3_15
REMARK    7  A    between atoms: C7_19  and  C8_20
REMARK    8  A    between atoms: C7_19  and  C9_23
REMARK    9  A    between atoms: C9_23  and  C10_25
ROOT
HETATM    1  C2  UNL     1      36.273  38.238  23.530  1.00  0.00     0.260 C
HETATM    2  O1  UNL     1      35.228  37.568  23.266  1.00  0.00    -0.270 OA
HETATM    3  N2  UNL     1      36.425  38.731  24.825  1.00  0.00    -0.329 N
ATOM      4  H2  UNL     1      36.016  39.643  25.031  1.00  0.00     0.168 HD
HETATM    5  C3  UNL     1      37.052  38.114  25.805  1.00  0.00     0.036 C
HETATM    6  C4  UNL     1      37.656  36.803  25.569  1.00  0.00     0.149 C
HETATM    7  S1  UNL     1      39.016  36.835  26.805  1.00  0.00    -0.151 SA
HETATM    8  C6  UNL     1      38.131  37.889  27.985  1.00  0.00     0.110 C
HETATM    9  C7  UNL     1      37.167  38.702  27.123  1.00  0.00     0.167 C
ENDROOT
BRANCH   6  10
HETATM   10  C5  UNL     1      36.805  35.613  25.836  1.00  0.00     0.273 C
BRANCH  10  11
HETATM   11  O2  UNL     1      37.025  34.589  24.925  1.00  0.00    -0.370 OA
ATOM     12  H2  UNL     1      36.359  33.914  24.970  1.00  0.00     0.212 HD
ENDBRANCH  10  11
BRANCH  10  13
HETATM   13  O3  UNL     1      35.460  36.017  25.656  1.00  0.00    -0.370 OA
ATOM     14  H3  UNL     1      34.932  35.496  26.249  1.00  0.00     0.212 HD
ENDBRANCH  10  13
ENDBRANCH   6  10
BRANCH   9  15
HETATM   15  C8  UNL     1      35.840  38.722  27.843  1.00  0.00     0.197 C
HETATM   16  O4  UNL     1      34.868  38.209  27.273  1.00  0.00    -0.647 OA
HETATM   17  O5  UNL     1      35.718  39.283  29.078  1.00  0.00    -0.647 OA
ENDBRANCH   9  15
BRANCH   9  18
HETATM   18  C9  UNL     1      37.668  40.087  27.150  1.00  0.00     0.250 C
HETATM   19  O6  UNL     1      38.905  40.236  27.502  1.00  0.00    -0.284 OA
BRANCH  18  20
HETATM   20  C10 UNL     1      37.002  41.315  26.846  1.00  0.00     0.248 C
HETATM   21  O7  UNL     1      36.588  41.608  25.720  1.00  0.00    -0.642 OA
HETATM   22  O8  UNL     1      36.767  42.299  27.828  1.00  0.00    -0.642 OA
ENDBRANCH  18  20
ENDBRANCH   9  18
BRANCH   1  23
HETATM   23  C1  UNL     1      37.255  38.443  22.432  1.00  0.00     0.343 C
BRANCH  23  24
HETATM   24  N1  UNL     1      36.983  39.674  21.731  1.00  0.00    -0.059 N
ATOM     25  H13 UNL     1      37.041  40.482  22.350  1.00  0.00     0.275 HD
ATOM     26  H12 UNL     1      37.737  39.918  21.089  1.00  0.00     0.275 HD
ATOM     27  H11 UNL     1      36.082  39.625  21.256  1.00  0.00     0.275 HD
ENDBRANCH  23  24
BRANCH  23  28
HETATM   28  C11 UNL     1      37.153  37.285  21.490  1.00  0.00     0.140 A
HETATM   29  N3  UNL     1      37.736  36.077  21.625  1.00  0.00    -0.283 N
HETATM   30  N4  UNL     1      37.428  35.301  20.603  1.00  0.00    -0.250 N
ATOM     31  H3  UNL     1      38.332  35.803  22.406  1.00  0.00     0.188 HD
HETATM   32  C12 UNL     1      36.633  35.994  19.780  1.00  0.00     0.340 A
ATOM     33  H4  UNL     1      37.740  34.339  20.465  1.00  0.00     0.192 HD
HETATM   34  O9  UNL     1      36.143  35.573  18.702  1.00  0.00    -0.245 OA
HETATM   35  N5  UNL     1      36.468  37.214  20.332  1.00  0.00    -0.294 N
ATOM     36  H5  UNL     1      35.910  37.967  19.933  1.00  0.00     0.172 HD
ENDBRANCH  23  28
ENDBRANCH   1  23
TORSDOF 9
ENDMDL