MODEL 2
REMARK VINA RESULT: -5.450487686      1.030      1.625
REMARK  14 active torsions:
REMARK  status: ('A' for Active; 'I' for Inactive)
REMARK    1  A    between atoms: N1_1  and  C1_5
REMARK    2  A    between atoms: C1_5  and  C2_6
REMARK    3  A    between atoms: C2_6  and  N2_7
REMARK    4  A    between atoms: N2_7  and  C3_9
REMARK    5  A    between atoms: C4_12  and  N4_13
REMARK    6  A    between atoms: N4_13  and  C5_15
REMARK    7  A    between atoms: C5_15  and  C6_16
REMARK    8  A    between atoms: C5_15  and  C7_18
REMARK       I    between atoms: C7_18  and  N5_20
REMARK    9  A    between atoms: N5_20  and  C8_22
REMARK   10  A    between atoms: C9_31  and  C10_32
REMARK   11  A    between atoms: C10_32  and  N10_33
REMARK   12  A    between atoms: C10_32  and  C11_37
REMARK   13  A    between atoms: C11_37  and  N11_38
REMARK   14  A    between atoms: C11_37  and  O3_42
ROOT
HETATM    1  C3  UNL     1      38.967  33.547  26.174  1.00  0.00     0.149 A
HETATM    2  N3  UNL     1      37.628  33.281  26.187  1.00  0.00    -0.322 N
ATOM      3  H3  UNL     1      37.367  32.315  26.388  1.00  0.00     0.169 HD
HETATM    4  C4  UNL     1      36.641  34.108  25.975  1.00  0.00     0.113 A
HETATM    5  C9  UNL     1      36.752  35.481  25.682  1.00  0.00     0.027 A
HETATM    6  C12 UNL     1      37.960  36.132  25.582  1.00  0.00     0.066 A
HETATM    7  S1  UNL     1      39.335  35.163  25.837  1.00  0.00    -0.065 SA
ENDROOT
BRANCH   4   8
HETATM    8  N4  UNL     1      35.407  33.672  26.059  1.00  0.00    -0.357 N
ATOM      9  H4  UNL     1      34.739  33.931  25.334  1.00  0.00     0.162 HD
BRANCH   8  10
HETATM   10  C5  UNL     1      34.972  32.842  27.139  1.00  0.00     0.238 C
BRANCH  10  11
HETATM   11  C6  UNL     1      33.496  33.062  27.405  1.00  0.00     0.266 C
HETATM   12  O1  UNL     1      32.666  32.246  27.048  1.00  0.00    -0.304 OA
ENDBRANCH  10  11
BRANCH  10  13
HETATM   13  C7  UNL     1      35.140  31.390  26.761  1.00  0.00     0.265 C
HETATM   14  O2  UNL     1      35.384  31.069  25.598  1.00  0.00    -0.270 OA
HETATM   15  N5  UNL     1      34.997  30.438  27.833  1.00  0.00    -0.155 N
ATOM     16  H5  UNL     1      34.096  29.993  28.010  1.00  0.00     0.187 HD
BRANCH  15  17
HETATM   17  C8  UNL     1      36.027  30.150  28.571  1.00  0.00     0.716 A
HETATM   18  N6  UNL     1      37.308  30.327  28.214  1.00  0.00    -0.115 N
HETATM   19  N7  UNL     1      38.049  29.918  29.226  1.00  0.00    -0.213 N
ATOM     20  H6  UNL     1      37.645  30.704  27.328  1.00  0.00     0.207 HD
HETATM   21  N8  UNL     1      37.249  29.501  30.185  1.00  0.00    -0.213 N
ATOM     22  H7  UNL     1      39.068  29.924  29.260  1.00  0.00     0.210 HD
HETATM   23  N9  UNL     1      35.993  29.633  29.805  1.00  0.00    -0.115 N
ATOM     24  H8  UNL     1      37.555  29.131  31.085  1.00  0.00     0.210 HD
ATOM     25  H9  UNL     1      35.161  29.389  30.344  1.00  0.00     0.207 HD
ENDBRANCH  15  17
ENDBRANCH  10  13
ENDBRANCH   8  10
ENDBRANCH   4   8
BRANCH   5  26
HETATM   26  C10 UNL     1      35.483  36.234  25.466  1.00  0.00     0.276 C
BRANCH  26  27
HETATM   27  N10 UNL     1      35.541  37.141  24.340  1.00  0.00    -0.067 N
ATOM     28 3H10 UNL     1      36.503  37.421  24.149  1.00  0.00     0.275 HD
ATOM     29 2H10 UNL     1      35.332  36.652  23.470  1.00  0.00     0.275 HD
ATOM     30 1H10 UNL     1      34.941  37.958  24.450  1.00  0.00     0.275 HD
ENDBRANCH  26  27
BRANCH  26  31
HETATM   31  C11 UNL     1      34.959  36.899  26.701  1.00  0.00     0.351 C
BRANCH  31  32
HETATM   32  N11 UNL     1      33.499  36.751  26.769  1.00  0.00    -0.051 N
ATOM     33 3H11 UNL     1      33.069  37.465  27.358  1.00  0.00     0.277 HD
ATOM     34 2H11 UNL     1      33.048  36.994  25.888  1.00  0.00     0.277 HD
ATOM     35 1H11 UNL     1      33.257  35.809  27.074  1.00  0.00     0.277 HD
ENDBRANCH  31  32
BRANCH  31  36
HETATM   36  O3  UNL     1      35.335  38.216  26.854  1.00  0.00    -0.368 OA
ATOM     37  H3  UNL     1      34.643  38.797  27.146  1.00  0.00     0.212 HD
ENDBRANCH  31  36
ENDBRANCH  26  31
ENDBRANCH   5  26
BRANCH   1  38
HETATM   38  N2  UNL     1      39.822  32.647  26.396  1.00  0.00    -0.348 N
ATOM     39  H2  UNL     1      40.169  32.189  25.554  1.00  0.00     0.167 HD
BRANCH  38  40
HETATM   40  C2  UNL     1      40.386  32.156  27.580  1.00  0.00     0.090 C
BRANCH  40  41
HETATM   41  C1  UNL     1      41.454  32.962  28.246  1.00  0.00     0.274 C
BRANCH  41  42
HETATM   42  N1  UNL     1      40.877  33.463  29.517  1.00  0.00    -0.075 N
ATOM     43  H13 UNL     1      40.982  32.809  30.294  1.00  0.00     0.274 HD
ATOM     44  H12 UNL     1      41.408  34.233  29.926  1.00  0.00     0.274 HD
ATOM     45  H11 UNL     1      39.905  33.703  29.321  1.00  0.00     0.274 HD
ENDBRANCH  41  42
ENDBRANCH  40  41
ENDBRANCH  38  40
ENDBRANCH   1  38
TORSDOF 14
ENDMDL