MODEL 4
REMARK VINA RESULT: -6.119108522      1.690      1.910
REMARK  10 active torsions:
REMARK  status: ('A' for Active; 'I' for Inactive)
REMARK    1  A    between atoms: C2_5  and  C3_6
REMARK    2  A    between atoms: C3_6  and  O1_7
REMARK    3  A    between atoms: C3_6  and  N3_9
REMARK    4  A    between atoms: N3_9  and  N4_11
REMARK    5  A    between atoms: N4_11  and  C4_13
REMARK    6  A    between atoms: C5_16  and  O2_17
REMARK    7  A    between atoms: O2_17  and  C6_18
REMARK    8  A    between atoms: C6_18  and  O3_19
REMARK    9  A    between atoms: C6_18  and  C7_21
REMARK   10  A    between atoms: C7_21  and  O4_22
ROOT
HETATM    1  C4  UNL     1      38.229  34.162  25.406  1.00  0.00     0.702 A
HETATM    2  N5  UNL     1      37.004  33.751  25.880  1.00  0.00    -0.168 N
ATOM      3  H5  UNL     1      36.183  34.295  25.617  1.00  0.00     0.186 HD
HETATM    4  C5  UNL     1      36.824  32.684  26.662  1.00  0.00     0.179 A
HETATM    5  C8  UNL     1      37.974  31.962  27.006  1.00  0.00     0.128 A
HETATM    6  C9  UNL     1      37.863  30.850  27.810  1.00  0.00     0.264 A
HETATM    7  O5  UNL     1      36.783  30.425  28.272  1.00  0.00    -0.267 OA
HETATM    8  N6  UNL     1      39.001  30.205  28.100  1.00  0.00    -0.319 N
ATOM      9  H6  UNL     1      38.966  29.375  28.693  1.00  0.00     0.169 HD
HETATM   10  C10 UNL     1      40.204  30.627  27.624  1.00  0.00     0.184 A
HETATM   11  N7  UNL     1      40.307  31.722  26.831  1.00  0.00    -0.337 N
ATOM     12  H7  UNL     1      41.214  32.030  26.480  1.00  0.00     0.168 HD
HETATM   13  C11 UNL     1      39.194  32.387  26.523  1.00  0.00     0.144 A
HETATM   14  N8  UNL     1      39.316  33.487  25.726  1.00  0.00    -0.170 N
HETATM   15  C12 UNL     1      40.616  33.885  25.249  1.00  0.00     0.177 C
ENDROOT
BRANCH   1  16
HETATM   16  N4  UNL     1      38.230  35.187  24.680  1.00  0.00    -0.133 N
ATOM     17  H4  UNL     1      38.908  35.110  23.921  1.00  0.00     0.205 HD
BRANCH  16  18
HETATM   18  N3  UNL     1      37.573  36.360  24.641  1.00  0.00    -0.286 N
ATOM     19  H3  UNL     1      37.961  37.167  25.131  1.00  0.00     0.184 HD
BRANCH  18  20
HETATM   20  C3  UNL     1      36.305  36.503  23.905  1.00  0.00     0.303 C
BRANCH  20  21
HETATM   21  C2  UNL     1      36.576  36.553  22.463  1.00  0.00     0.151 A
HETATM   22  N2  UNL     1      37.618  37.180  21.893  1.00  0.00    -0.279 N
HETATM   23  N1  UNL     1      37.536  37.013  20.594  1.00  0.00    -0.246 N
ATOM     24  H2  UNL     1      38.348  37.696  22.385  1.00  0.00     0.188 HD
HETATM   25  C1  UNL     1      38.510  37.562  19.642  1.00  0.00     0.183 C
HETATM   26  C13 UNL     1      36.459  36.288  20.310  1.00  0.00     0.342 A
HETATM   27  N9  UNL     1      35.858  36.001  21.478  1.00  0.00    -0.292 N
HETATM   28  O6  UNL     1      36.072  35.938  19.174  1.00  0.00    -0.245 OA
ATOM     29  H9  UNL     1      35.003  35.456  21.593  1.00  0.00     0.172 HD
ENDBRANCH  20  21
BRANCH  20  30
HETATM   30  O1  UNL     1      35.434  35.453  24.192  1.00  0.00    -0.368 OA
ATOM     31  H1  UNL     1      35.676  35.045  25.015  1.00  0.00     0.212 HD
ENDBRANCH  20  30
ENDBRANCH  18  20
ENDBRANCH  16  18
ENDBRANCH   1  16
BRANCH   4  32
HETATM   32  O2  UNL     1      35.620  32.255  27.144  1.00  0.00    -0.301 OA
BRANCH  32  33
HETATM   33  C6  UNL     1      34.396  32.137  26.522  1.00  0.00     0.288 C
BRANCH  33  34
HETATM   34  O3  UNL     1      34.369  32.905  25.331  1.00  0.00    -0.369 OA
ATOM     35  H3  UNL     1      34.517  32.350  24.575  1.00  0.00     0.212 HD
ENDBRANCH  33  34
BRANCH  33  36
HETATM   36  C7  UNL     1      33.240  32.664  27.356  1.00  0.00     0.225 C
BRANCH  36  37
HETATM   37  O4  UNL     1      32.041  32.614  26.645  1.00  0.00    -0.396 OA
ATOM     38  H4  UNL     1      31.362  32.177  27.145  1.00  0.00     0.209 HD
ENDBRANCH  36  37
ENDBRANCH  33  36
ENDBRANCH  32  33
ENDBRANCH   4  32
TORSDOF 10
ENDMDL