MODEL 2
REMARK VINA RESULT: -5.777534762      0.999      1.303
REMARK  8 active torsions:
REMARK  status: ('A' for Active; 'I' for Inactive)
REMARK       I    between atoms: C1_4  and  N3_6
REMARK    1  A    between atoms: N3_6  and  C2_8
REMARK    2  A    between atoms: C2_8  and  C3_9
REMARK    3  A    between atoms: C2_8  and  C4_12
REMARK    4  A    between atoms: C4_12  and  N4_14
REMARK    5  A    between atoms: N4_14  and  N5_16
REMARK    6  A    between atoms: C9_25  and  O4_26
REMARK    7  A    between atoms: O4_26  and  N8_27
REMARK       I    between atoms: N8_27  and  C10_28
REMARK    8  A    between atoms: C10_28  and  C11_30
ROOT
HETATM    1  N5  UNL     1      37.547  36.110  23.483  1.00  0.00    -0.247 N
HETATM    2  C5  UNL     1      38.154  35.010  24.372  1.00  0.00     0.426 C
HETATM    3  N6  UNL     1      37.518  35.353  25.621  1.00  0.00     0.149 N
HETATM    4  C6  UNL     1      37.460  36.798  25.534  1.00  0.00     0.357 C
HETATM    5  C7  UNL     1      36.504  36.576  24.197  1.00  0.00     0.148 C
HETATM    6  N7  UNL     1      35.360  37.023  24.264  1.00  0.00    -0.251 N
ATOM      7  H7  UNL     1      34.798  37.235  23.440  1.00  0.00     0.196 HD
HETATM    8  O3  UNL     1      34.886  37.219  25.607  1.00  0.00    -0.274 OA
HETATM    9  C8  UNL     1      35.243  35.918  26.346  1.00  0.00     0.269 C
HETATM   10  C9  UNL     1      36.069  34.923  25.681  1.00  0.00     0.430 C
ENDROOT
BRANCH   1  11
HETATM   11  N4  UNL     1      37.969  36.380  22.225  1.00  0.00    -0.286 N
ATOM     12  H4  UNL     1      37.998  35.572  21.604  1.00  0.00     0.188 HD
BRANCH  11  13
HETATM   13  C4  UNL     1      38.363  37.559  21.648  1.00  0.00     0.126 C
HETATM   14  S1  UNL     1      39.488  38.530  22.081  1.00  0.00    -0.061 SA
BRANCH  13  15
HETATM   15  C2  UNL     1      37.432  38.004  20.404  1.00  0.00     0.248 C
BRANCH  15  16
HETATM   16  N3  UNL     1      38.374  38.692  19.534  1.00  0.00    -0.345 N
HETATM   17  C1  UNL     1      37.640  39.825  18.879  1.00  0.00     0.182 C
HETATM   18  N1  UNL     1      37.519  40.896  19.562  1.00  0.00    -0.374 N
HETATM   19  N2  UNL     1      37.083  39.519  17.654  1.00  0.00    -0.064 NA
ATOM     20  H12 UNL     1      37.021  41.666  19.117  1.00  0.00     0.158 HD
ATOM     21  H11 UNL     1      37.931  41.122  20.467  1.00  0.00     0.158 HD
ATOM     22  H3  UNL     1      39.354  38.449  19.394  1.00  0.00     0.163 HD
ENDBRANCH  15  16
BRANCH  15  23
HETATM   23  C3  UNL     1      37.238  36.620  19.908  1.00  0.00     0.203 C
HETATM   24  O1  UNL     1      36.023  36.101  19.974  1.00  0.00    -0.646 OA
HETATM   25  O2  UNL     1      38.189  35.742  19.424  1.00  0.00    -0.646 OA
ENDBRANCH  15  23
ENDBRANCH  13  15
ENDBRANCH  11  13
ENDBRANCH   1  11
BRANCH  10  26
HETATM   26  O4  UNL     1      36.212  33.737  26.354  1.00  0.00    -0.166 OA
BRANCH  26  27
HETATM   27  N8  UNL     1      35.280  33.071  26.656  1.00  0.00    -0.227 NA
HETATM   28  C10 UNL     1      34.146  32.309  27.008  1.00  0.00     0.419 C
HETATM   29  O5  UNL     1      32.995  32.410  27.130  1.00  0.00    -0.241 OA
BRANCH  28  30
HETATM   30  C11 UNL     1      34.739  30.921  27.417  1.00  0.00     0.287 C
HETATM   31  O6  UNL     1      34.930  30.165  26.524  1.00  0.00    -0.640 OA
HETATM   32  O7  UNL     1      34.994  30.714  28.725  1.00  0.00    -0.640 OA
ENDBRANCH  28  30
ENDBRANCH  26  27
ENDBRANCH  10  26
TORSDOF 8
ENDMDL