MODEL 1
REMARK VINA RESULT: -3.829702961      0.000      0.000
REMARK  2 active torsions:
REMARK  status: ('A' for Active; 'I' for Inactive)
REMARK    1  A    between atoms: C3_4  and  O1_5
REMARK    2  A    between atoms: C4_7  and  O2_8
ROOT
HETATM    1  C1  UNL     1      24.873  11.569  10.441  1.00  0.00     0.313 C
HETATM    2  N1  UNL     1      23.666  11.259  11.164  1.00  0.00     0.118 N
HETATM    3  C2  UNL     1      23.133   9.935  10.976  1.00  0.00     0.311 C
HETATM    4  C3  UNL     1      23.625   9.534  12.360  1.00  0.00     0.205 C
HETATM    5  C4  UNL     1      23.813  11.017  12.573  1.00  0.00     0.386 C
ENDROOT
BRANCH   4   6
HETATM    6  O1  UNL     1      22.645   8.985  13.182  1.00  0.00    -0.389 OA
ATOM      7  H1  UNL     1      22.946   8.265  13.723  1.00  0.00     0.210 HD
ENDBRANCH   4   6
BRANCH   5   8
HETATM    8  O2  UNL     1      25.044  11.350  13.123  1.00  0.00    -0.366 OA
ATOM      9  H2  UNL     1      25.052  11.511  14.060  1.00  0.00     0.212 HD
ENDBRANCH   5   8
TORSDOF 2
ENDMDL