MODEL 1
REMARK VINA RESULT: -3.952182930      0.000      0.000
REMARK  1 active torsions:
REMARK  status: ('A' for Active; 'I' for Inactive)
REMARK    1  A    between atoms: N2_3  and  C2_5
ROOT
HETATM    1  N1  UNL     1      22.030   7.653  13.241  1.00  0.00    -0.172 NA
HETATM    2  C1  UNL     1      22.405   8.348  12.378  1.00  0.00     0.183 C
HETATM    3  N2  UNL     1      22.856   9.168  11.342  1.00  0.00    -0.272 N
ATOM      4  H2  UNL     1      22.523   8.998  10.393  1.00  0.00     0.180 HD
ENDROOT
BRANCH   3   5
HETATM    5  C2  UNL     1      23.766  10.232  11.573  1.00  0.00     0.194 C
HETATM    6  N3  UNL     1      23.529  11.078  12.717  1.00  0.00    -0.069 NA
HETATM    7  S1  UNL     1      25.041  10.531  10.620  1.00  0.00    -0.043 SA
ENDBRANCH   3   5
TORSDOF 1
ENDMDL