MODEL 1
REMARK VINA RESULT: -4.057844518      0.000      0.000
REMARK  3 active torsions:
REMARK  status: ('A' for Active; 'I' for Inactive)
REMARK    1  A    between atoms: C3_3  and  N1_4
REMARK    2  A    between atoms: C5_9  and  C6_10
REMARK    3  A    between atoms: C6_10  and  N2_11
ROOT
HETATM    1  C1  UNL     1      23.353   9.597  11.981  1.00  0.00     0.018 C
HETATM    2  C2  UNL     1      24.565  10.466  12.071  1.00  0.00    -0.004 A
HETATM    3  C3  UNL     1      24.340  11.746  12.913  1.00  0.00     0.197 A
HETATM    4  C4  UNL     1      24.529  11.821  11.396  1.00  0.00     0.034 A
HETATM    5  C5  UNL     1      25.481  10.679  10.933  1.00  0.00     0.028 A
ENDROOT
BRANCH   5   6
HETATM    6  C6  UNL     1      25.207  10.155   9.563  1.00  0.00     0.235 C
BRANCH   6   7
HETATM    7  N2  UNL     1      26.206   9.134   9.269  1.00  0.00    -0.079 N
ATOM      8  H23 UNL     1      27.073   9.266   9.790  1.00  0.00     0.274 HD
ATOM      9  H22 UNL     1      25.960   8.219   9.646  1.00  0.00     0.274 HD
ATOM     10  H21 UNL     1      26.350   9.121   8.259  1.00  0.00     0.274 HD
ENDBRANCH   6   7
ENDBRANCH   5   6
BRANCH   3  11
HETATM   11  N1  UNL     1      25.477  12.044  13.749  1.00  0.00    -0.074 N
ATOM     12  H13 UNL     1      25.320  12.887  14.303  1.00  0.00     0.274 HD
ATOM     13  H12 UNL     1      25.567  11.368  14.508  1.00  0.00     0.274 HD
ATOM     14  H11 UNL     1      26.338  12.110  13.208  1.00  0.00     0.274 HD
ENDBRANCH   3  11
TORSDOF 3
ENDMDL