MODEL 3
REMARK VINA RESULT: -3.800586659      2.359      3.597
REMARK  2 active torsions:
REMARK  status: ('A' for Active; 'I' for Inactive)
REMARK    1  A    between atoms: C4_5  and  N2_6
REMARK    2  A    between atoms: C5_10  and  N3_11
ROOT
HETATM    1  C1  UNL     1      26.004  11.380  10.845  1.00  0.00     0.312 C
HETATM    2  N1  UNL     1      25.848  10.292   9.927  1.00  0.00     0.117 N
HETATM    3  C2  UNL     1      24.563  10.183   9.328  1.00  0.00     0.277 C
HETATM    4  C3  UNL     1      24.727  10.169   7.838  1.00  0.00     0.067 C
HETATM    5  C4  UNL     1      26.163  10.535   7.630  1.00  0.00     0.245 C
HETATM    6  C5  UNL     1      26.854  10.208   8.919  1.00  0.00     0.446 C
ENDROOT
BRANCH   5   7
HETATM    7  N2  UNL     1      26.756   9.897   6.481  1.00  0.00    -0.071 N
ATOM      8  H23 UNL     1      27.028   8.939   6.700  1.00  0.00     0.274 HD
ATOM      9  H22 UNL     1      26.053   9.714   5.765  1.00  0.00     0.274 HD
ATOM     10  H21 UNL     1      27.543  10.416   6.090  1.00  0.00     0.274 HD
ENDBRANCH   5   7
BRANCH   6  11
HETATM   11  N3  UNL     1      27.359   8.834   8.913  1.00  0.00    -0.045 N
ATOM     12  H33 UNL     1      27.671   8.521   9.832  1.00  0.00     0.277 HD
ATOM     13  H32 UNL     1      26.623   8.141   8.778  1.00  0.00     0.277 HD
ATOM     14  H31 UNL     1      28.091   8.779   8.205  1.00  0.00     0.277 HD
ENDBRANCH   6  11
TORSDOF 2
ENDMDL