MODEL 2
REMARK VINA RESULT: -4.293338049      2.950      4.218
REMARK  0 active torsions:
REMARK  status: ('A' for Active; 'I' for Inactive)
REMARK       I    between atoms: C1_4  and  N3_6
ROOT
HETATM    1  N1  UNL     1      21.991   8.485  10.817  1.00  0.00    -0.374 N
ATOM      2  H11 UNL     1      22.056   9.075   9.987  1.00  0.00     0.158 HD
ATOM      3  H12 UNL     1      21.369   7.679  10.765  1.00  0.00     0.158 HD
HETATM    4  C1  UNL     1      22.632   8.694  11.898  1.00  0.00     0.185 C
HETATM    5  N2  UNL     1      22.543   7.878  13.049  1.00  0.00    -0.064 NA
HETATM    6  N3  UNL     1      23.498   9.818  11.971  1.00  0.00    -0.333 N
HETATM    7  C2  UNL     1      23.228  11.032  12.691  1.00  0.00     0.154 C
HETATM    8  C3  UNL     1      24.613  11.616  12.856  1.00  0.00     0.190 C
HETATM    9  O1  UNL     1      25.453  10.982  11.986  1.00  0.00    -0.370 OA
HETATM   10  C4  UNL     1      24.790   9.966  11.354  1.00  0.00     0.295 C
ENDROOT
TORSDOF 0
ENDMDL