MODEL 4
REMARK VINA RESULT: -4.364057549      3.981      4.922
REMARK  0 active torsions:
REMARK  status: ('A' for Active; 'I' for Inactive)
REMARK       I    between atoms: C2_4  and  N2_5
REMARK       I    between atoms: C2_4  and  N3_8
ROOT
HETATM    1  C1  UNL     1      26.717   6.841   7.179  1.00  0.00     0.165 C
HETATM    2  N1  UNL     1      26.884   8.223   6.871  1.00  0.00    -0.230 N
ATOM      3  H1  UNL     1      27.061   8.456   5.894  1.00  0.00     0.177 HD
HETATM    4  C2  UNL     1      26.834   9.198   7.689  1.00  0.00     0.682 C
HETATM    5  N2  UNL     1      27.029  10.516   7.172  1.00  0.00    -0.230 N
ATOM      6  H2  UNL     1      27.868  11.028   7.442  1.00  0.00     0.177 HD
HETATM    7  C3  UNL     1      26.088  11.152   6.285  1.00  0.00     0.165 C
HETATM    8  N3  UNL     1      26.599   9.075   9.086  1.00  0.00    -0.126 N
ATOM      9  H3  UNL     1      26.980   8.278   9.596  1.00  0.00     0.197 HD
HETATM   10  C4  UNL     1      25.848  10.040   9.766  1.00  0.00     0.196 C
HETATM   11  N4  UNL     1      25.220  10.830  10.326  1.00  0.00    -0.171 NA
ENDROOT
TORSDOF 0
ENDMDL