MODEL 4
REMARK VINA RESULT: -3.821791347      1.654      1.960
REMARK  2 active torsions:
REMARK  status: ('A' for Active; 'I' for Inactive)
REMARK    1  A    between atoms: N1_1  and  C1_5
REMARK    2  A    between atoms: C4_8  and  O1_9
ROOT
HETATM    1  C1  UNL     1      24.041   9.617  12.042  1.00  0.00     0.194 C
HETATM    2  C2  UNL     1      24.223  10.290  10.718  1.00  0.00     0.019 C
HETATM    3  C3  UNL     1      25.577  10.937  10.861  1.00  0.00     0.039 C
HETATM    4  C4  UNL     1      25.455  11.436  12.315  1.00  0.00     0.124 C
HETATM    5  C5  UNL     1      24.025  11.030  12.580  1.00  0.00     0.045 C
HETATM    6  C6  UNL     1      23.346  11.412  11.290  1.00  0.00     0.016 C
ENDROOT
BRANCH   1   7
HETATM    7  N1  UNL     1      22.895   8.833  12.253  1.00  0.00    -0.074 N
ATOM      8  H13 UNL     1      22.776   8.204  11.460  1.00  0.00     0.274 HD
ATOM      9  H12 UNL     1      23.084   8.170  13.005  1.00  0.00     0.274 HD
ATOM     10  H11 UNL     1      22.007   9.298  12.440  1.00  0.00     0.274 HD
ENDBRANCH   1   7
BRANCH   4  11
HETATM   11  O1  UNL     1      25.634  12.793  12.401  1.00  0.00    -0.395 OA
ATOM     12  H1  UNL     1      25.600  13.095  13.301  1.00  0.00     0.210 HD
ENDBRANCH   4  11
TORSDOF 2
ENDMDL