MODEL 1
REMARK VINA RESULT: -3.926231950      0.000      0.000
REMARK  3 active torsions:
REMARK  status: ('A' for Active; 'I' for Inactive)
REMARK    1  A    between atoms: N1_1  and  C1_5
REMARK    2  A    between atoms: C3_7  and  N2_8
REMARK    3  A    between atoms: C4_12  and  O1_13
ROOT
HETATM    1  C1  UNL     1      24.834  11.651  11.926  1.00  0.00     0.216 C
HETATM    2  C2  UNL     1      24.716  10.386  11.062  1.00  0.00     0.070 C
HETATM    3  C3  UNL     1      23.968   9.800  12.268  1.00  0.00     0.216 C
HETATM    4  C4  UNL     1      23.472  11.226  12.491  1.00  0.00     0.179 C
ENDROOT
BRANCH   1   5
HETATM    5  N1  UNL     1      25.904  11.448  12.882  1.00  0.00    -0.072 N
ATOM      6  H13 UNL     1      26.047  10.463  13.109  1.00  0.00     0.274 HD
ATOM      7  H12 UNL     1      26.825  11.633  12.486  1.00  0.00     0.274 HD
ATOM      8  H11 UNL     1      25.708  12.016  13.705  1.00  0.00     0.274 HD
ENDBRANCH   1   5
BRANCH   4   9
HETATM    9  O1  UNL     1      23.337  11.613  13.791  1.00  0.00    -0.391 OA
ATOM     10  H1  UNL     1      23.607  10.922  14.383  1.00  0.00     0.210 HD
ENDBRANCH   4   9
BRANCH   3  11
HETATM   11  N2  UNL     1      22.929   8.876  11.896  1.00  0.00    -0.072 N
ATOM     12  H23 UNL     1      22.026   9.179  12.260  1.00  0.00     0.274 HD
ATOM     13  H22 UNL     1      22.734   8.933  10.897  1.00  0.00     0.274 HD
ATOM     14  H21 UNL     1      23.129   7.915  12.174  1.00  0.00     0.274 HD
ENDBRANCH   3  11
TORSDOF 3
ENDMDL