MODEL 3
REMARK VINA RESULT: -4.926853537      1.729      1.918
REMARK  0 active torsions:
REMARK  status: ('A' for Active; 'I' for Inactive)
REMARK       I    between atoms: N2_5  and  C3_7
ROOT
HETATM    1  C1  UNL     1      23.091   9.874  11.255  1.00  0.00     0.038 C
HETATM    2  C2  UNL     1      23.903  10.415  11.985  1.00  0.00     0.015 C
HETATM    3  N1  UNL     1      24.820  11.047  12.834  1.00  0.00    -0.257 N
ATOM      4  H1  UNL     1      25.092  10.591  13.704  1.00  0.00     0.197 HD
HETATM    5  N2  UNL     1      25.319  12.176  12.544  1.00  0.00    -0.266 N
ATOM      6  H2  UNL     1      25.068  12.659  11.682  1.00  0.00     0.190 HD
HETATM    7  C3  UNL     1      26.240  12.743  13.462  1.00  0.00     0.203 C
HETATM    8  N3  UNL     1      26.201  14.126  13.724  1.00  0.00    -0.062 NA
HETATM    9  N4  UNL     1      27.078  11.945  14.018  1.00  0.00    -0.368 N
ATOM     10  H4  UNL     1      27.034  10.958  13.769  1.00  0.00     0.161 HD
HETATM   11  C4  UNL     1      28.082  12.359  14.974  1.00  0.00     0.148 C
ENDROOT
TORSDOF 0
ENDMDL