MODEL 1
REMARK VINA RESULT: -4.765235039      0.000      0.000
REMARK  1 active torsions:
REMARK  status: ('A' for Active; 'I' for Inactive)
REMARK       I    between atoms: C1_2  and  N3_7
REMARK    1  A    between atoms: N2_3  and  O1_5
ROOT
HETATM    1  N1  UNL     1      22.293   8.473  12.925  1.00  0.00    -0.062 NA
HETATM    2  C1  UNL     1      22.597   8.831  11.585  1.00  0.00     0.210 C
HETATM    3  N2  UNL     1      21.955   8.269  10.622  1.00  0.00    -0.241 N
ATOM      4  H2  UNL     1      21.234   7.574  10.813  1.00  0.00     0.197 HD
HETATM    5  N3  UNL     1      23.605   9.799  11.343  1.00  0.00    -0.354 N
HETATM    6  C2  UNL     1      23.980  10.707  10.271  1.00  0.00     0.127 C
HETATM    7  C3  UNL     1      24.378  11.673  11.385  1.00  0.00     0.040 C
HETATM    8  C4  UNL     1      24.746  10.342  12.063  1.00  0.00     0.127 C
ENDROOT
BRANCH   3   9
HETATM    9  O1  UNL     1      22.261   8.624   9.327  1.00  0.00    -0.287 OA
ATOM     10  H1  UNL     1      22.208   9.539   9.079  1.00  0.00     0.244 HD
ENDBRANCH   3   9
TORSDOF 1
ENDMDL