MODEL 4
REMARK VINA RESULT: -8.193891839      1.755      2.235
REMARK  12 active torsions:
REMARK  status: ('A' for Active; 'I' for Inactive)
REMARK    1  A    between atoms: C2_2  and  C4_4
REMARK    2  A    between atoms: C4_4  and  C5_5
REMARK    3  A    between atoms: C4_4  and  N3_32
REMARK    4  A    between atoms: C5_5  and  C7_7
REMARK       I    between atoms: C7_7  and  N1_9
REMARK    5  A    between atoms: N1_9  and  C8_11
REMARK    6  A    between atoms: C8_11  and  C9_12
REMARK    7  A    between atoms: C8_11  and  C18_25
REMARK       I    between atoms: C9_12  and  N2_14
REMARK       I    between atoms: N2_14  and  C10_16
REMARK    8  A    between atoms: C10_16  and  C11_18
REMARK    9  A    between atoms: C11_18  and  C12_19
REMARK   10  A    between atoms: C18_25  and  O5_27
REMARK   11  A    between atoms: O5_27  and  C19_28
REMARK   12  A    between atoms: N3_32  and  O6_34
ROOT
HETATM    1  C8  UNL     1      49.853  52.545  18.241  1.00  0.00     0.277 C
ENDROOT
BRANCH   1   2
HETATM    2  N1  UNL     1      50.278  53.946  18.257  1.00  0.00    -0.339 N
HETATM    3  C7  UNL     1      50.231  54.740  19.435  1.00  0.00     0.224 C
HETATM    4  O1  UNL     1      49.805  54.183  20.479  1.00  0.00    -0.273 OA
ATOM      5  H1  UNL     1      50.621  54.367  17.393  1.00  0.00     0.163 HD
BRANCH   3   6
HETATM    6  C5  UNL     1      50.677  56.135  19.360  1.00  0.00     0.099 C
HETATM    7  C6  UNL     1      52.083  56.182  18.864  1.00  0.00     0.022 C
BRANCH   6   8
HETATM    8  C4  UNL     1      50.436  56.888  20.650  1.00  0.00     0.124 C
BRANCH   8   9
HETATM    9  C2  UNL     1      49.671  58.161  20.431  1.00  0.00     0.003 C
HETATM   10  C1  UNL     1      48.675  58.304  21.576  1.00  0.00     0.011 C
HETATM   11  C3  UNL     1      48.846  58.108  19.160  1.00  0.00     0.011 C
ENDBRANCH   8   9
BRANCH   8  12
HETATM   12  N3  UNL     1      51.584  57.053  21.458  1.00  0.00    -0.295 N
HETATM   13  C23 UNL     1      52.390  58.195  21.275  1.00  0.00     0.178 C
BRANCH  12  14
HETATM   14  O6  UNL     1      51.567  56.520  22.670  1.00  0.00    -0.292 OA
ATOM     15  H6  UNL     1      52.387  56.194  23.022  1.00  0.00     0.244 HD
ENDBRANCH  12  14
ENDBRANCH   8  12
ENDBRANCH   6   8
ENDBRANCH   3   6
ENDBRANCH   1   2
BRANCH   1  16
HETATM   16  C9  UNL     1      49.150  52.206  17.003  1.00  0.00     0.257 C
HETATM   17  O2  UNL     1      48.745  53.157  16.263  1.00  0.00    -0.270 OA
HETATM   18  N2  UNL     1      48.905  50.866  16.599  1.00  0.00    -0.295 N
HETATM   19  C10 UNL     1      48.228  50.585  15.383  1.00  0.00     0.224 C
ATOM     20  H2  UNL     1      49.219  50.097  17.191  1.00  0.00     0.171 HD
HETATM   21  O3  UNL     1      47.864  51.568  14.692  1.00  0.00    -0.273 OA
BRANCH  19  22
HETATM   22  C11 UNL     1      48.000  49.191  15.014  1.00  0.00     0.108 C
BRANCH  22  23
HETATM   23  C12 UNL     1      46.627  48.672  15.221  1.00  0.00    -0.006 C
HETATM   24  C13 UNL     1      46.003  48.081  13.991  1.00  0.00     0.005 C
HETATM   25  C14 UNL     1      44.505  47.945  14.296  1.00  0.00     0.000 C
HETATM   26  C15 UNL     1      44.295  47.058  15.505  1.00  0.00     0.000 C
HETATM   27  C16 UNL     1      44.986  47.683  16.705  1.00  0.00     0.000 C
HETATM   28  C17 UNL     1      46.481  47.702  16.352  1.00  0.00     0.005 C
ENDBRANCH  22  23
ENDBRANCH  19  22
ENDBRANCH   1  16
BRANCH   1  29
HETATM   29  C18 UNL     1      51.029  51.656  18.496  1.00  0.00     0.292 C
HETATM   30  O4  UNL     1      52.163  51.962  18.044  1.00  0.00    -0.262 OA
BRANCH  29  31
HETATM   31  O5  UNL     1      50.931  50.487  19.220  1.00  0.00    -0.309 OA
BRANCH  31  32
HETATM   32  C19 UNL     1      51.538  50.253  20.467  1.00  0.00     0.060 C
HETATM   33  C20 UNL     1      51.568  51.460  21.348  1.00  0.00     0.045 C
HETATM   34  C21 UNL     1      52.962  49.808  20.206  1.00  0.00     0.045 C
HETATM   35  C22 UNL     1      50.804  49.157  21.242  1.00  0.00     0.045 C
ENDBRANCH  31  32
ENDBRANCH  29  31
ENDBRANCH   1  29
TORSDOF 12
ENDMDL