MODEL 4
REMARK VINA RESULT: -7.916743754      5.179      9.139
REMARK  13 active torsions:
REMARK  status: ('A' for Active; 'I' for Inactive)
REMARK    1  A    between atoms: C2_2  and  C3_3
REMARK    2  A    between atoms: C6_6  and  C7_7
REMARK    3  A    between atoms: C7_7  and  C9_9
REMARK    4  A    between atoms: C9_9  and  C10_10
REMARK    5  A    between atoms: C12_13  and  C13_14
REMARK    6  A    between atoms: C13_14  and  C14_15
REMARK    7  A    between atoms: C14_15  and  C15_17
REMARK    8  A    between atoms: C15_17  and  C16_18
REMARK    9  A    between atoms: C16_18  and  C17_19
REMARK   10  A    between atoms: C17_19  and  C18_20
REMARK   11  A    between atoms: C20_22  and  O3_23
REMARK   12  A    between atoms: C21_25  and  O4_26
REMARK   13  A    between atoms: C26_32  and  O5_33
ROOT
HETATM    1  C10 UNL     1      49.847  57.669  20.322  1.00  0.00     0.045 C
HETATM    2  C11 UNL     1      49.543  56.173  20.037  1.00  0.00     0.175 C
HETATM    3  O1  UNL     1      50.750  55.566  19.775  1.00  0.00    -0.382 OA
HETATM    4  C12 UNL     1      51.390  55.225  20.982  1.00  0.00     0.159 C
HETATM    5  C20 UNL     1      51.355  56.401  21.920  1.00  0.00     0.176 C
HETATM    6  C21 UNL     1      51.089  57.693  21.174  1.00  0.00     0.155 C
ENDROOT
BRANCH   1   7
HETATM    7  C9  UNL     1      48.642  58.200  21.023  1.00  0.00     0.043 C
BRANCH   7   8
HETATM    8  C7  UNL     1      47.530  58.681  20.157  1.00  0.00    -0.084 C
HETATM    9  C8  UNL     1      46.317  58.393  20.481  1.00  0.00     0.015 C
BRANCH   8  10
HETATM   10  C6  UNL     1      48.009  59.431  18.977  1.00  0.00     0.019 C
HETATM   11  C5  UNL     1      47.564  60.877  19.230  1.00  0.00     0.025 C
HETATM   12  C3  UNL     1      47.473  61.697  17.994  1.00  0.00    -0.000 C
HETATM   13  C4  UNL     1      48.899  62.082  17.592  1.00  0.00     0.022 C
HETATM   14  C26 UNL     1      46.704  61.107  16.867  1.00  0.00     0.134 C
HETATM   15  C24 UNL     1      46.473  59.616  16.991  1.00  0.00     0.016 C
HETATM   16  C22 UNL     1      47.706  58.999  17.626  1.00  0.00    -0.004 C
HETATM   17  C25 UNL     1      45.175  59.262  17.598  1.00  0.00     0.013 C
HETATM   18  C23 UNL     1      47.843  57.570  17.254  1.00  0.00     0.011 C
BRANCH  12  19
HETATM   19  C2  UNL     1      46.806  62.986  18.378  1.00  0.00    -0.025 C
HETATM   20  C1  UNL     1      46.273  63.102  19.569  1.00  0.00     0.008 C
ENDBRANCH  12  19
BRANCH  14  21
HETATM   21  O5  UNL     1      45.465  61.724  16.654  1.00  0.00    -0.394 OA
ATOM     22  H5  UNL     1      44.811  61.143  16.284  1.00  0.00     0.210 HD
ENDBRANCH  14  21
ENDBRANCH   8  10
ENDBRANCH   7   8
ENDBRANCH   1   7
BRANCH   6  23
HETATM   23  O4  UNL     1      52.226  57.977  20.381  1.00  0.00    -0.392 OA
ATOM     24  H4  UNL     1      52.700  57.178  20.183  1.00  0.00     0.210 HD
ENDBRANCH   6  23
BRANCH   5  25
HETATM   25  O3  UNL     1      52.619  56.555  22.481  1.00  0.00    -0.390 OA
ATOM     26  H3  UNL     1      52.923  57.436  22.298  1.00  0.00     0.210 HD
ENDBRANCH   5  25
BRANCH   4  27
HETATM   27  C13 UNL     1      50.710  54.012  21.518  1.00  0.00     0.112 C
BRANCH  27  28
HETATM   28  C14 UNL     1      51.367  52.717  21.184  1.00  0.00     0.129 C
HETATM   29  O2  UNL     1      52.279  52.215  21.796  1.00  0.00    -0.298 OA
BRANCH  28  30
HETATM   30  C15 UNL     1      50.828  52.014  19.996  1.00  0.00     0.078 C
BRANCH  30  31
HETATM   31  C16 UNL     1      51.647  52.139  18.766  1.00  0.00     0.007 C
BRANCH  31  32
HETATM   32  C17 UNL     1      50.867  52.695  17.632  1.00  0.00     0.000 C
BRANCH  32  33
HETATM   33  C18 UNL     1      49.398  52.789  18.016  1.00  0.00    -0.005 C
HETATM   34  C19 UNL     1      48.657  53.829  17.212  1.00  0.00     0.005 C
ENDBRANCH  32  33
ENDBRANCH  31  32
ENDBRANCH  30  31
ENDBRANCH  28  30
ENDBRANCH  27  28
ENDBRANCH   4  27
TORSDOF 13
ENDMDL