MODEL 1
REMARK VINA RESULT: -8.279500780      0.000      0.000
REMARK  12 active torsions:
REMARK  status: ('A' for Active; 'I' for Inactive)
REMARK    1  A    between atoms: C2_2  and  C3_3
REMARK    2  A    between atoms: C3_3  and  C4_4
REMARK    3  A    between atoms: C4_4  and  O1_5
REMARK    4  A    between atoms: O1_5  and  C5_6
REMARK       I    between atoms: C5_6  and  N1_8
REMARK    5  A    between atoms: N1_8  and  C6_10
REMARK    6  A    between atoms: C6_10  and  C8_12
REMARK    7  A    between atoms: C8_12  and  N2_14
REMARK       I    between atoms: N2_14  and  C10_16
REMARK    8  A    between atoms: C10_16  and  C11_18
REMARK    9  A    between atoms: C11_18  and  O4_19
REMARK   10  A    between atoms: C11_18  and  C12_21
REMARK   11  A    between atoms: C12_21  and  C13_22
REMARK   12  A    between atoms: C13_22  and  C16_25
ROOT
HETATM    1  C16 UNL     1      45.766  48.651  16.796  1.00  0.00     0.132 C
HETATM    2  C17 UNL     1      46.183  48.467  18.179  1.00  0.00     0.059 C
HETATM    3  N3  UNL     1      46.505  48.345  19.258  1.00  0.00    -0.197 NA
ENDROOT
BRANCH   1   4
HETATM    4  C13 UNL     1      46.862  48.289  15.813  1.00  0.00    -0.033 C
HETATM    5  C14 UNL     1      46.182  47.971  14.500  1.00  0.00     0.016 C
HETATM    6  C15 UNL     1      47.571  47.057  16.385  1.00  0.00     0.016 C
BRANCH   4   7
HETATM    7  C12 UNL     1      47.786  49.453  15.738  1.00  0.00     0.051 C
BRANCH   7   8
HETATM    8  C11 UNL     1      49.155  49.206  16.283  1.00  0.00     0.210 C
BRANCH   8   9
HETATM    9  C10 UNL     1      49.391  49.897  17.571  1.00  0.00     0.246 C
HETATM   10  N2  UNL     1      50.273  49.289  18.525  1.00  0.00    -0.353 N
ATOM     11  H2  UNL     1      50.717  48.400  18.293  1.00  0.00     0.163 HD
HETATM   12  O3  UNL     1      48.841  50.996  17.853  1.00  0.00    -0.271 OA
BRANCH  10  13
HETATM   13  C8  UNL     1      50.547  49.896  19.796  1.00  0.00     0.102 C
HETATM   14  C9  UNL     1      50.941  48.780  20.754  1.00  0.00     0.034 C
BRANCH  13  15
HETATM   15  C6  UNL     1      51.570  50.980  19.783  1.00  0.00     0.105 C
HETATM   16  C7  UNL     1      52.478  50.843  21.026  1.00  0.00     0.034 C
BRANCH  15  17
HETATM   17  N1  UNL     1      51.011  52.296  19.867  1.00  0.00    -0.331 N
HETATM   18  C5  UNL     1      51.098  53.253  18.813  1.00  0.00     0.360 C
HETATM   19  O2  UNL     1      51.711  52.902  17.771  1.00  0.00    -0.239 OA
ATOM     20  H1  UNL     1      50.526  52.563  20.724  1.00  0.00     0.165 HD
BRANCH  18  21
HETATM   21  O1  UNL     1      50.562  54.515  18.863  1.00  0.00    -0.303 OA
BRANCH  21  22
HETATM   22  C4  UNL     1      49.734  54.977  19.923  1.00  0.00     0.193 C
BRANCH  22  23
HETATM   23  C3  UNL     1      50.373  56.186  20.507  1.00  0.00     0.013 C
HETATM   24  C18 UNL     1      51.686  56.516  19.763  1.00  0.00     0.180 C
HETATM   25  O5  UNL     1      51.970  57.829  20.125  1.00  0.00    -0.389 OA
HETATM   26  C19 UNL     1      50.822  58.440  20.570  1.00  0.00     0.177 C
HETATM   27  C20 UNL     1      49.677  57.483  20.290  1.00  0.00    -0.007 C
HETATM   28  C21 UNL     1      48.440  57.746  21.036  1.00  0.00     0.012 C
HETATM   29  C24 UNL     1      49.306  57.693  18.845  1.00  0.00     0.012 C
HETATM   30  C22 UNL     1      47.927  59.019  20.343  1.00  0.00     0.001 C
HETATM   31  C23 UNL     1      48.497  58.998  18.958  1.00  0.00     0.001 C
BRANCH  23  32
HETATM   32  C2  UNL     1      50.821  55.988  21.938  1.00  0.00     0.010 C
HETATM   33  C1  UNL     1      51.645  54.774  22.150  1.00  0.00     0.006 C
ENDBRANCH  23  32
ENDBRANCH  22  23
ENDBRANCH  21  22
ENDBRANCH  18  21
ENDBRANCH  15  17
ENDBRANCH  13  15
ENDBRANCH  10  13
ENDBRANCH   8   9
BRANCH   8  34
HETATM   34  O4  UNL     1      50.192  49.335  15.397  1.00  0.00    -0.386 OA
ATOM     35  H4  UNL     1      51.046  49.351  15.814  1.00  0.00     0.210 HD
ENDBRANCH   8  34
ENDBRANCH   7   8
ENDBRANCH   4   7
ENDBRANCH   1   4
TORSDOF 12
ENDMDL