MODEL 1
REMARK VINA RESULT: -7.854640869      0.000      0.000
REMARK  13 active torsions:
REMARK  status: ('A' for Active; 'I' for Inactive)
REMARK    1  A    between atoms: C2_2  and  C4_4
REMARK    2  A    between atoms: C7_7  and  O1_8
REMARK    3  A    between atoms: C9_11  and  C10_12
REMARK    4  A    between atoms: C10_12  and  C11_13
REMARK    5  A    between atoms: C11_13  and  C12_14
REMARK    6  A    between atoms: C15_17  and  O2_18
REMARK    7  A    between atoms: C17_20  and  O3_21
REMARK    8  A    between atoms: C18_23  and  C19_24
REMARK    9  A    between atoms: C19_24  and  O4_25
REMARK   10  A    between atoms: O4_25  and  C20_26
REMARK       I    between atoms: C20_26  and  N1_28
REMARK   11  A    between atoms: N1_28  and  C21_30
REMARK   12  A    between atoms: C21_30  and  C22_31
REMARK   13  A    between atoms: C22_31  and  N2_32
ROOT
HETATM    1  C12 UNL     1      50.207  50.456  18.768  1.00  0.00    -0.053 C
HETATM    2  C13 UNL     1      50.804  50.598  19.981  1.00  0.00    -0.046 C
HETATM    3  C14 UNL     1      50.432  49.666  21.054  1.00  0.00     0.046 C
HETATM    4  C15 UNL     1      51.781  51.661  20.200  1.00  0.00     0.179 C
HETATM    5  C17 UNL     1      51.312  53.005  19.674  1.00  0.00     0.157 C
HETATM    6  C18 UNL     1      50.534  52.885  18.402  1.00  0.00     0.046 C
HETATM    7  C25 UNL     1      50.595  51.503  17.786  1.00  0.00     0.048 C
ENDROOT
BRANCH   1   8
HETATM    8  C11 UNL     1      49.237  49.399  18.598  1.00  0.00     0.004 C
BRANCH   8   9
HETATM    9  C10 UNL     1      48.228  49.350  17.544  1.00  0.00    -0.021 C
BRANCH   9  10
HETATM   10  C9  UNL     1      48.135  48.328  16.498  1.00  0.00     0.018 C
HETATM   11  C4  UNL     1      47.866  48.981  15.130  1.00  0.00     0.021 C
HETATM   12  C5  UNL     1      46.409  49.318  14.998  1.00  0.00     0.012 C
HETATM   13  C6  UNL     1      45.671  48.028  14.718  1.00  0.00     0.032 C
HETATM   14  C7  UNL     1      46.421  46.907  15.334  1.00  0.00     0.118 C
HETATM   15  C8  UNL     1      47.054  47.310  16.677  1.00  0.00     0.041 C
BRANCH  11  16
HETATM   16  C2  UNL     1      48.755  50.161  14.928  1.00  0.00    -0.088 C
HETATM   17  C1  UNL     1      48.298  51.395  14.991  1.00  0.00     0.014 C
HETATM   18  C3  UNL     1      50.194  49.945  14.639  1.00  0.00     0.043 C
ENDBRANCH  11  16
BRANCH  14  19
HETATM   19  O1  UNL     1      45.520  45.856  15.579  1.00  0.00    -0.396 OA
ATOM     20  H1  UNL     1      45.494  45.302  14.808  1.00  0.00     0.210 HD
ENDBRANCH  14  19
ENDBRANCH   9  10
ENDBRANCH   8   9
ENDBRANCH   1   8
BRANCH   4  21
HETATM   21  O2  UNL     1      53.044  51.363  19.692  1.00  0.00    -0.384 OA
HETATM   22  C16 UNL     1      53.393  50.056  20.017  1.00  0.00     0.202 C
ENDBRANCH   4  21
BRANCH   6  23
HETATM   23  C19 UNL     1      49.114  53.388  18.499  1.00  0.00     0.188 C
BRANCH  23  24
HETATM   24  O4  UNL     1      48.955  54.609  17.802  1.00  0.00    -0.303 OA
BRANCH  24  25
HETATM   25  C20 UNL     1      49.098  55.857  18.469  1.00  0.00     0.364 C
HETATM   26  O5  UNL     1      49.101  56.829  17.679  1.00  0.00    -0.238 OA
HETATM   27  N1  UNL     1      49.218  55.904  19.870  1.00  0.00    -0.311 N
ATOM     28  H1  UNL     1      49.221  54.994  20.330  1.00  0.00     0.170 HD
BRANCH  27  29
HETATM   29  C21 UNL     1      49.334  56.999  20.732  1.00  0.00     0.110 C
BRANCH  29  30
HETATM   30  C22 UNL     1      50.527  57.309  21.521  1.00  0.00     0.102 C
BRANCH  30  31
HETATM   31  N2  UNL     1      51.695  56.559  21.563  1.00  0.00    -0.397 N
HETATM   32  C23 UNL     1      52.947  57.247  21.426  1.00  0.00     0.148 C
HETATM   33  C24 UNL     1      51.727  55.568  22.598  1.00  0.00     0.148 C
ENDBRANCH  30  31
ENDBRANCH  29  30
ENDBRANCH  27  29
ENDBRANCH  24  25
ENDBRANCH  23  24
ENDBRANCH   6  23
BRANCH   5  34
HETATM   34  O3  UNL     1      52.441  53.812  19.538  1.00  0.00    -0.392 OA
ATOM     35  H3  UNL     1      52.300  54.368  18.781  1.00  0.00     0.210 HD
ENDBRANCH   5  34
TORSDOF 13
ENDMDL