MODEL 4
REMARK VINA RESULT: -8.283685578      3.306      8.731
REMARK  12 active torsions:
REMARK  status: ('A' for Active; 'I' for Inactive)
REMARK    1  A    between atoms: C3_4  and  O2_5
REMARK    2  A    between atoms: O2_5  and  C4_6
REMARK    3  A    between atoms: C10_12  and  C11_13
REMARK    4  A    between atoms: C11_13  and  C12_14
REMARK    5  A    between atoms: C12_14  and  O3_17
REMARK    6  A    between atoms: C19_23  and  C20_24
REMARK    7  A    between atoms: C20_24  and  O4_25
REMARK    8  A    between atoms: C21_27  and  O5_28
REMARK    9  A    between atoms: O5_28  and  C22_29
REMARK   10  A    between atoms: C22_29  and  C23_30
REMARK   11  A    between atoms: C23_30  and  C24_31
REMARK   12  A    between atoms: C24_31  and  C25_32
ROOT
HETATM    1  C1  UNL     1      50.708  49.074  20.661  1.00  0.00     0.042 C
HETATM    2  C2  UNL     1      50.570  50.188  19.689  1.00  0.00     0.150 C
HETATM    3  O1  UNL     1      51.767  50.848  19.402  1.00  0.00    -0.354 OA
HETATM    4  C3  UNL     1      51.461  52.105  18.884  1.00  0.00     0.261 C
HETATM    5  C18 UNL     1      50.641  52.000  17.588  1.00  0.00     0.070 C
HETATM    6  C19 UNL     1      49.412  51.141  17.815  1.00  0.00     0.045 C
HETATM    7  C21 UNL     1      49.973  49.807  18.351  1.00  0.00     0.156 C
ENDROOT
BRANCH   4   8
HETATM    8  O2  UNL     1      50.716  52.781  19.797  1.00  0.00    -0.350 OA
BRANCH   8   9
HETATM    9  C4  UNL     1      51.006  54.100  19.994  1.00  0.00     0.065 C
HETATM   10  C5  UNL     1      51.962  54.695  19.003  1.00  0.00     0.043 C
HETATM   11  C6  UNL     1      52.252  56.109  19.452  1.00  0.00    -0.011 C
HETATM   12  C7  UNL     1      52.861  56.180  20.815  1.00  0.00     0.009 C
HETATM   13  C15 UNL     1      51.001  56.964  19.459  1.00  0.00     0.014 C
HETATM   14  C8  UNL     1      51.852  55.611  21.796  1.00  0.00    -0.011 C
HETATM   15  C9  UNL     1      50.551  56.388  21.763  1.00  0.00     0.014 C
HETATM   16  C17 UNL     1      51.626  54.185  21.389  1.00  0.00     0.043 C
HETATM   17  C10 UNL     1      49.958  56.373  20.379  1.00  0.00    -0.034 C
HETATM   18  C16 UNL     1      49.763  54.886  20.021  1.00  0.00     0.048 C
BRANCH  17  19
HETATM   19  C11 UNL     1      48.609  56.920  20.228  1.00  0.00     0.046 C
BRANCH  19  20
HETATM   20  C12 UNL     1      48.245  58.289  20.527  1.00  0.00     0.051 C
HETATM   21  C13 UNL     1      48.736  58.821  21.851  1.00  0.00     0.045 C
HETATM   22  C14 UNL     1      46.701  58.339  20.628  1.00  0.00     0.045 C
BRANCH  20  23
HETATM   23  O3  UNL     1      48.534  59.245  19.564  1.00  0.00    -0.391 OA
ATOM     24  H3  UNL     1      49.295  59.092  19.016  1.00  0.00     0.210 HD
ENDBRANCH  20  23
ENDBRANCH  19  20
ENDBRANCH  17  19
ENDBRANCH   8   9
ENDBRANCH   4   8
BRANCH   6  25
HETATM   25  C20 UNL     1      48.714  50.992  16.503  1.00  0.00     0.171 C
BRANCH  25  26
HETATM   26  O4  UNL     1      49.073  49.851  15.799  1.00  0.00    -0.400 OA
ATOM     27  H4  UNL     1      48.346  49.420  15.365  1.00  0.00     0.209 HD
ENDBRANCH  25  26
ENDBRANCH   6  25
BRANCH   7  28
HETATM   28  O5  UNL     1      49.037  48.822  18.420  1.00  0.00    -0.383 OA
BRANCH  28  29
HETATM   29  C22 UNL     1      47.915  49.094  19.192  1.00  0.00     0.168 C
BRANCH  29  30
HETATM   30  C23 UNL     1      46.610  48.720  18.600  1.00  0.00     0.035 C
BRANCH  30  31
HETATM   31  C24 UNL     1      46.809  47.855  17.388  1.00  0.00     0.101 C
BRANCH  31  32
HETATM   32  C25 UNL     1      45.752  48.115  16.393  1.00  0.00     0.231 C
HETATM   33  N1  UNL     1      46.164  48.815  15.207  1.00  0.00    -0.062 NA
HETATM   34  O6  UNL     1      44.564  47.767  16.525  1.00  0.00    -0.277 OA
ENDBRANCH  31  32
ENDBRANCH  30  31
ENDBRANCH  29  30
ENDBRANCH  28  29
ENDBRANCH   7  28
TORSDOF 12
ENDMDL