MODEL 5
REMARK VINA RESULT: -8.442731544      2.691      8.668
REMARK  14 active torsions:
REMARK  status: ('A' for Active; 'I' for Inactive)
REMARK    1  A    between atoms: C2_2  and  C3_3
REMARK    2  A    between atoms: C3_3  and  C4_4
REMARK    3  A    between atoms: C4_4  and  C5_5
REMARK    4  A    between atoms: C5_5  and  C6_6
REMARK    5  A    between atoms: C6_6  and  C7_7
REMARK    6  A    between atoms: C7_7  and  O2_9
REMARK    7  A    between atoms: O2_9  and  C8_10
REMARK    8  A    between atoms: C10_12  and  C11_13
REMARK    9  A    between atoms: C14_16  and  C15_17
REMARK   10  A    between atoms: C15_17  and  O3_18
REMARK   11  A    between atoms: C15_17  and  C16_20
REMARK   12  A    between atoms: C16_20  and  C18_22
REMARK   13  A    between atoms: C18_22  and  O4_24
REMARK   14  A    between atoms: C22_29  and  O6_30
ROOT
HETATM    1  C8  UNL     1      50.592  53.627  19.151  1.00  0.00     0.141 C
HETATM    2  C9  UNL     1      49.747  53.282  17.935  1.00  0.00     0.065 C
HETATM    3  C10 UNL     1      49.217  51.902  17.905  1.00  0.00     0.128 C
HETATM    4  O5  UNL     1      49.964  50.921  18.491  1.00  0.00    -0.377 OA
HETATM    5  C21 UNL     1      50.425  51.289  19.723  1.00  0.00     0.157 C
HETATM    6  C22 UNL     1      51.255  50.297  20.435  1.00  0.00     0.148 C
HETATM    7  C23 UNL     1      52.540  50.979  20.886  1.00  0.00     0.039 C
HETATM    8  C24 UNL     1      52.284  52.477  20.648  1.00  0.00    -0.007 C
HETATM    9  C25 UNL     1      51.734  53.095  21.878  1.00  0.00     0.010 C
HETATM   10  C26 UNL     1      51.412  52.438  19.472  1.00  0.00     0.050 C
ENDROOT
BRANCH   3  11
HETATM   11  C11 UNL     1      49.102  51.521  16.418  1.00  0.00     0.015 C
HETATM   12  C12 UNL     1      50.367  50.904  15.919  1.00  0.00     0.007 C
HETATM   13  C13 UNL     1      49.929  49.954  14.787  1.00  0.00     0.007 C
HETATM   14  C14 UNL     1      48.594  49.455  15.222  1.00  0.00     0.015 C
HETATM   15  C20 UNL     1      48.043  50.501  16.183  1.00  0.00     0.014 C
BRANCH  14  16
HETATM   16  C15 UNL     1      47.572  49.196  14.193  1.00  0.00     0.128 C
BRANCH  16  17
HETATM   17  O3  UNL     1      47.427  50.420  13.464  1.00  0.00    -0.395 OA
ATOM     18  H3  UNL     1      47.175  50.172  12.583  1.00  0.00     0.210 HD
ENDBRANCH  16  17
BRANCH  16  19
HETATM   19  C16 UNL     1      46.193  48.831  14.617  1.00  0.00     0.039 C
HETATM   20  C17 UNL     1      45.341  48.576  13.335  1.00  0.00     0.015 C
BRANCH  19  21
HETATM   21  C18 UNL     1      46.034  47.570  15.410  1.00  0.00     0.120 C
HETATM   22  C19 UNL     1      45.296  47.985  16.699  1.00  0.00     0.040 C
BRANCH  21  23
HETATM   23  O4  UNL     1      45.232  46.637  14.721  1.00  0.00    -0.396 OA
ATOM     24  H4  UNL     1      44.317  46.732  14.961  1.00  0.00     0.210 HD
ENDBRANCH  21  23
ENDBRANCH  19  21
ENDBRANCH  16  19
ENDBRANCH  14  16
ENDBRANCH   3  11
BRANCH   1  25
HETATM   25  O2  UNL     1      51.337  54.770  18.809  1.00  0.00    -0.315 OA
BRANCH  25  26
HETATM   26  C7  UNL     1      51.200  55.904  19.559  1.00  0.00     0.259 C
HETATM   27  O1  UNL     1      52.036  56.854  19.492  1.00  0.00    -0.265 OA
BRANCH  26  28
HETATM   28  C6  UNL     1      50.060  56.120  20.513  1.00  0.00     0.111 C
BRANCH  28  29
HETATM   29  C5  UNL     1      50.388  57.132  21.556  1.00  0.00     0.010 C
BRANCH  29  30
HETATM   30  C4  UNL     1      49.252  58.097  21.704  1.00  0.00     0.004 C
BRANCH  30  31
HETATM   31  C3  UNL     1      48.171  57.870  20.698  1.00  0.00     0.026 C
BRANCH  31  32
HETATM   32  C2  UNL     1      47.954  59.092  19.890  1.00  0.00    -0.037 C
HETATM   33  C1  UNL     1      48.354  59.121  18.640  1.00  0.00     0.007 C
ENDBRANCH  31  32
ENDBRANCH  30  31
ENDBRANCH  29  30
ENDBRANCH  28  29
ENDBRANCH  26  28
ENDBRANCH  25  26
ENDBRANCH   1  25
BRANCH   6  34
HETATM   34  O6  UNL     1      51.487  49.125  19.753  1.00  0.00    -0.393 OA
ATOM     35  H6  UNL     1      52.353  49.042  19.371  1.00  0.00     0.210 HD
ENDBRANCH   6  34
TORSDOF 14
ENDMDL