MODEL 2
REMARK VINA RESULT: -9.507782716      1.108      1.424
REMARK  10 active torsions:
REMARK  status: ('A' for Active; 'I' for Inactive)
REMARK    1  A    between atoms: C6_6  and  N1_7
REMARK    2  A    between atoms: N1_7  and  C7_8
REMARK    3  A    between atoms: N1_7  and  N3_27
REMARK    4  A    between atoms: C7_8  and  C8_9
REMARK    5  A    between atoms: C8_9  and  C9_10
REMARK    6  A    between atoms: C9_10  and  C10_11
REMARK    7  A    between atoms: C10_11  and  N2_12
REMARK       I    between atoms: N2_12  and  C11_14
REMARK    8  A    between atoms: C11_14  and  C12_16
REMARK    9  A    between atoms: C19_23  and  C20_24
REMARK   10  A    between atoms: N3_27  and  N4_29
ROOT
HETATM    1  C9  UNL     1      51.318  52.575  21.490  1.00  0.00     0.021 C
ENDROOT
BRANCH   1   2
HETATM    2  C8  UNL     1      51.591  53.934  22.158  1.00  0.00     0.023 C
BRANCH   2   3
HETATM    3  C7  UNL     1      51.686  54.947  21.047  1.00  0.00     0.150 C
BRANCH   3   4
HETATM    4  N1  UNL     1      51.570  56.290  21.541  1.00  0.00    -0.278 N
BRANCH   4   5
HETATM    5  C6  UNL     1      50.357  56.984  21.362  1.00  0.00     0.026 C
HETATM    6  C5  UNL     1      50.041  58.104  21.963  1.00  0.00     0.001 C
HETATM    7  C4  UNL     1      48.751  58.746  21.708  1.00  0.00     0.038 C
HETATM    8  C2  UNL     1      48.156  58.482  20.366  1.00  0.00    -0.044 C
HETATM    9  C1  UNL     1      46.716  57.963  20.474  1.00  0.00     0.015 C
HETATM   10  C3  UNL     1      48.137  59.811  19.601  1.00  0.00     0.015 C
HETATM   11  C22 UNL     1      48.905  57.507  19.518  1.00  0.00     0.015 C
HETATM   12  C21 UNL     1      49.371  56.367  20.403  1.00  0.00     0.059 C
ENDBRANCH   4   5
BRANCH   4  13
HETATM   13  N3  UNL     1      52.625  56.916  22.190  1.00  0.00    -0.180 N
ATOM     14  H3  UNL     1      52.624  56.906  23.210  1.00  0.00     0.215 HD
BRANCH  13  15
HETATM   15  N4  UNL     1      53.671  57.548  21.560  1.00  0.00    -0.024 N
HETATM   16  O4  UNL     1      54.345  56.937  20.714  1.00  0.00    -0.515 OA
HETATM   17  O5  UNL     1      53.971  58.848  21.868  1.00  0.00    -0.515 OA
ENDBRANCH  13  15
ENDBRANCH   4  13
ENDBRANCH   3   4
ENDBRANCH   2   3
ENDBRANCH   1   2
BRANCH   1  18
HETATM   18  C10 UNL     1      50.945  52.895  20.073  1.00  0.00     0.122 C
BRANCH  18  19
HETATM   19  N2  UNL     1      50.891  51.696  19.298  1.00  0.00    -0.361 N
HETATM   20  C11 UNL     1      49.941  51.497  18.286  1.00  0.00     0.223 C
HETATM   21  O1  UNL     1      49.111  52.397  18.042  1.00  0.00    -0.273 OA
ATOM     22  H2  UNL     1      51.568  50.958  19.488  1.00  0.00     0.162 HD
BRANCH  20  23
HETATM   23  C12 UNL     1      49.856  50.256  17.466  1.00  0.00     0.096 C
HETATM   24  C13 UNL     1      48.850  49.289  17.977  1.00  0.00    -0.000 C
HETATM   25  C14 UNL     1      47.426  49.642  17.648  1.00  0.00     0.006 C
HETATM   26  C17 UNL     1      49.021  47.998  17.166  1.00  0.00     0.010 C
HETATM   27  C15 UNL     1      47.103  49.053  16.316  1.00  0.00     0.005 C
HETATM   28  C16 UNL     1      48.406  48.436  15.854  1.00  0.00    -0.013 C
HETATM   29  C18 UNL     1      49.204  49.484  15.157  1.00  0.00     0.020 C
HETATM   30  C19 UNL     1      49.729  50.572  16.003  1.00  0.00     0.100 C
BRANCH  30  31
HETATM   31  C20 UNL     1      51.012  51.043  15.424  1.00  0.00     0.177 C
HETATM   32  O2  UNL     1      51.436  50.607  14.327  1.00  0.00    -0.648 OA
HETATM   33  O3  UNL     1      51.764  51.988  16.109  1.00  0.00    -0.648 OA
ENDBRANCH  30  31
ENDBRANCH  20  23
ENDBRANCH  18  19
ENDBRANCH   1  18
TORSDOF 10
ENDMDL