MODEL 1
REMARK VINA RESULT: -9.189651056      0.000      0.000
REMARK  14 active torsions:
REMARK  status: ('A' for Active; 'I' for Inactive)
REMARK    1  A    between atoms: C2_2  and  C3_3
REMARK    2  A    between atoms: C3_3  and  C4_4
REMARK    3  A    between atoms: C3_3  and  C22_29
REMARK    4  A    between atoms: C5_5  and  C6_6
REMARK    5  A    between atoms: C6_6  and  C7_7
REMARK    6  A    between atoms: C6_6  and  O2_9
REMARK    7  A    between atoms: O2_9  and  C8_10
REMARK    8  A    between atoms: C8_10  and  C9_12
REMARK    9  A    between atoms: C9_12  and  O4_13
REMARK   10  A    between atoms: C18_23  and  O5_24
REMARK   11  A    between atoms: C22_29  and  C23_30
REMARK   12  A    between atoms: C23_30  and  C24_31
REMARK   13  A    between atoms: C24_31  and  C25_32
REMARK   14  A    between atoms: C25_32  and  O6_34
ROOT
HETATM    1  C8  UNL     1      52.507  52.422  17.258  1.00  0.00     0.295 C
HETATM    2  O3  UNL     1      53.586  52.112  16.707  1.00  0.00    -0.262 OA
ENDROOT
BRANCH   1   3
HETATM    3  O2  UNL     1      51.367  52.419  16.490  1.00  0.00    -0.303 OA
BRANCH   3   4
HETATM    4  C6  UNL     1      50.539  51.282  16.482  1.00  0.00     0.215 C
BRANCH   4   5
HETATM    5  C5  UNL     1      49.137  51.525  16.865  1.00  0.00     0.009 C
HETATM    6  C4  UNL     1      48.290  50.670  17.390  1.00  0.00    -0.023 C
BRANCH   6   7
HETATM    7  C3  UNL     1      48.588  49.261  17.704  1.00  0.00     0.007 C
BRANCH   7   8
HETATM    8  C2  UNL     1      48.536  48.437  16.400  1.00  0.00     0.004 C
HETATM    9  C1  UNL     1      49.117  47.070  16.660  1.00  0.00     0.006 C
ENDBRANCH   7   8
BRANCH   7  10
HETATM   10  C22 UNL     1      47.420  48.773  18.562  1.00  0.00     0.008 C
BRANCH  10  11
HETATM   11  C23 UNL     1      46.096  48.993  17.913  1.00  0.00     0.003 C
BRANCH  11  12
HETATM   12  C24 UNL     1      45.321  47.706  17.882  1.00  0.00     0.031 C
BRANCH  12  13
HETATM   13  C25 UNL     1      44.538  47.521  16.610  1.00  0.00     0.114 C
HETATM   14  C26 UNL     1      45.565  47.437  15.479  1.00  0.00     0.039 C
BRANCH  13  15
HETATM   15  O6  UNL     1      43.800  46.359  16.643  1.00  0.00    -0.396 OA
ATOM     16  H6  UNL     1      43.465  46.139  15.782  1.00  0.00     0.210 HD
ENDBRANCH  13  15
ENDBRANCH  12  13
ENDBRANCH  11  12
ENDBRANCH  10  11
ENDBRANCH   7  10
ENDBRANCH   6   7
ENDBRANCH   4   5
BRANCH   4  17
HETATM   17  C7  UNL     1      50.640  50.672  15.127  1.00  0.00     0.267 C
HETATM   18  O1  UNL     1      51.614  50.878  14.446  1.00  0.00    -0.304 OA
ENDBRANCH   4  17
ENDBRANCH   3   4
ENDBRANCH   1   3
BRANCH   1  19
HETATM   19  C9  UNL     1      52.412  52.790  18.686  1.00  0.00     0.149 C
HETATM   20  C10 UNL     1      51.835  51.643  19.510  1.00  0.00     0.049 C
HETATM   21  C11 UNL     1      51.243  52.439  20.681  1.00  0.00     0.009 C
HETATM   22  C12 UNL     1      50.557  53.555  19.947  1.00  0.00    -0.002 C
HETATM   23  C13 UNL     1      51.446  53.929  18.825  1.00  0.00     0.035 C
HETATM   24  C21 UNL     1      50.122  54.679  20.827  1.00  0.00     0.001 C
HETATM   25  C14 UNL     1      52.219  55.204  19.027  1.00  0.00     0.009 C
HETATM   26  C15 UNL     1      52.461  55.520  20.479  1.00  0.00     0.012 C
HETATM   27  C16 UNL     1      51.179  55.610  21.268  1.00  0.00    -0.014 C
HETATM   28  C17 UNL     1      51.541  55.490  22.734  1.00  0.00     0.018 C
HETATM   29  C18 UNL     1      50.641  57.031  21.070  1.00  0.00     0.126 C
HETATM   30  C19 UNL     1      49.201  56.881  20.662  1.00  0.00     0.033 C
HETATM   31  C20 UNL     1      49.088  55.496  20.062  1.00  0.00     0.008 C
BRANCH  19  32
HETATM   32  O4  UNL     1      53.661  53.059  19.241  1.00  0.00    -0.379 OA
ATOM     33  H4  UNL     1      53.654  52.983  20.188  1.00  0.00     0.211 HD
ENDBRANCH  19  32
BRANCH  29  34
HETATM   34  O5  UNL     1      50.687  57.771  22.231  1.00  0.00    -0.395 OA
ATOM     35  H5  UNL     1      51.571  58.039  22.451  1.00  0.00     0.210 HD
ENDBRANCH  29  34
ENDBRANCH   1  19
TORSDOF 14
ENDMDL