MODEL 3
REMARK VINA RESULT: -7.796391834      2.420      3.647
REMARK  13 active torsions:
REMARK  status: ('A' for Active; 'I' for Inactive)
REMARK    1  A    between atoms: C2_2  and  C3_3
REMARK    2  A    between atoms: C3_3  and  C4_4
REMARK    3  A    between atoms: C4_4  and  C5_5
REMARK    4  A    between atoms: C5_5  and  C6_6
REMARK    5  A    between atoms: C6_6  and  C7_7
REMARK    6  A    between atoms: C7_7  and  C8_8
REMARK    7  A    between atoms: C8_8  and  C9_9
REMARK    8  A    between atoms: C9_9  and  C10_10
REMARK    9  A    between atoms: C10_10  and  C11_11
REMARK   10  A    between atoms: C11_11  and  O1_12
REMARK   11  A    between atoms: C12_14  and  N1_15
REMARK   12  A    between atoms: C25_30  and  O4_31
REMARK   13  A    between atoms: C26_33  and  O5_34
ROOT
HETATM    1  C11 UNL     1      49.936  53.556  18.390  1.00  0.00     0.118 C
HETATM    2  C12 UNL     1      50.250  52.252  18.986  1.00  0.00     0.264 C
HETATM    3  C16 UNL     1      51.406  52.168  19.942  1.00  0.00     0.025 C
HETATM    4  C17 UNL     1      51.894  50.731  19.989  1.00  0.00     0.012 C
HETATM    5  C18 UNL     1      51.079  52.537  21.359  1.00  0.00     0.085 C
HETATM    6  C19 UNL     1      51.403  53.966  21.583  1.00  0.00     0.141 C
HETATM    7  O2  UNL     1      51.064  54.400  22.657  1.00  0.00    -0.297 OA
HETATM    8  C20 UNL     1      52.066  54.997  20.757  1.00  0.00     0.162 C
HETATM    9  C21 UNL     1      52.452  56.189  21.512  1.00  0.00     0.141 C
HETATM   10  O3  UNL     1      52.753  56.266  22.659  1.00  0.00    -0.297 OA
HETATM   11  C22 UNL     1      52.399  57.319  20.551  1.00  0.00     0.086 C
HETATM   12  C23 UNL     1      51.189  56.915  19.740  1.00  0.00     0.027 C
HETATM   13  C24 UNL     1      49.970  57.258  20.521  1.00  0.00     0.014 C
HETATM   14  C25 UNL     1      51.352  55.388  19.522  1.00  0.00     0.107 C
HETATM   15  C26 UNL     1      50.042  54.779  19.240  1.00  0.00     0.190 C
ENDROOT
BRANCH   1  16
HETATM   16  C10 UNL     1      48.529  53.592  17.875  1.00  0.00     0.043 C
BRANCH  16  17
HETATM   17  C9  UNL     1      48.262  53.901  16.461  1.00  0.00     0.003 C
BRANCH  17  18
HETATM   18  C8  UNL     1      47.468  55.143  16.232  1.00  0.00     0.000 C
BRANCH  18  19
HETATM   19  C7  UNL     1      48.249  56.396  16.604  1.00  0.00     0.000 C
BRANCH  19  20
HETATM   20  C6  UNL     1      47.685  57.565  15.846  1.00  0.00     0.000 C
BRANCH  20  21
HETATM   21  C5  UNL     1      47.009  58.574  16.738  1.00  0.00     0.000 C
BRANCH  21  22
HETATM   22  C4  UNL     1      47.859  58.776  17.964  1.00  0.00     0.000 C
BRANCH  22  23
HETATM   23  C3  UNL     1      47.165  59.609  19.011  1.00  0.00    -0.000 C
BRANCH  23  24
HETATM   24  C2  UNL     1      47.558  61.082  18.858  1.00  0.00    -0.005 C
HETATM   25  C1  UNL     1      46.324  61.954  18.818  1.00  0.00     0.005 C
ENDBRANCH  23  24
ENDBRANCH  22  23
ENDBRANCH  21  22
ENDBRANCH  20  21
ENDBRANCH  19  20
ENDBRANCH  18  19
ENDBRANCH  17  18
ENDBRANCH  16  17
ENDBRANCH   1  16
BRANCH   1  26
HETATM   26  O1  UNL     1      50.779  53.776  17.312  1.00  0.00    -0.385 OA
ATOM     27  H1  UNL     1      51.486  53.144  17.369  1.00  0.00     0.210 HD
ENDBRANCH   1  26
BRANCH   2  28
HETATM   28  N1  UNL     1      50.294  51.108  18.207  1.00  0.00     0.104 N
HETATM   29  C13 UNL     1      49.778  49.813  18.287  1.00  0.00     0.308 A
HETATM   30  C14 UNL     1      49.437  50.666  17.177  1.00  0.00     0.248 A
HETATM   31  C15 UNL     1      50.153  50.351  15.850  1.00  0.00     0.045 C
ENDBRANCH   2  28
BRANCH  15  32
HETATM   32  O5  UNL     1      49.186  54.743  20.355  1.00  0.00    -0.389 OA
ATOM     33  H5  UNL     1      49.647  54.869  21.177  1.00  0.00     0.210 HD
ENDBRANCH  15  32
BRANCH  14  34
HETATM   34  O4  UNL     1      52.150  55.349  18.374  1.00  0.00    -0.385 OA
ATOM     35  H4  UNL     1      52.821  54.677  18.398  1.00  0.00     0.210 HD
ENDBRANCH  14  34
TORSDOF 13
ENDMDL