MODEL 4
REMARK VINA RESULT: -9.146080830      1.136      1.466
REMARK  12 active torsions:
REMARK  status: ('A' for Active; 'I' for Inactive)
REMARK    1  A    between atoms: C2_2  and  C4_4
REMARK    2  A    between atoms: C11_12  and  C12_13
REMARK    3  A    between atoms: C12_13  and  O2_15
REMARK    4  A    between atoms: C12_13  and  C14_17
REMARK    5  A    between atoms: C15_18  and  C16_19
REMARK    6  A    between atoms: C16_19  and  O3_20
REMARK    7  A    between atoms: C16_19  and  C18_24
REMARK    8  A    between atoms: O3_20  and  C17_21
REMARK    9  A    between atoms: C18_24  and  O5_25
REMARK   10  A    between atoms: C18_24  and  C19_27
REMARK   11  A    between atoms: C19_27  and  C20_28
REMARK   12  A    between atoms: C20_28  and  C22_30
ROOT
HETATM    1  C12 UNL     1      49.898  50.463  18.134  1.00  0.00     0.079 C
HETATM    2  C13 UNL     1      49.666  49.495  19.297  1.00  0.00     0.051 C
ENDROOT
BRANCH   1   3
HETATM    3  C11 UNL     1      49.370  49.742  16.875  1.00  0.00     0.066 A
HETATM    4  C7  UNL     1      47.897  49.913  16.652  1.00  0.00     0.011 A
HETATM    5  C6  UNL     1      48.185  50.491  15.305  1.00  0.00     0.029 A
HETATM    6  C8  UNL     1      47.191  48.624  16.699  1.00  0.00     0.044 C
HETATM    7  C5  UNL     1      47.598  49.819  14.132  1.00  0.00     0.019 C
HETATM    8  C24 UNL     1      49.655  50.311  15.567  1.00  0.00     0.093 A
HETATM    9  C4  UNL     1      46.314  49.107  14.401  1.00  0.00     0.043 C
HETATM   10  C10 UNL     1      46.559  48.102  15.475  1.00  0.00     0.136 C
HETATM   11  O1  UNL     1      45.366  47.779  16.122  1.00  0.00    -0.384 OA
HETATM   12  C9  UNL     1      45.713  48.686  17.105  1.00  0.00     0.175 C
HETATM   13  C25 UNL     1      50.606  49.903  14.657  1.00  0.00     0.207 A
HETATM   14  O6  UNL     1      50.580  51.253  15.276  1.00  0.00    -0.374 OA
BRANCH   9  15
HETATM   15  C2  UNL     1      45.854  48.417  13.174  1.00  0.00    -0.086 C
HETATM   16  C1  UNL     1      45.376  47.183  13.228  1.00  0.00     0.014 C
HETATM   17  C3  UNL     1      45.939  49.138  11.881  1.00  0.00     0.043 C
ENDBRANCH   9  15
ENDBRANCH   1   3
BRANCH   1  18
HETATM   18  O2  UNL     1      51.267  50.607  17.993  1.00  0.00    -0.386 OA
ATOM     19  H2  UNL     1      51.616  49.772  17.705  1.00  0.00     0.211 HD
ENDBRANCH   1  18
BRANCH   1  20
HETATM   20  C14 UNL     1      49.151  51.717  18.207  1.00  0.00     0.009 C
HETATM   21  C15 UNL     1      49.635  53.067  18.087  1.00  0.00     0.007 C
BRANCH  21  22
HETATM   22  C16 UNL     1      50.557  53.764  18.957  1.00  0.00     0.184 C
BRANCH  22  23
HETATM   23  O3  UNL     1      51.824  53.986  18.575  1.00  0.00    -0.294 OA
BRANCH  23  24
HETATM   24  C17 UNL     1      52.818  53.018  18.505  1.00  0.00     0.373 C
HETATM   25  N1  UNL     1      53.321  52.276  19.585  1.00  0.00    -0.032 NA
HETATM   26  O4  UNL     1      53.247  52.852  17.367  1.00  0.00    -0.242 OA
ENDBRANCH  23  24
ENDBRANCH  22  23
BRANCH  22  27
HETATM   27  C18 UNL     1      49.874  55.080  19.480  1.00  0.00     0.151 C
BRANCH  27  28
HETATM   28  O5  UNL     1      49.319  55.658  18.345  1.00  0.00    -0.393 OA
ATOM     29  H5  UNL     1      50.067  55.908  17.815  1.00  0.00     0.210 HD
ENDBRANCH  27  28
BRANCH  27  30
HETATM   30  C19 UNL     1      50.866  56.036  20.030  1.00  0.00     0.039 C
BRANCH  30  31
HETATM   31  C20 UNL     1      50.587  56.410  21.453  1.00  0.00    -0.016 C
HETATM   32  C21 UNL     1      51.717  56.079  22.386  1.00  0.00     0.010 C
BRANCH  31  33
HETATM   33  C22 UNL     1      50.235  57.864  21.632  1.00  0.00    -0.000 C
HETATM   34  C23 UNL     1      48.761  58.076  21.386  1.00  0.00     0.005 C
ENDBRANCH  31  33
ENDBRANCH  30  31
ENDBRANCH  27  30
ENDBRANCH  22  27
ENDBRANCH  21  22
ENDBRANCH   1  20
TORSDOF 12
ENDMDL