MODEL 2
REMARK VINA RESULT: -7.291102636      3.197      5.248
REMARK  3 active torsions:
REMARK  status: ('A' for Active; 'I' for Inactive)
REMARK    1  A    between atoms: C5_5  and  O1_6
REMARK    2  A    between atoms: C8_10  and  O2_11
REMARK    3  A    between atoms: C11_16  and  O4_17
ROOT
HETATM    1  C1  UNL     1      40.665  15.119  27.062  1.00  0.00     0.016 C
HETATM    2  C2  UNL     1      39.957  16.376  27.451  1.00  0.00    -0.033 C
HETATM    3  C3  UNL     1      39.149  16.832  26.239  1.00  0.00     0.012 C
HETATM    4  C4  UNL     1      40.074  17.522  25.262  1.00  0.00     0.032 C
HETATM    5  C5  UNL     1      40.474  18.840  25.878  1.00  0.00     0.118 C
HETATM    6  C6  UNL     1      40.717  18.772  27.345  1.00  0.00     0.039 C
HETATM    7  C7  UNL     1      40.977  17.389  27.860  1.00  0.00     0.026 C
HETATM    8  C8  UNL     1      40.904  17.354  29.362  1.00  0.00     0.134 C
HETATM    9  C9  UNL     1      39.419  17.239  29.604  1.00  0.00     0.077 C
HETATM   10  C10 UNL     1      39.084  16.878  30.999  1.00  0.00     0.069 A
HETATM   11  O3  UNL     1      39.355  17.480  32.109  1.00  0.00    -0.291 OA
HETATM   12  C11 UNL     1      38.869  16.819  33.144  1.00  0.00     0.183 A
HETATM   13  C12 UNL     1      38.233  15.701  32.669  1.00  0.00     0.073 A
HETATM   14  C13 UNL     1      38.368  15.735  31.313  1.00  0.00    -0.023 A
HETATM   15  C14 UNL     1      37.895  14.804  30.247  1.00  0.00     0.042 C
HETATM   16  C15 UNL     1      38.998  14.824  29.179  1.00  0.00     0.011 C
HETATM   17  C16 UNL     1      39.007  16.208  28.608  1.00  0.00     0.007 C
ENDROOT
BRANCH   5  18
HETATM   18  O1  UNL     1      39.431  19.745  25.575  1.00  0.00    -0.396 OA
ATOM     19  H1  UNL     1      39.700  20.200  24.786  1.00  0.00     0.210 HD
ENDBRANCH   5  18
BRANCH   8  20
HETATM   20  O2  UNL     1      41.483  18.436  29.972  1.00  0.00    -0.394 OA
ATOM     21  H2  UNL     1      41.065  18.689  30.787  1.00  0.00     0.210 HD
ENDBRANCH   8  20
BRANCH  12  22
HETATM   22  O4  UNL     1      38.964  17.161  34.488  1.00  0.00    -0.341 OA
ATOM     23  H4  UNL     1      38.272  17.146  35.139  1.00  0.00     0.220 HD
ENDBRANCH  12  22
TORSDOF 3
ENDMDL