MODEL 1
REMARK VINA RESULT: -6.052395906      0.000      0.000
REMARK  3 active torsions:
REMARK  status: ('A' for Active; 'I' for Inactive)
REMARK    1  A    between atoms: C2_2  and  O1_3
REMARK    2  A    between atoms: C4_6  and  C5_7
REMARK    3  A    between atoms: C5_7  and  N1_8
ROOT
HETATM    1  C1  UNL     1      39.092  14.821  26.574  1.00  0.00     0.051 C
HETATM    2  C2  UNL     1      39.392  14.983  28.085  1.00  0.00     0.083 C
HETATM    3  C3  UNL     1      38.237  14.422  28.750  1.00  0.00     0.028 C
HETATM    4  C4  UNL     1      37.989  14.599  30.173  1.00  0.00     0.003 C
HETATM    5  C6  UNL     1      38.427  15.268  31.409  1.00  0.00     0.049 C
HETATM    6  C7  UNL     1      38.735  16.703  31.314  1.00  0.00     0.020 C
HETATM    7  C8  UNL     1      39.875  17.271  30.677  1.00  0.00     0.025 C
HETATM    8  C9  UNL     1      39.750  18.816  30.749  1.00  0.00     0.022 C
HETATM    9  C10 UNL     1      41.282  16.984  31.222  1.00  0.00     0.106 C
HETATM   10  C11 UNL     1      41.485  16.757  32.606  1.00  0.00     0.050 C
HETATM   11  C12 UNL     1      41.363  15.870  30.202  1.00  0.00     0.084 C
HETATM   12  C13 UNL     1      40.483  16.799  29.451  1.00  0.00     0.119 C
HETATM   13  O2  UNL     1      41.453  17.842  29.290  1.00  0.00    -0.227 OA
HETATM   14  O3  UNL     1      41.990  17.969  30.513  1.00  0.00    -0.228 OA
HETATM   15  C14 UNL     1      39.738  16.407  28.289  1.00  0.00     0.022 C
HETATM   16  C15 UNL     1      40.680  16.776  27.116  1.00  0.00     0.021 C
HETATM   17  C16 UNL     1      38.495  17.229  28.026  1.00  0.00     0.021 C
ENDROOT
BRANCH   4  18
HETATM   18  C5  UNL     1      36.928  13.833  30.439  1.00  0.00    -0.042 C
BRANCH  18  19
HETATM   19  N1  UNL     1      36.009  12.955  30.611  1.00  0.00    -0.365 N
ATOM     20  H12 UNL     1      35.374  13.613  30.157  1.00  0.00     0.165 HD
ATOM     21  H11 UNL     1      35.387  12.172  30.813  1.00  0.00     0.165 HD
ENDBRANCH  18  19
ENDBRANCH   4  18
BRANCH   2  22
HETATM   22  O1  UNL     1      40.497  14.114  28.258  1.00  0.00    -0.385 OA
ATOM     23  H1  UNL     1      41.121  14.464  27.632  1.00  0.00     0.211 HD
ENDBRANCH   2  22
TORSDOF 3
ENDMDL