MODEL 1
REMARK VINA RESULT: -6.368203981      0.000      0.000
REMARK  2 active torsions:
REMARK  status: ('A' for Active; 'I' for Inactive)
REMARK    1  A    between atoms: C15_16  and  O2_17
REMARK    2  A    between atoms: C16_19  and  O3_20
ROOT
HETATM    1  C1  UNL     1      44.077  18.050  22.117  1.00  0.00     0.046 C
HETATM    2  C2  UNL     1      44.775  19.066  22.543  1.00  0.00     0.041 C
HETATM    3  C3  UNL     1      44.611  20.414  21.924  1.00  0.00     0.064 C
HETATM    4  C4  UNL     1      44.593  21.437  23.007  1.00  0.00     0.019 C
HETATM    5  C5  UNL     1      44.577  20.874  24.396  1.00  0.00     0.086 C
HETATM    6  C6  UNL     1      44.487  22.031  25.386  1.00  0.00     0.071 C
HETATM    7  C7  UNL     1      43.657  21.477  26.559  1.00  0.00     0.047 C
HETATM    8  O1  UNL     1      43.688  22.946  24.761  1.00  0.00    -0.369 OA
HETATM    9  C8  UNL     1      43.639  24.206  25.185  1.00  0.00     0.055 C
HETATM   10  C9  UNL     1      42.219  24.544  25.641  1.00  0.00     0.045 C
HETATM   11  C10 UNL     1      43.890  25.117  23.971  1.00  0.00     0.045 C
HETATM   12  C11 UNL     1      44.585  24.629  26.249  1.00  0.00     0.038 C
HETATM   13  C12 UNL     1      45.919  24.023  25.986  1.00  0.00     0.010 C
HETATM   14  C13 UNL     1      45.780  22.496  25.900  1.00  0.00     0.023 C
HETATM   15  C14 UNL     1      47.006  22.050  25.158  1.00  0.00     0.045 C
HETATM   16  C15 UNL     1      47.044  20.639  24.753  1.00  0.00     0.181 C
HETATM   17  C16 UNL     1      45.718  19.959  24.639  1.00  0.00     0.200 C
HETATM   18  O4  UNL     1      45.707  19.002  23.577  1.00  0.00    -0.316 OA
ENDROOT
BRANCH  17  19
HETATM   19  O3  UNL     1      45.544  19.187  25.798  1.00  0.00    -0.363 OA
ATOM     20  H3  UNL     1      44.686  19.308  26.186  1.00  0.00     0.213 HD
ENDBRANCH  17  19
BRANCH  16  21
HETATM   21  O2  UNL     1      47.651  20.564  23.476  1.00  0.00    -0.390 OA
ATOM     22  H2  UNL     1      48.452  21.074  23.499  1.00  0.00     0.210 HD
ENDBRANCH  16  21
TORSDOF 2
ENDMDL