MODEL 2
REMARK VINA RESULT: -8.231554618      0.964      1.228
REMARK  3 active torsions:
REMARK  status: ('A' for Active; 'I' for Inactive)
REMARK    1  A    between atoms: C7_7  and  O1_8
REMARK    2  A    between atoms: C11_13  and  O2_14
REMARK    3  A    between atoms: C12_17  and  O4_18
ROOT
HETATM    1  C1  UNL     1      38.495  16.282  26.260  1.00  0.00     0.015 C
HETATM    2  C2  UNL     1      39.711  16.251  27.108  1.00  0.00    -0.043 C
HETATM    3  C3  UNL     1      40.915  16.481  26.218  1.00  0.00     0.015 C
HETATM    4  C4  UNL     1      39.880  14.928  27.831  1.00  0.00     0.015 C
HETATM    5  C5  UNL     1      38.817  15.124  28.891  1.00  0.00     0.002 C
HETATM    6  C6  UNL     1      38.709  14.040  29.880  1.00  0.00     0.037 C
HETATM    7  C7  UNL     1      37.337  14.119  30.525  1.00  0.00     0.118 C
HETATM    8  C8  UNL     1      37.528  14.158  32.004  1.00  0.00     0.036 C
HETATM    9  C9  UNL     1      37.609  15.616  32.418  1.00  0.00     0.047 C
HETATM   10  C10 UNL     1      38.927  16.182  31.983  1.00  0.00     0.012 A
HETATM   11  C11 UNL     1      39.829  16.468  32.989  1.00  0.00     0.192 A
HETATM   12  O3  UNL     1      40.914  16.947  32.440  1.00  0.00    -0.264 OA
HETATM   13  C12 UNL     1      40.810  17.007  31.133  1.00  0.00     0.193 A
HETATM   14  C13 UNL     1      39.558  16.528  30.812  1.00  0.00     0.021 A
HETATM   15  C14 UNL     1      39.161  16.476  29.419  1.00  0.00     0.001 A
HETATM   16  C15 UNL     1      38.396  17.649  28.872  1.00  0.00     0.021 A
HETATM   17  C16 UNL     1      39.667  17.207  28.287  1.00  0.00     0.008 A
ENDROOT
BRANCH   7  18
HETATM   18  O1  UNL     1      36.506  13.067  30.116  1.00  0.00    -0.396 OA
ATOM     19  H1  UNL     1      36.838  12.635  29.338  1.00  0.00     0.210 HD
ENDBRANCH   7  18
BRANCH  13  20
HETATM   20  O4  UNL     1      41.800  17.474  30.242  1.00  0.00    -0.340 OA
ATOM     21  H4  UNL     1      42.094  18.374  30.156  1.00  0.00     0.220 HD
ENDBRANCH  13  20
BRANCH  11  22
HETATM   22  O2  UNL     1      39.619  16.276  34.356  1.00  0.00    -0.340 OA
ATOM     23  H2  UNL     1      40.284  16.319  35.033  1.00  0.00     0.220 HD
ENDBRANCH  11  22
TORSDOF 3
ENDMDL