MODEL 5
REMARK VINA RESULT: -5.976520173      1.956      4.786
REMARK  2 active torsions:
REMARK  status: ('A' for Active; 'I' for Inactive)
REMARK    1  A    between atoms: C4_4  and  O1_5
REMARK    2  A    between atoms: C9_11  and  O2_12
ROOT
HETATM    1  C1  UNL     1      41.187  15.746  24.843  1.00  0.00     0.015 C
HETATM    2  C2  UNL     1      40.869  15.322  26.260  1.00  0.00     0.011 C
HETATM    3  C3  UNL     1      39.569  14.658  26.363  1.00  0.00     0.010 C
HETATM    4  C4  UNL     1      38.948  14.625  27.521  1.00  0.00     0.045 C
HETATM    5  C5  UNL     1      39.444  15.208  28.774  1.00  0.00     0.058 C
HETATM    6  C6  UNL     1      38.443  15.999  29.523  1.00  0.00     0.023 C
HETATM    7  C7  UNL     1      38.699  16.178  31.002  1.00  0.00     0.010 C
HETATM    8  C8  UNL     1      40.011  16.095  31.597  1.00  0.00     0.032 C
HETATM    9  C9  UNL     1      40.815  17.365  31.915  1.00  0.00     0.123 C
HETATM   10  C10 UNL     1      41.605  17.817  30.623  1.00  0.00     0.084 C
HETATM   11  C11 UNL     1      40.706  17.144  29.581  1.00  0.00    -0.010 C
HETATM   12  N1  UNL     1      39.619  17.873  29.777  1.00  0.00    -0.388 N
ATOM     13  H1  UNL     1      39.591  18.642  30.446  1.00  0.00     0.159 HD
HETATM   14  C12 UNL     1      38.509  17.517  29.003  1.00  0.00     0.108 C
HETATM   15  C13 UNL     1      38.278  17.732  27.637  1.00  0.00    -0.006 C
HETATM   16  C14 UNL     1      39.260  18.063  26.608  1.00  0.00    -0.028 C
HETATM   17  C15 UNL     1      40.678  17.782  26.768  1.00  0.00     0.033 C
HETATM   18  C16 UNL     1      41.084  16.426  27.251  1.00  0.00     0.006 C
HETATM   19  C17 UNL     1      40.686  16.061  28.616  1.00  0.00     0.047 C
ENDROOT
BRANCH   4  20
HETATM   20  O1  UNL     1      37.720  13.983  27.560  1.00  0.00    -0.365 OA
ATOM     21  H1  UNL     1      37.321  13.864  28.415  1.00  0.00     0.217 HD
ENDBRANCH   4  20
BRANCH   9  22
HETATM   22  O2  UNL     1      41.813  17.002  32.795  1.00  0.00    -0.395 OA
ATOM     23  H2  UNL     1      42.290  16.284  32.395  1.00  0.00     0.210 HD
ENDBRANCH   9  22
TORSDOF 2
ENDMDL