MODEL 2
REMARK VINA RESULT: -6.747169514      1.794      2.308
REMARK  2 active torsions:
REMARK  status: ('A' for Active; 'I' for Inactive)
REMARK    1  A    between atoms: C6_6  and  O1_7
REMARK    2  A    between atoms: C14_16  and  O2_17
ROOT
HETATM    1  C1  UNL     1      38.530  13.946  29.660  1.00  0.00     0.039 C
HETATM    2  C2  UNL     1      39.083  15.313  29.900  1.00  0.00     0.117 C
HETATM    3  C3  UNL     1      38.362  15.989  31.067  1.00  0.00     0.032 C
HETATM    4  C4  UNL     1      39.349  16.382  32.155  1.00  0.00     0.005 C
HETATM    5  C5  UNL     1      39.668  17.841  32.149  1.00  0.00     0.032 C
HETATM    6  C6  UNL     1      40.888  18.165  31.280  1.00  0.00     0.118 C
HETATM    7  C7  UNL     1      41.462  19.445  31.802  1.00  0.00     0.032 C
HETATM    8  C8  UNL     1      42.338  20.179  30.875  1.00  0.00     0.002 C
HETATM    9  C9  UNL     1      42.578  19.573  29.548  1.00  0.00     0.000 C
HETATM   10  C10 UNL     1      41.803  20.308  28.445  1.00  0.00     0.000 C
HETATM   11  C11 UNL     1      42.094  19.585  27.140  1.00  0.00     0.000 C
HETATM   12  C12 UNL     1      40.876  18.763  26.802  1.00  0.00     0.002 C
HETATM   13  C13 UNL     1      41.312  17.456  26.191  1.00  0.00     0.032 C
HETATM   14  C14 UNL     1      40.697  16.259  26.906  1.00  0.00     0.120 C
HETATM   15  C15 UNL     1      39.253  16.133  26.525  1.00  0.00     0.058 C
HETATM   16  C16 UNL     1      38.379  15.784  27.738  1.00  0.00     0.170 C
HETATM   17  O3  UNL     1      39.063  16.159  28.846  1.00  0.00    -0.386 OA
ENDROOT
BRANCH   6  18
HETATM   18  O1  UNL     1      41.852  17.166  31.473  1.00  0.00    -0.396 OA
ATOM     19  H1  UNL     1      42.445  17.170  30.731  1.00  0.00     0.210 HD
ENDBRANCH   6  18
BRANCH  14  20
HETATM   20  O2  UNL     1      41.368  15.127  26.477  1.00  0.00    -0.396 OA
ATOM     21  H2  UNL     1      40.919  14.804  25.705  1.00  0.00     0.210 HD
ENDBRANCH  14  20
TORSDOF 2
ENDMDL