MODEL 3
REMARK VINA RESULT: -5.222743774      2.779      5.145
REMARK  4 active torsions:
REMARK  status: ('A' for Active; 'I' for Inactive)
REMARK    1  A    between atoms: S1_2  and  C2_3
REMARK    2  A    between atoms: C6_7  and  O1_8
REMARK    3  A    between atoms: C6_7  and  O2_10
REMARK    4  A    between atoms: C13_18  and  O3_19
ROOT
HETATM    1  C2  UNL     1      39.837  17.103  25.411  1.00  0.00    -0.006 A
HETATM    2  C3  UNL     1      39.371  16.038  26.029  1.00  0.00    -0.052 A
HETATM    3  C4  UNL     1      38.954  14.664  26.357  1.00  0.00     0.042 C
HETATM    4  C5  UNL     1      38.287  14.508  27.691  1.00  0.00     0.073 C
HETATM    5  C6  UNL     1      39.149  14.436  28.888  1.00  0.00     0.169 C
HETATM    6  C7  UNL     1      39.283  15.687  29.733  1.00  0.00     0.038 C
HETATM    7  C8  UNL     1      38.418  15.593  30.975  1.00  0.00     0.024 C
HETATM    8  C9  UNL     1      40.728  15.969  30.092  1.00  0.00     0.017 C
HETATM    9  C10 UNL     1      41.186  17.386  30.026  1.00  0.00     0.002 C
HETATM   10  C11 UNL     1      40.841  18.123  28.724  1.00  0.00     0.009 C
HETATM   11  C12 UNL     1      39.981  17.155  28.013  1.00  0.00     0.033 C
HETATM   12  C13 UNL     1      38.826  16.901  28.978  1.00  0.00     0.137 C
HETATM   13  C14 UNL     1      39.393  17.398  26.713  1.00  0.00     0.020 A
HETATM   14  C15 UNL     1      38.051  18.158  26.740  1.00  0.00     0.026 C
ENDROOT
BRANCH   5  15
HETATM   15  O1  UNL     1      38.662  13.445  29.787  1.00  0.00    -0.365 OA
ATOM     16  H1  UNL     1      38.653  13.783  30.674  1.00  0.00     0.213 HD
ENDBRANCH   5  15
BRANCH   5  17
HETATM   17  O2  UNL     1      40.390  13.908  28.498  1.00  0.00    -0.365 OA
ATOM     18  H2  UNL     1      40.610  13.202  29.094  1.00  0.00     0.213 HD
ENDBRANCH   5  17
BRANCH  12  19
HETATM   19  O3  UNL     1      38.704  17.949  29.924  1.00  0.00    -0.394 OA
ATOM     20  H3  UNL     1      39.496  17.936  30.450  1.00  0.00     0.210 HD
ENDBRANCH  12  19
BRANCH   1  21
HETATM   21  S1  UNL     1      40.568  17.689  23.861  1.00  0.00    -0.137 SA
HETATM   22  C1  UNL     1      42.243  17.090  23.693  1.00  0.00     0.095 C
ENDBRANCH   1  21
TORSDOF 4
ENDMDL