MODEL 4
REMARK VINA RESULT: -6.041850921      6.030      8.249
REMARK  3 active torsions:
REMARK  status: ('A' for Active; 'I' for Inactive)
REMARK    1  A    between atoms: C4_4  and  O1_5
REMARK    2  A    between atoms: C5_7  and  O2_8
REMARK    3  A    between atoms: C6_10  and  O3_11
ROOT
HETATM    1  C1  UNL     1      42.806  23.370  26.820  1.00  0.00     0.014 C
HETATM    2  C2  UNL     1      43.229  22.135  26.602  1.00  0.00    -0.086 C
HETATM    3  C3  UNL     1      42.133  21.133  26.714  1.00  0.00     0.067 C
HETATM    4  C4  UNL     1      42.772  19.767  26.594  1.00  0.00     0.153 C
HETATM    5  C5  UNL     1      43.159  19.570  25.170  1.00  0.00     0.182 C
HETATM    6  C6  UNL     1      44.618  19.873  24.934  1.00  0.00     0.098 C
HETATM    7  C7  UNL     1      44.943  19.355  23.551  1.00  0.00     0.023 C
HETATM    8  C8  UNL     1      44.053  20.005  22.556  1.00  0.00     0.008 C
HETATM    9  C9  UNL     1      43.971  21.480  22.616  1.00  0.00     0.001 C
HETATM   10  C10 UNL     1      44.192  22.114  23.929  1.00  0.00     0.013 C
HETATM   11  C11 UNL     1      44.937  21.341  24.942  1.00  0.00     0.001 C
HETATM   12  C12 UNL     1      44.662  21.987  26.302  1.00  0.00     0.046 C
HETATM   13  C13 UNL     1      46.453  21.408  24.795  1.00  0.00    -0.007 C
HETATM   14  C14 UNL     1      47.009  22.761  25.062  1.00  0.00     0.011 C
HETATM   15  C15 UNL     1      46.955  20.854  23.510  1.00  0.00     0.005 C
HETATM   16  C16 UNL     1      46.361  19.523  23.151  1.00  0.00     0.008 C
ENDROOT
BRANCH   4  17
HETATM   17  O1  UNL     1      41.956  18.767  27.101  1.00  0.00    -0.393 OA
ATOM     18  H1  UNL     1      41.311  19.110  27.708  1.00  0.00     0.210 HD
ENDBRANCH   4  17
BRANCH   5  19
HETATM   19  O2  UNL     1      42.962  18.222  24.847  1.00  0.00    -0.390 OA
ATOM     20  H2  UNL     1      43.796  17.858  24.575  1.00  0.00     0.210 HD
ENDBRANCH   5  19
BRANCH   6  21
HETATM   21  O3  UNL     1      45.400  19.199  25.845  1.00  0.00    -0.386 OA
ATOM     22  H3  UNL     1      45.918  19.813  26.351  1.00  0.00     0.210 HD
ENDBRANCH   6  21
TORSDOF 3
ENDMDL