MODEL 5
REMARK VINA RESULT: -5.383738019      1.615      2.429
REMARK  3 active torsions:
REMARK  status: ('A' for Active; 'I' for Inactive)
REMARK    1  A    between atoms: C9_9  and  O1_10
REMARK    2  A    between atoms: C15_17  and  O2_18
REMARK    3  A    between atoms: C16_20  and  O3_21
ROOT
HETATM    1  C1  UNL     1      36.376  19.606  25.023  1.00  0.00     0.038 C
HETATM    2  C2  UNL     1      36.826  18.290  25.590  1.00  0.00     0.001 C
HETATM    3  C3  UNL     1      38.090  17.870  25.397  1.00  0.00     0.045 C
HETATM    4  C4  UNL     1      38.920  18.809  24.610  1.00  0.00     0.064 C
HETATM    5  C5  UNL     1      40.372  18.654  24.626  1.00  0.00     0.006 C
HETATM    6  C6  UNL     1      41.143  18.489  25.844  1.00  0.00     0.000 C
HETATM    7  C7  UNL     1      40.613  18.980  27.153  1.00  0.00     0.002 C
HETATM    8  C8  UNL     1      41.318  18.219  28.238  1.00  0.00     0.032 C
HETATM    9  C9  UNL     1      40.514  17.635  29.335  1.00  0.00     0.121 C
HETATM   10  C10 UNL     1      40.947  16.184  29.632  1.00  0.00     0.059 C
HETATM   11  C11 UNL     1      39.823  15.279  29.926  1.00  0.00    -0.022 C
HETATM   12  C12 UNL     1      38.898  14.763  29.175  1.00  0.00    -0.085 C
HETATM   13  C13 UNL     1      37.913  13.858  29.923  1.00  0.00     0.043 C
HETATM   14  C14 UNL     1      38.586  14.879  27.748  1.00  0.00     0.070 C
HETATM   15  C15 UNL     1      39.672  14.891  26.753  1.00  0.00     0.177 C
HETATM   16  C16 UNL     1      39.096  15.540  25.463  1.00  0.00     0.291 C
HETATM   17  O4  UNL     1      38.474  16.699  25.907  1.00  0.00    -0.323 OA
ENDROOT
BRANCH  16  18
HETATM   18  O3  UNL     1      38.208  14.602  24.937  1.00  0.00    -0.368 OA
ATOM     19  H3  UNL     1      38.729  13.824  24.772  1.00  0.00     0.212 HD
ENDBRANCH  16  18
BRANCH  15  20
HETATM   20  O2  UNL     1      39.959  13.571  26.340  1.00  0.00    -0.390 OA
ATOM     21  H2  UNL     1      39.205  13.200  25.899  1.00  0.00     0.210 HD
ENDBRANCH  15  20
BRANCH   9  22
HETATM   22  O1  UNL     1      39.168  17.689  29.300  1.00  0.00    -0.395 OA
ATOM     23  H1  UNL     1      38.726  18.444  28.930  1.00  0.00     0.210 HD
ENDBRANCH   9  22
TORSDOF 3
ENDMDL