MODEL 2
REMARK VINA RESULT: -7.704679575      1.112      1.282
REMARK  3 active torsions:
REMARK  status: ('A' for Active; 'I' for Inactive)
REMARK    1  A    between atoms: C9_9  and  N1_10
REMARK       I    between atoms: N1_10  and  C10_12
REMARK    2  A    between atoms: C10_12  and  O2_14
REMARK    3  A    between atoms: O2_14  and  C11_15
ROOT
HETATM    1  C1  UNL     1      42.388  21.523  30.465  1.00  0.00     0.045 C
HETATM    2  C2  UNL     1      41.788  20.172  30.543  1.00  0.00    -0.056 C
HETATM    3  C3  UNL     1      41.098  19.715  31.581  1.00  0.00    -0.076 C
HETATM    4  C4  UNL     1      40.932  20.659  32.745  1.00  0.00     0.044 C
HETATM    5  C5  UNL     1      40.528  18.355  31.600  1.00  0.00     0.103 C
HETATM    6  C6  UNL     1      40.288  17.730  30.271  1.00  0.00     0.292 C
HETATM    7  C7  UNL     1      41.073  16.418  30.113  1.00  0.00     0.074 C
HETATM    8  C8  UNL     1      40.251  15.753  29.016  1.00  0.00     0.059 C
HETATM    9  C9  UNL     1      38.841  16.033  29.551  1.00  0.00     0.291 C
HETATM   10  N2  UNL     1      38.891  17.361  30.074  1.00  0.00    -0.019 N
ATOM     11  H21 UNL     1      38.388  18.031  29.491  1.00  0.00     0.282 HD
ATOM     12  H22 UNL     1      38.334  17.469  30.922  1.00  0.00     0.282 HD
HETATM   13  N3  UNL     1      40.635  18.626  29.220  1.00  0.00    -0.036 N
ATOM     14  H31 UNL     1      39.915  19.338  29.098  1.00  0.00     0.280 HD
ATOM     15  H32 UNL     1      40.570  18.164  28.314  1.00  0.00     0.280 HD
HETATM   16  C15 UNL     1      41.943  19.240  29.394  1.00  0.00     0.269 C
ENDROOT
BRANCH   9  17
HETATM   17  N1  UNL     1      38.581  15.021  30.548  1.00  0.00    -0.308 N
HETATM   18  C10 UNL     1      37.906  13.829  30.205  1.00  0.00     0.362 C
HETATM   19  O1  UNL     1      37.501  13.601  29.014  1.00  0.00    -0.238 OA
ATOM     20  H1  UNL     1      38.889  15.169  31.509  1.00  0.00     0.166 HD
BRANCH  18  21
HETATM   21  O2  UNL     1      37.640  12.842  31.125  1.00  0.00    -0.294 OA
BRANCH  21  22
HETATM   22  C11 UNL     1      36.480  12.850  31.918  1.00  0.00     0.061 C
HETATM   23  C12 UNL     1      36.761  13.442  33.303  1.00  0.00     0.046 C
HETATM   24  C13 UNL     1      35.298  13.492  31.278  1.00  0.00     0.046 C
HETATM   25  C14 UNL     1      36.123  11.384  32.173  1.00  0.00     0.046 C
ENDBRANCH  21  22
ENDBRANCH  18  21
ENDBRANCH   9  17
TORSDOF 3
ENDMDL