MODEL 4
REMARK VINA RESULT: -6.936693896      2.642      4.850
REMARK  3 active torsions:
REMARK  status: ('A' for Active; 'I' for Inactive)
REMARK    1  A    between atoms: C3_3  and  O1_4
REMARK    2  A    between atoms: C5_8  and  N1_9
REMARK    3  A    between atoms: C7_13  and  N3_14
REMARK       I    between atoms: N3_14  and  C8_16
REMARK       I    between atoms: C8_16  and  N4_18
ROOT
HETATM    1  N1  UNL     1      -4.832  -0.796  25.694  1.00  0.00    -0.319 N
ATOM      2  H1  UNL     1      -4.674  -1.799  25.591  1.00  0.00     0.172 HD
HETATM    3  C6  UNL     1      -5.855  -0.343  26.534  1.00  0.00     0.177 C
HETATM    4  N2  UNL     1      -6.695   0.046  27.230  1.00  0.00    -0.172 NA
ENDROOT
BRANCH   1   5
HETATM    5  C5  UNL     1      -3.996   0.133  24.970  1.00  0.00     0.156 C
HETATM    6  C4  UNL     1      -3.580  -0.391  23.615  1.00  0.00     0.228 C
HETATM    7  C3  UNL     1      -2.462   0.579  23.288  1.00  0.00     0.184 C
HETATM    8  F1  UNL     1      -4.588  -0.378  22.694  1.00  0.00    -0.244 F
HETATM    9  C2  UNL     1      -1.670   0.509  24.534  1.00  0.00    -0.033 C
HETATM   10  C1  UNL     1      -0.370   0.632  24.627  1.00  0.00     0.019 C
HETATM   11  C7  UNL     1      -2.625   0.275  25.646  1.00  0.00     0.143 C
BRANCH   7  12
HETATM   12  O1  UNL     1      -1.744   0.197  22.162  1.00  0.00    -0.388 OA
ATOM     13  H1  UNL     1      -1.913  -0.700  21.899  1.00  0.00     0.210 HD
ENDBRANCH   7  12
BRANCH  11  14
HETATM   14  N3  UNL     1      -2.622   1.317  26.619  1.00  0.00    -0.332 N
HETATM   15  C8  UNL     1      -2.785   0.958  28.007  1.00  0.00     0.318 C
HETATM   16  O2  UNL     1      -2.925  -0.246  28.339  1.00  0.00    -0.247 OA
HETATM   17  N4  UNL     1      -2.792   1.940  29.024  1.00  0.00    -0.343 N
HETATM   18  C9  UNL     1      -2.634   3.330  28.680  1.00  0.00     0.154 C
HETATM   19  C10 UNL     1      -2.957   1.546  30.396  1.00  0.00     0.154 C
ATOM     20  H3  UNL     1      -2.507   2.292  26.341  1.00  0.00     0.165 HD
ENDBRANCH  11  14
ENDBRANCH   1   5
TORSDOF 3
ENDMDL