MODEL 5
REMARK VINA RESULT: -6.200549073      1.900      3.306
REMARK  7 active torsions:
REMARK  status: ('A' for Active; 'I' for Inactive)
REMARK    1  A    between atoms: N1_1  and  N2_4
REMARK    2  A    between atoms: N2_4  and  N3_5
REMARK    3  A    between atoms: N3_5  and  C1_7
REMARK    4  A    between atoms: C2_8  and  O1_9
REMARK    5  A    between atoms: C4_13  and  O2_14
REMARK    6  A    between atoms: C5_16  and  C6_17
REMARK    7  A    between atoms: C6_17  and  O3_18
ROOT
HETATM    1  C1  UNL     1      -2.405  -0.484  23.804  1.00  0.00     0.153 C
HETATM    2  C2  UNL     1      -2.645   0.646  22.807  1.00  0.00     0.160 C
HETATM    3  C3  UNL     1      -3.661   1.561  23.455  1.00  0.00     0.118 C
HETATM    4 BR1  UNL     1      -5.296   1.438  22.416  1.00  0.00    -0.086 Br
HETATM    5  C4  UNL     1      -3.917   0.975  24.846  1.00  0.00     0.143 C
HETATM    6  C5  UNL     1      -3.636  -0.473  24.623  1.00  0.00     0.067 C
ENDROOT
BRANCH   1   7
HETATM    7  N3  UNL     1      -1.212  -0.146  24.517  1.00  0.00    -0.245 N
ATOM      8  H3  UNL     1      -1.226   0.518  25.291  1.00  0.00     0.197 HD
BRANCH   7   9
HETATM    9  N2  UNL     1      -0.158  -0.695  24.156  1.00  0.00    -0.248 NA
BRANCH   9  10
HETATM   10  N1  UNL     1       0.823  -1.268  23.652  1.00  0.00    -0.261 N
ATOM     11  H12 UNL     1       0.194  -2.063  23.541  1.00  0.00     0.193 HD
ATOM     12  H11 UNL     1       1.695  -1.625  23.261  1.00  0.00     0.193 HD
ENDBRANCH   9  10
ENDBRANCH   7   9
ENDBRANCH   1   7
BRANCH   2  13
HETATM   13  O1  UNL     1      -3.102   0.126  21.607  1.00  0.00    -0.392 OA
ATOM     14  H1  UNL     1      -2.373  -0.002  21.011  1.00  0.00     0.210 HD
ENDBRANCH   2  13
BRANCH   6  15
HETATM   15  C6  UNL     1      -3.575  -1.288  25.877  1.00  0.00     0.173 C
BRANCH  15  16
HETATM   16  O3  UNL     1      -2.648  -2.303  25.835  1.00  0.00    -0.400 OA
ATOM     17  H3  UNL     1      -2.730  -2.866  25.074  1.00  0.00     0.209 HD
ENDBRANCH  15  16
ENDBRANCH   6  15
BRANCH   5  18
HETATM   18  O2  UNL     1      -3.126   1.576  25.789  1.00  0.00    -0.394 OA
ATOM     19  H2  UNL     1      -2.820   0.946  26.431  1.00  0.00     0.210 HD
ENDBRANCH   5  18
TORSDOF 7
ENDMDL