MODEL 1
REMARK VINA RESULT: -6.137906888      0.000      0.000
REMARK  5 active torsions:
REMARK  status: ('A' for Active; 'I' for Inactive)
REMARK    1  A    between atoms: O1_2  and  C2_3
REMARK    2  A    between atoms: C2_3  and  C3_4
REMARK    3  A    between atoms: C5_6  and  O2_7
REMARK    4  A    between atoms: C6_9  and  O3_10
REMARK    5  A    between atoms: C7_12  and  O4_13
ROOT
HETATM    1  C3  UNL     1      -3.628   1.324  26.493  1.00  0.00     0.029 C
HETATM    2  C4  UNL     1      -4.267   0.641  25.295  1.00  0.00     0.042 C
HETATM    3  C5  UNL     1      -3.459  -0.533  24.808  1.00  0.00     0.150 C
HETATM    4  C6  UNL     1      -3.272  -1.498  25.944  1.00  0.00     0.176 C
HETATM    5  C7  UNL     1      -2.521  -0.765  27.065  1.00  0.00     0.164 C
HETATM    6  C8  UNL     1      -3.491   0.295  27.574  1.00  0.00     0.095 C
HETATM    7 BR1  UNL     1      -2.975   1.013  29.260  1.00  0.00    -0.088 Br
ENDROOT
BRANCH   1   8
HETATM    8  C2  UNL     1      -4.551   2.456  26.894  1.00  0.00     0.172 C
BRANCH   8   9
HETATM    9  O1  UNL     1      -5.757   2.015  27.368  1.00  0.00    -0.396 OA
HETATM   10  C1  UNL     1      -6.302   2.775  28.372  1.00  0.00     0.201 C
ENDBRANCH   8   9
ENDBRANCH   1   8
BRANCH   3  11
HETATM   11  O2  UNL     1      -4.214  -1.177  23.830  1.00  0.00    -0.393 OA
ATOM     12  H2  UNL     1      -4.497  -2.008  24.194  1.00  0.00     0.210 HD
ENDBRANCH   3  11
BRANCH   5  13
HETATM   13  O4  UNL     1      -1.458  -0.093  26.490  1.00  0.00    -0.392 OA
ATOM     14  H4  UNL     1      -0.658  -0.498  26.802  1.00  0.00     0.210 HD
ENDBRANCH   5  13
BRANCH   4  15
HETATM   15  O3  UNL     1      -2.625  -2.656  25.568  1.00  0.00    -0.390 OA
ATOM     16  H3  UNL     1      -3.207  -3.403  25.504  1.00  0.00     0.210 HD
ENDBRANCH   4  15
TORSDOF 5
ENDMDL