MODEL 1
REMARK VINA RESULT: -6.111632510      0.000      0.000
REMARK  6 active torsions:
REMARK  status: ('A' for Active; 'I' for Inactive)
REMARK    1  A    between atoms: C2_2  and  O1_4
REMARK    2  A    between atoms: C2_2  and  C4_6
REMARK    3  A    between atoms: C5_8  and  C6_10
REMARK    4  A    between atoms: C6_10  and  O3_11
REMARK    5  A    between atoms: C6_10  and  C7_13
REMARK    6  A    between atoms: C7_13  and  O4_14
ROOT
HETATM    1  C4  UNL     1      -4.033   0.176  23.995  1.00  0.00     0.205 A
HETATM    2  O2  UNL     1      -3.351  -1.043  23.508  1.00  0.00    -0.351 OA
HETATM    3  C5  UNL     1      -2.911  -0.321  24.727  1.00  0.00     0.175 A
HETATM    4 BR1  UNL     1      -1.180   0.446  24.472  1.00  0.00    -0.049 Br
ENDROOT
BRANCH   3   5
HETATM    5  C6  UNL     1      -3.166  -1.219  25.909  1.00  0.00     0.190 C
BRANCH   5   6
HETATM    6  O3  UNL     1      -2.595  -2.469  25.689  1.00  0.00    -0.389 OA
ATOM      7  H3  UNL     1      -3.171  -3.150  26.015  1.00  0.00     0.210 HD
ENDBRANCH   5   6
BRANCH   5   8
HETATM    8  C7  UNL     1      -2.641  -0.673  27.192  1.00  0.00     0.199 C
BRANCH   8   9
HETATM    9  O4  UNL     1      -1.404  -1.270  27.437  1.00  0.00    -0.398 OA
ATOM     10  H4  UNL     1      -1.550  -2.030  27.988  1.00  0.00     0.209 HD
ENDBRANCH   8   9
ENDBRANCH   5   8
ENDBRANCH   3   5
BRANCH   1  11
HETATM   11  C2  UNL     1      -3.970   1.216  22.914  1.00  0.00     0.080 C
HETATM   12  C1  UNL     1      -5.254   1.373  22.170  1.00  0.00     0.048 C
HETATM   13  C3  UNL     1      -2.894   0.747  21.924  1.00  0.00     0.048 C
BRANCH  11  14
HETATM   14  O1  UNL     1      -3.555   2.457  23.384  1.00  0.00    -0.388 OA
ATOM     15  H1  UNL     1      -4.301   2.922  23.745  1.00  0.00     0.210 HD
ENDBRANCH  11  14
ENDBRANCH   1  11
TORSDOF 6
ENDMDL