MODEL 4
REMARK VINA RESULT: -5.899062015      2.431      3.802
REMARK  2 active torsions:
REMARK  status: ('A' for Active; 'I' for Inactive)
REMARK    1  A    between atoms: N1_2  and  C2_5
REMARK    2  A    between atoms: C2_5  and  C3_6
ROOT
HETATM    1  C2  UNL     1      -3.515  -0.144  25.369  1.00  0.00     0.254 C
HETATM    2  C4  UNL     1      -3.003   1.266  25.222  1.00  0.00     0.230 C
HETATM    3  C5  UNL     1      -3.264   1.889  23.891  1.00  0.00     0.043 C
HETATM    4  N2  UNL     1      -3.727   2.071  26.210  1.00  0.00    -0.063 N
ATOM      5  H21 UNL     1      -3.994   2.994  25.869  1.00  0.00     0.278 HD
ATOM      6  H22 UNL     1      -3.145   2.391  26.984  1.00  0.00     0.278 HD
HETATM    7  C6  UNL     1      -4.861   1.250  26.631  1.00  0.00     0.200 C
HETATM    8  C7  UNL     1      -5.355   1.618  28.000  1.00  0.00     0.041 C
HETATM    9  C8  UNL     1      -4.132  -0.100  26.738  1.00  0.00     0.137 C
HETATM   10 BR1  UNL     1      -2.736  -0.005  28.061  1.00  0.00    -0.086 Br
ENDROOT
BRANCH   1  11
HETATM   11  N1  UNL     1      -4.498  -0.349  24.328  1.00  0.00    -0.057 N
HETATM   12  C1  UNL     1      -3.920  -0.756  23.075  1.00  0.00     0.268 C
ATOM     13  H12 UNL     1      -5.077   0.482  24.207  1.00  0.00     0.278 HD
ATOM     14  H11 UNL     1      -5.213  -1.010  24.629  1.00  0.00     0.278 HD
ENDBRANCH   1  11
BRANCH   1  15
HETATM   15  C3  UNL     1      -2.401  -1.114  25.254  1.00  0.00     0.214 C
HETATM   16  O1  UNL     1      -2.551  -2.327  25.534  1.00  0.00    -0.646 OA
HETATM   17  O2  UNL     1      -1.152  -0.711  24.830  1.00  0.00    -0.646 OA
ENDBRANCH   1  15
TORSDOF 2
ENDMDL