MODEL 5
REMARK VINA RESULT: -5.816957924      1.867      2.219
REMARK  5 active torsions:
REMARK  status: ('A' for Active; 'I' for Inactive)
REMARK    1  A    between atoms: C2_2  and  C4_4
REMARK    2  A    between atoms: C4_4  and  N1_5
REMARK    3  A    between atoms: C4_4  and  C5_9
REMARK    4  A    between atoms: C7_13  and  O2_14
REMARK    5  A    between atoms: C8_16  and  O3_17
ROOT
HETATM    1  C5  UNL     1      -3.523  -0.013  26.334  1.00  0.00     0.185 C
HETATM    2  O1  UNL     1      -3.528   0.954  25.369  1.00  0.00    -0.362 OA
HETATM    3  C6  UNL     1      -2.342   0.952  24.694  1.00  0.00     0.224 C
HETATM    4 BR1  UNL     1      -2.561   0.517  22.811  1.00  0.00    -0.059 Br
HETATM    5  C7  UNL     1      -1.425  -0.058  25.295  1.00  0.00     0.189 C
HETATM    6  C8  UNL     1      -2.406  -0.992  25.974  1.00  0.00     0.181 C
ENDROOT
BRANCH   1   7
HETATM    7  C4  UNL     1      -3.102   0.592  27.681  1.00  0.00     0.218 C
BRANCH   7   8
HETATM    8  C2  UNL     1      -4.331   1.224  28.316  1.00  0.00     0.010 C
HETATM    9  C1  UNL     1      -5.571   0.684  27.644  1.00  0.00     0.011 C
HETATM   10  C3  UNL     1      -4.219   2.722  28.151  1.00  0.00     0.011 C
ENDBRANCH   7   8
BRANCH   7  11
HETATM   11  N1  UNL     1      -2.440  -0.300  28.525  1.00  0.00    -0.072 N
ATOM     12  H13 UNL     1      -1.563   0.099  28.858  1.00  0.00     0.274 HD
ATOM     13  H12 UNL     1      -2.933  -0.391  29.414  1.00  0.00     0.274 HD
ATOM     14  H11 UNL     1      -2.284  -1.216  28.103  1.00  0.00     0.274 HD
ENDBRANCH   7  11
ENDBRANCH   1   7
BRANCH   6  15
HETATM   15  O3  UNL     1      -2.877  -1.907  25.035  1.00  0.00    -0.390 OA
ATOM     16  H3  UNL     1      -2.197  -2.082  24.395  1.00  0.00     0.210 HD
ENDBRANCH   6  15
BRANCH   5  17
HETATM   17  O2  UNL     1      -0.670  -0.758  24.356  1.00  0.00    -0.389 OA
ATOM     18  H2  UNL     1       0.090  -1.192  24.725  1.00  0.00     0.210 HD
ENDBRANCH   5  17
TORSDOF 5
ENDMDL