MODEL 3
REMARK VINA RESULT: -7.365664783      2.502      3.988
REMARK  3 active torsions:
REMARK  status: ('A' for Active; 'I' for Inactive)
REMARK    1  A    between atoms: N2_3  and  C2_5
REMARK    2  A    between atoms: C4_7  and  O1_8
REMARK    3  A    between atoms: C9_14  and  C10_16
ROOT
HETATM    1  N1  UNL     1       1.353   0.017  24.092  1.00  0.00    -0.172 NA
HETATM    2  C1  UNL     1       0.280   0.487  24.131  1.00  0.00     0.177 C
HETATM    3  N2  UNL     1      -0.999   1.036  24.185  1.00  0.00    -0.321 N
ATOM      4  H2  UNL     1      -1.104   2.051  24.157  1.00  0.00     0.172 HD
ENDROOT
BRANCH   3   5
HETATM    5  C2  UNL     1      -2.186   0.209  24.279  1.00  0.00     0.135 C
HETATM    6  C3  UNL     1      -1.968  -0.934  25.226  1.00  0.00     0.067 C
HETATM    7  C4  UNL     1      -2.363  -0.700  26.626  1.00  0.00     0.060 C
HETATM    8  C5  UNL     1      -3.711  -1.398  26.861  1.00  0.00     0.038 C
HETATM    9  C8  UNL     1      -2.771   0.744  26.870  1.00  0.00     0.045 C
HETATM   10  C6  UNL     1      -4.640  -0.525  26.052  1.00  0.00     0.011 C
HETATM   11  C7  UNL     1      -3.970   0.838  25.943  1.00  0.00     0.031 C
HETATM   12  C9  UNL     1      -3.402   1.019  24.546  1.00  0.00     0.135 C
HETATM   13  F1  UNL     1      -3.092   2.385  24.447  1.00  0.00    -0.240 F
BRANCH   7  14
HETATM   14  O1  UNL     1      -1.497  -1.172  27.580  1.00  0.00    -0.390 OA
ATOM     15  H1  UNL     1      -1.896  -1.612  28.322  1.00  0.00     0.210 HD
ENDBRANCH   7  14
BRANCH  12  16
HETATM   16  C10 UNL     1      -4.457   0.762  23.497  1.00  0.00     0.079 C
HETATM   17  C11 UNL     1      -4.560   1.768  22.401  1.00  0.00     0.241 C
HETATM   18  N3  UNL     1      -4.828   0.642  21.492  1.00  0.00    -0.074 N
HETATM   19  C12 UNL     1      -3.951  -0.140  22.363  1.00  0.00     0.241 C
ATOM     20  H32 UNL     1      -5.778   0.341  21.277  1.00  0.00     0.277 HD
ATOM     21  H31 UNL     1      -4.662   0.713  20.489  1.00  0.00     0.277 HD
ENDBRANCH  12  16
ENDBRANCH   3   5
TORSDOF 3
ENDMDL