MODEL 1
REMARK VINA RESULT: -7.702208996      0.000      0.000
REMARK  4 active torsions:
REMARK  status: ('A' for Active; 'I' for Inactive)
REMARK    1  A    between atoms: C2_2  and  C4_5
REMARK    2  A    between atoms: C5_7  and  C7_9
REMARK    3  A    between atoms: C8_12  and  C9_13
REMARK    4  A    between atoms: C10_16  and  O6_17
ROOT
HETATM    1  C4  UNL     1      -4.392   1.410  26.496  1.00  0.00     0.192 C
HETATM    2  O1  UNL     1      -3.105   1.579  26.030  1.00  0.00    -0.357 OA
HETATM    3  C5  UNL     1      -3.053   0.818  24.872  1.00  0.00     0.161 C
HETATM    4  C6  UNL     1      -3.904   1.446  23.765  1.00  0.00     0.059 C
HETATM    5  C8  UNL     1      -3.711  -0.462  25.255  1.00  0.00     0.163 C
HETATM    6  C10 UNL     1      -4.810   0.024  26.210  1.00  0.00     0.168 C
ENDROOT
BRANCH   1   7
HETATM    7  C2  UNL     1      -4.570   1.857  27.919  1.00  0.00     0.124 C
HETATM    8  C1  UNL     1      -5.832   2.698  28.023  1.00  0.00     0.054 C
HETATM    9  C3  UNL     1      -3.429   2.738  28.382  1.00  0.00     0.054 C
HETATM   10  F1  UNL     1      -4.689   0.831  28.809  1.00  0.00    -0.241 F
ENDBRANCH   1   7
BRANCH   6  11
HETATM   11  O6  UNL     1      -4.812  -0.829  27.293  1.00  0.00    -0.392 OA
ATOM     12  H6  UNL     1      -4.572  -1.729  27.104  1.00  0.00     0.210 HD
ENDBRANCH   6  11
BRANCH   3  13
HETATM   13  C7  UNL     1      -1.692   0.701  24.346  1.00  0.00     0.209 C
HETATM   14  O2  UNL     1      -0.654   1.131  24.935  1.00  0.00    -0.646 OA
HETATM   15  O3  UNL     1      -1.485   0.085  23.120  1.00  0.00    -0.646 OA
ENDBRANCH   3  13
BRANCH   5  16
HETATM   16  C9  UNL     1      -2.821  -1.418  25.941  1.00  0.00     0.183 C
HETATM   17  O4  UNL     1      -2.648  -2.585  25.524  1.00  0.00    -0.648 OA
HETATM   18  O5  UNL     1      -2.143  -1.032  27.086  1.00  0.00    -0.648 OA
ENDBRANCH   5  16
TORSDOF 4
ENDMDL