MODEL 5
REMARK VINA RESULT: -6.699165023      2.191      6.047
REMARK  7 active torsions:
REMARK  status: ('A' for Active; 'I' for Inactive)
REMARK    1  A    between atoms: C2_2  and  C3_3
REMARK       I    between atoms: C3_3  and  N1_5
REMARK    2  A    between atoms: N1_5  and  C4_7
REMARK    3  A    between atoms: C7_11  and  N2_12
REMARK    4  A    between atoms: N2_12  and  N3_14
REMARK    5  A    between atoms: N3_14  and  N4_15
REMARK    6  A    between atoms: C8_18  and  O2_19
REMARK    7  A    between atoms: C9_21  and  O3_22
ROOT
HETATM    1  C4  UNL     1      -4.252   0.091  26.609  1.00  0.00     0.118 C
HETATM    2  C5  UNL     1      -5.520   0.388  27.337  1.00  0.00     0.067 C
HETATM    3  C6  UNL     1      -5.500   1.805  27.847  1.00  0.00     0.200 C
HETATM    4  F1  UNL     1      -5.280   2.699  26.826  1.00  0.00    -0.247 F
HETATM    5  C7  UNL     1      -4.435   1.867  28.913  1.00  0.00     0.179 C
HETATM    6  C8  UNL     1      -3.097   1.393  28.432  1.00  0.00     0.176 C
HETATM    7  C9  UNL     1      -3.074   0.885  27.041  1.00  0.00     0.171 C
ENDROOT
BRANCH   1   8
HETATM    8  N1  UNL     1      -4.430   0.226  25.176  1.00  0.00    -0.350 N
HETATM    9  C3  UNL     1      -3.769  -0.592  24.231  1.00  0.00     0.240 C
HETATM   10  O1  UNL     1      -2.982  -1.490  24.605  1.00  0.00    -0.269 OA
ATOM     11  H1  UNL     1      -5.065   0.947  24.832  1.00  0.00     0.163 HD
BRANCH   9  12
HETATM   12  C2  UNL     1      -3.989  -0.407  22.807  1.00  0.00     0.064 C
HETATM   13  C1  UNL     1      -3.517   0.632  22.160  1.00  0.00     0.017 C
ENDBRANCH   9  12
ENDBRANCH   1   8
BRANCH   7  14
HETATM   14  O3  UNL     1      -1.914   0.126  26.869  1.00  0.00    -0.391 OA
ATOM     15  H3  UNL     1      -1.163   0.624  27.169  1.00  0.00     0.210 HD
ENDBRANCH   7  14
BRANCH   6  16
HETATM   16  O2  UNL     1      -2.222   2.495  28.513  1.00  0.00    -0.391 OA
ATOM     17  H2  UNL     1      -2.666   3.163  29.020  1.00  0.00     0.210 HD
ENDBRANCH   6  16
BRANCH   5  18
HETATM   18  N2  UNL     1      -4.406   3.224  29.424  1.00  0.00    -0.242 N
ATOM     19  H2  UNL     1      -4.846   3.969  28.882  1.00  0.00     0.197 HD
BRANCH  18  20
HETATM   20  N3  UNL     1      -3.867   3.500  30.491  1.00  0.00    -0.248 NA
BRANCH  20  21
HETATM   21  N4  UNL     1      -3.168   3.738  31.484  1.00  0.00    -0.261 N
ATOM     22  H42 UNL     1      -3.473   4.706  31.390  1.00  0.00     0.193 HD
ATOM     23  H41 UNL     1      -2.558   3.788  32.300  1.00  0.00     0.193 HD
ENDBRANCH  20  21
ENDBRANCH  18  20
ENDBRANCH   5  18
TORSDOF 7
ENDMDL