MODEL 5
REMARK VINA RESULT: -5.758282913      1.525      2.267
REMARK  5 active torsions:
REMARK  status: ('A' for Active; 'I' for Inactive)
REMARK    1  A    between atoms: C2_2  and  O1_3
REMARK    2  A    between atoms: C2_2  and  C3_5
REMARK    3  A    between atoms: C4_7  and  C5_8
REMARK    4  A    between atoms: C6_10  and  O3_11
REMARK    5  A    between atoms: C7_13  and  O4_14
ROOT
HETATM    1  C3  UNL     1      -3.636   0.047  25.933  1.00  0.00     0.181 C
HETATM    2  O2  UNL     1      -3.322   1.125  25.081  1.00  0.00    -0.372 OA
HETATM    3  C4  UNL     1      -4.086   0.769  23.946  1.00  0.00     0.163 C
HETATM    4  C6  UNL     1      -3.514  -0.612  23.695  1.00  0.00     0.179 C
HETATM    5  C7  UNL     1      -3.646  -1.180  25.114  1.00  0.00     0.180 C
ENDROOT
BRANCH   1   6
HETATM    6  C2  UNL     1      -2.746   0.037  27.129  1.00  0.00     0.145 C
HETATM    7  C1  UNL     1      -3.044   1.212  28.032  1.00  0.00     0.042 C
BRANCH   6   8
HETATM    8  O1  UNL     1      -2.819  -1.116  27.892  1.00  0.00    -0.393 OA
ATOM      9  H1  UNL     1      -3.363  -1.740  27.426  1.00  0.00     0.210 HD
ENDBRANCH   6   8
ENDBRANCH   1   6
BRANCH   5  10
HETATM   10  O4  UNL     1      -2.649  -2.092  25.384  1.00  0.00    -0.390 OA
ATOM     11  H4  UNL     1      -1.829  -1.729  25.697  1.00  0.00     0.210 HD
ENDBRANCH   5  10
BRANCH   3  12
HETATM   12  C5  UNL     1      -3.833   1.711  22.798  1.00  0.00     0.120 C
HETATM   13 BR1  UNL     1      -2.334   1.069  21.769  1.00  0.00    -0.094 Br
ENDBRANCH   3  12
BRANCH   4  14
HETATM   14  O3  UNL     1      -4.260  -1.333  22.782  1.00  0.00    -0.390 OA
ATOM     15  H3  UNL     1      -5.051  -1.693  23.165  1.00  0.00     0.210 HD
ENDBRANCH   4  14
TORSDOF 5
ENDMDL