MODEL 1
REMARK VINA RESULT: -3.797492868      0.000      0.000
REMARK  1 active torsions:
REMARK  status: ('A' for Active; 'I' for Inactive)
REMARK    1  A    between atoms: N2_4  and  N3_5
ROOT
HETATM    1  C1  UNL     1       4.643  93.004  45.448  1.00  0.00     0.313 C
HETATM    2  N1  UNL     1       4.263  92.015  44.496  1.00  0.00     0.118 N
HETATM    3  C2  UNL     1       4.989  90.773  44.630  1.00  0.00     0.387 C
HETATM    4  N2  UNL     1       4.351  90.161  45.784  1.00  0.00    -0.207 NA
HETATM    5  C3  UNL     1       2.933  90.421  45.616  1.00  0.00     0.167 C
HETATM    6  C4  UNL     1       2.883  91.578  44.626  1.00  0.00     0.334 C
HETATM    7 CL1  UNL     1       2.408  90.987  42.997  1.00  0.00    -0.090 Cl
ENDROOT
BRANCH   4   8
HETATM    8  N3  UNL     1       4.620  88.775  45.794  1.00  0.00    -0.362 NA
ATOM      9  H32 UNL     1       3.771  88.233  45.956  1.00  0.00     0.171 HD
ATOM     10  H31 UNL     1       4.950  88.484  44.873  1.00  0.00     0.171 HD
ENDBRANCH   4   8
TORSDOF 1
ENDMDL