MODEL 3
REMARK VINA RESULT: -3.469208143      7.839      8.168
REMARK  1 active torsions:
REMARK  status: ('A' for Active; 'I' for Inactive)
REMARK    1  A    between atoms: N2_6  and  N3_7
ROOT
HETATM    1  C1  UNL     1       5.381  86.908  43.876  1.00  0.00     0.321 C
HETATM    2  N1  UNL     1       5.381  88.318  44.257  1.00  0.00     0.095 N
HETATM    3 CL1  UNL     1       4.438  89.353  43.266  1.00  0.00     0.140 Cl
HETATM    4  C2  UNL     1       6.702  88.861  44.528  1.00  0.00     0.300 A
HETATM    5  C3  UNL     1       6.409  88.905  45.996  1.00  0.00     0.179 A
HETATM    6  N2  UNL     1       5.127  88.401  45.629  1.00  0.00    -0.040 NA
ENDROOT
BRANCH   6   7
HETATM    7  N3  UNL     1       4.016  89.118  46.009  1.00  0.00    -0.339 NA
ATOM      8  H32 UNL     1       3.525  88.831  46.856  1.00  0.00     0.172 HD
ATOM      9  H31 UNL     1       4.170  90.086  46.291  1.00  0.00     0.172 HD
ENDBRANCH   6   7
TORSDOF 1
ENDMDL