MODEL 4
REMARK VINA RESULT: -2.618592082      2.036      2.040
REMARK  2 active torsions:
REMARK  status: ('A' for Active; 'I' for Inactive)
REMARK    1  A    between atoms: N1_1  and  C1_5
REMARK    2  A    between atoms: C1_5  and  N2_6
ROOT
HETATM    1  C1  UNL     1       4.412  93.895  45.112  1.00  0.00     0.448 C
HETATM    2 BR1  UNL     1       5.321  93.390  46.720  1.00  0.00    -0.030 Br
ENDROOT
BRANCH   1   3
HETATM    3  N1  UNL     1       3.350  92.949  44.756  1.00  0.00    -0.041 N
ATOM      4  H13 UNL     1       2.804  92.626  45.554  1.00  0.00     0.277 HD
ATOM      5  H12 UNL     1       2.575  93.373  44.246  1.00  0.00     0.277 HD
ATOM      6  H11 UNL     1       3.817  92.199  44.246  1.00  0.00     0.277 HD
ENDBRANCH   1   3
BRANCH   1   7
HETATM    7  N2  UNL     1       3.738  95.181  45.294  1.00  0.00    -0.041 N
ATOM      8  H23 UNL     1       3.043  95.387  44.576  1.00  0.00     0.277 HD
ATOM      9  H22 UNL     1       3.098  95.201  46.088  1.00  0.00     0.277 HD
ATOM     10  H21 UNL     1       4.487  95.871  45.352  1.00  0.00     0.277 HD
ENDBRANCH   1   7
TORSDOF 2
ENDMDL