MODEL 4
REMARK VINA RESULT: -2.901928039      2.763      2.890
REMARK  1 active torsions:
REMARK  status: ('A' for Active; 'I' for Inactive)
REMARK    1  A    between atoms: N1_1  and  C1_5
ROOT
HETATM    1  C1  UNL     1      10.376  96.770  47.732  1.00  0.00     0.199 A
HETATM    2  C2  UNL     1      10.434  97.120  46.280  1.00  0.00     0.052 A
HETATM    3  C3  UNL     1      10.408  95.682  46.729  1.00  0.00     0.090 A
HETATM    4 BR1  UNL     1       8.782  94.709  46.332  1.00  0.00    -0.089 Br
ENDROOT
BRANCH   1   5
HETATM    5  N1  UNL     1      11.578  96.925  48.553  1.00  0.00    -0.074 N
ATOM      6  H13 UNL     1      11.894  97.893  48.491  1.00  0.00     0.274 HD
ATOM      7  H12 UNL     1      11.312  96.864  49.536  1.00  0.00     0.274 HD
ATOM      8  H11 UNL     1      12.375  96.309  48.391  1.00  0.00     0.274 HD
ENDBRANCH   1   5
TORSDOF 1
ENDMDL