MODEL 2
REMARK VINA RESULT: -3.538447532      2.330      2.336
REMARK  2 active torsions:
REMARK  status: ('A' for Active; 'I' for Inactive)
REMARK    1  A    between atoms: C1_2  and  C2_4
REMARK    2  A    between atoms: C2_4  and  N2_5
ROOT
HETATM    1  C2  UNL     1       4.637  95.888  44.815  1.00  0.00     0.336 C
HETATM    2 CL1  UNL     1       5.463  95.166  43.391  1.00  0.00    -0.088 Cl
ENDROOT
BRANCH   1   3
HETATM    3  C1  UNL     1       3.898  97.107  44.431  1.00  0.00     0.135 C
HETATM    4  N1  UNL     1       4.527  98.071  43.635  1.00  0.00    -0.091 NA
HETATM    5  S1  UNL     1       2.372  97.299  44.946  1.00  0.00    -0.065 SA
ENDBRANCH   1   3
BRANCH   1   6
HETATM    6  N2  UNL     1       3.779  94.860  45.347  1.00  0.00    -0.056 N
ATOM      7  H23 UNL     1       3.306  94.354  44.598  1.00  0.00     0.276 HD
ATOM      8  H22 UNL     1       4.326  94.095  45.744  1.00  0.00     0.276 HD
ATOM      9  H21 UNL     1       3.107  95.220  46.025  1.00  0.00     0.276 HD
ENDBRANCH   1   6
TORSDOF 2
ENDMDL