MODEL 4
REMARK VINA RESULT: -4.497174396      5.316      5.742
REMARK  3 active torsions:
REMARK  status: ('A' for Active; 'I' for Inactive)
REMARK    1  A    between atoms: C2_2  and  N1_3
REMARK    2  A    between atoms: N2_5  and  N3_7
REMARK    3  A    between atoms: C4_11  and  O1_12
ROOT
HETATM    1  C1  UNL     1       6.909  94.510  44.889  1.00  0.00     0.045 C
HETATM    2  C2  UNL     1       5.665  95.193  44.371  1.00  0.00     0.092 A
HETATM    3  C3  UNL     1       5.937  96.383  43.505  1.00  0.00     0.094 A
HETATM    4  C4  UNL     1       5.307  96.542  44.837  1.00  0.00     0.163 A
HETATM    5 CL1  UNL     1       3.617  97.090  44.814  1.00  0.00    -0.086 Cl
ENDROOT
BRANCH   2   6
HETATM    6  N1  UNL     1       4.578  94.303  44.084  1.00  0.00    -0.309 N
HETATM    7  N2  UNL     1       3.967  93.721  45.021  1.00  0.00    -0.253 N
ATOM      8  H2  UNL     1       3.200  93.098  44.766  1.00  0.00     0.207 HD
ATOM      9  H1  UNL     1       4.299  94.140  43.118  1.00  0.00     0.182 HD
BRANCH   7  10
HETATM   10  N3  UNL     1       4.254  93.861  46.375  1.00  0.00    -0.331 N
ATOM     11  H32 UNL     1       4.634  93.040  46.843  1.00  0.00     0.178 HD
ATOM     12  H31 UNL     1       4.114  94.712  46.921  1.00  0.00     0.178 HD
ENDBRANCH   7  10
ENDBRANCH   2   6
BRANCH   4  13
HETATM   13  O1  UNL     1       6.047  97.040  45.906  1.00  0.00    -0.372 OA
ATOM     14  H1  UNL     1       6.638  96.428  46.328  1.00  0.00     0.212 HD
ENDBRANCH   4  13
TORSDOF 3
ENDMDL