MODEL 1
REMARK VINA RESULT: -4.264590171      0.000      0.000
REMARK  1 active torsions:
REMARK  status: ('A' for Active; 'I' for Inactive)
REMARK    1  A    between atoms: C5_7  and  O1_8
ROOT
HETATM    1  C1  UNL     1      11.946  97.520  49.476  1.00  0.00     0.037 C
HETATM    2  C2  UNL     1      11.338  97.122  48.509  1.00  0.00    -0.001 C
HETATM    3  N1  UNL     1      10.625  96.679  47.369  1.00  0.00    -0.312 N
HETATM    4  C3  UNL     1      10.269  97.277  46.101  1.00  0.00     0.160 C
HETATM    5  C4  UNL     1      10.046  95.890  45.569  1.00  0.00     0.150 C
HETATM    6 CL1  UNL     1       8.500  95.775  44.680  1.00  0.00    -0.119 Cl
HETATM    7  C5  UNL     1       9.964  95.458  47.012  1.00  0.00     0.247 C
ENDROOT
BRANCH   7   8
HETATM    8  O1  UNL     1      10.702  94.326  47.333  1.00  0.00    -0.374 OA
ATOM      9  H1  UNL     1      10.236  93.517  47.161  1.00  0.00     0.212 HD
ENDBRANCH   7   8
TORSDOF 1
ENDMDL