MODEL 3
REMARK VINA RESULT: -3.919959631      5.684      6.343
REMARK  2 active torsions:
REMARK  status: ('A' for Active; 'I' for Inactive)
REMARK    1  A    between atoms: N1_1  and  C1_5
REMARK    2  A    between atoms: C4_10  and  N2_11
ROOT
HETATM    1  C1  UNL     1       3.279  90.271  45.456  1.00  0.00     0.241 C
HETATM    2  C2  UNL     1       4.715  89.728  45.489  1.00  0.00     0.205 C
HETATM    3  O1  UNL     1       5.199  90.223  44.280  1.00  0.00    -0.366 OA
HETATM    4  C3  UNL     1       4.749  91.509  44.135  1.00  0.00     0.249 C
HETATM    5 CL1  UNL     1       4.139  91.831  42.484  1.00  0.00    -0.093 Cl
HETATM    6  C4  UNL     1       3.593  91.709  45.090  1.00  0.00     0.259 C
ENDROOT
BRANCH   1   7
HETATM    7  N1  UNL     1       2.612  90.132  46.706  1.00  0.00    -0.071 N
ATOM      8  H13 UNL     1       1.604  90.046  46.576  1.00  0.00     0.274 HD
ATOM      9  H12 UNL     1       2.802  89.222  47.124  1.00  0.00     0.274 HD
ATOM     10  H11 UNL     1       2.835  90.887  47.355  1.00  0.00     0.274 HD
ENDBRANCH   1   7
BRANCH   6  11
HETATM   11  N2  UNL     1       2.494  92.413  44.530  1.00  0.00    -0.069 N
ATOM     12  H23 UNL     1       1.936  91.796  43.940  1.00  0.00     0.275 HD
ATOM     13  H22 UNL     1       1.805  92.633  45.248  1.00  0.00     0.275 HD
ATOM     14  H21 UNL     1       2.760  93.254  44.018  1.00  0.00     0.275 HD
ENDBRANCH   6  11
TORSDOF 2
ENDMDL