MODEL 1
REMARK VINA RESULT: -4.474915263      0.000      0.000
REMARK  0 active torsions:
REMARK  status: ('A' for Active; 'I' for Inactive)
REMARK       I    between atoms: C3_5  and  N3_7
ROOT
HETATM    1  C1  UNL     1      11.813  97.337  49.088  1.00  0.00     0.037 C
HETATM    2  C2  UNL     1      11.001  97.115  48.222  1.00  0.00     0.001 C
HETATM    3  N1  UNL     1      10.055  96.830  47.210  1.00  0.00    -0.289 N
ATOM      4  H1  UNL     1       9.647  97.586  46.658  1.00  0.00     0.179 HD
HETATM    5  C3  UNL     1       9.709  95.594  46.989  1.00  0.00     0.208 C
HETATM    6  N2  UNL     1       8.759  95.375  45.965  1.00  0.00    -0.062 NA
HETATM    7  N3  UNL     1      10.280  94.553  47.759  1.00  0.00    -0.267 N
ATOM      8  H3  UNL     1      11.197  94.683  48.185  1.00  0.00     0.180 HD
HETATM    9  C4  UNL     1       9.595  93.346  47.939  1.00  0.00     0.184 C
HETATM   10  N4  UNL     1       9.038  92.323  48.094  1.00  0.00    -0.172 NA
ENDROOT
TORSDOF 0
ENDMDL