MODEL 1
REMARK VINA RESULT: -3.766975044      0.000      0.000
REMARK  2 active torsions:
REMARK  status: ('A' for Active; 'I' for Inactive)
REMARK    1  A    between atoms: O1_1  and  C1_3
REMARK    2  A    between atoms: C4_7  and  O2_8
ROOT
HETATM    1  C1  UNL     1       3.647  97.432  44.063  1.00  0.00     0.149 C
HETATM    2  C2  UNL     1       4.445  96.201  44.521  1.00  0.00     0.057 C
HETATM    3  C3  UNL     1       5.621  96.819  43.763  1.00  0.00     0.116 C
HETATM    4 CL1  UNL     1       6.684  95.667  42.976  1.00  0.00    -0.122 Cl
HETATM    5  C4  UNL     1       4.557  97.439  42.846  1.00  0.00     0.165 C
ENDROOT
BRANCH   1   6
HETATM    6  O1  UNL     1       2.344  97.060  43.832  1.00  0.00    -0.393 OA
ATOM      7  H1  UNL     1       1.802  97.376  44.544  1.00  0.00     0.210 HD
ENDBRANCH   1   6
BRANCH   5   8
HETATM    8  O2  UNL     1       4.200  96.504  41.891  1.00  0.00    -0.391 OA
ATOM      9  H2  UNL     1       3.599  96.844  41.238  1.00  0.00     0.210 HD
ENDBRANCH   5   8
TORSDOF 2
ENDMDL