MODEL 1
REMARK VINA RESULT: -9.295933025      0.000      0.000
REMARK  16 active torsions:
REMARK  status: ('A' for Active; 'I' for Inactive)
REMARK    1  A    between atoms: N1_1  and  C1_5
REMARK    2  A    between atoms: C4_8  and  N2_9
REMARK    3  A    between atoms: N3_12  and  C7_13
REMARK    4  A    between atoms: N6_21  and  C11_22
REMARK    5  A    between atoms: C11_22  and  C12_23
REMARK    6  A    between atoms: C12_23  and  O1_24
REMARK    7  A    between atoms: C12_23  and  C13_26
REMARK    8  A    between atoms: C13_26  and  C14_27
REMARK    9  A    between atoms: C14_27  and  O2_28
REMARK   10  A    between atoms: C15_30  and  N7_31
REMARK   11  A    between atoms: N7_31  and  C16_33
REMARK   12  A    between atoms: C18_35  and  N8_36
REMARK   13  A    between atoms: C19_40  and  O3_41
REMARK   14  A    between atoms: C20_43  and  O4_44
REMARK   15  A    between atoms: C20_43  and  C21_46
REMARK   16  A    between atoms: C21_46  and  O5_47
ROOT
HETATM    1  C7  UNL     1      20.182  40.727  97.274  1.00  0.00     0.683 A
HETATM    2  N4  UNL     1      19.541  41.506  98.172  1.00  0.00    -0.174 N
ATOM      3  H4  UNL     1      19.666  42.518  98.130  1.00  0.00     0.186 HD
HETATM    4  C8  UNL     1      18.747  40.989  99.116  1.00  0.00     0.155 A
HETATM    5  C9  UNL     1      18.598  39.620  99.150  1.00  0.00     0.123 A
HETATM    6  N5  UNL     1      17.771  39.344 100.165  1.00  0.00    -0.346 N
ATOM      7  H5  UNL     1      17.459  38.417 100.451  1.00  0.00     0.167 HD
HETATM    8  C10 UNL     1      17.423  40.511 100.739  1.00  0.00     0.185 A
HETATM    9  N6  UNL     1      18.011  41.542 100.112  1.00  0.00    -0.324 N
HETATM   10  C15 UNL     1      19.241  38.803  98.243  1.00  0.00     0.148 A
HETATM   11  N9  UNL     1      20.029  39.407  97.316  1.00  0.00    -0.174 N
ATOM     12  H9  UNL     1      20.518  38.830  96.631  1.00  0.00     0.186 HD
ENDROOT
BRANCH  10  13
HETATM   13  N7  UNL     1      19.108  37.521  98.269  1.00  0.00    -0.369 N
ATOM     14  H7  UNL     1      19.868  36.973  98.671  1.00  0.00     0.161 HD
BRANCH  13  15
HETATM   15  C16 UNL     1      17.965  36.812  97.771  1.00  0.00     0.088 C
HETATM   16  C17 UNL     1      18.061  36.462  96.322  1.00  0.00     0.060 C
HETATM   17  C18 UNL     1      18.626  35.109  96.017  1.00  0.00     0.217 C
HETATM   18  C19 UNL     1      18.157  34.009  96.910  1.00  0.00     0.185 C
HETATM   19  C20 UNL     1      18.493  34.407  98.333  1.00  0.00     0.108 C
HETATM   20  C22 UNL     1      17.698  35.625  98.662  1.00  0.00     0.068 C
BRANCH  17  21
HETATM   21  N8  UNL     1      18.239  34.772  94.652  1.00  0.00    -0.072 N
ATOM     22  H83 UNL     1      18.354  33.781  94.438  1.00  0.00     0.274 HD
ATOM     23  H82 UNL     1      17.231  34.825  94.499  1.00  0.00     0.274 HD
ATOM     24  H81 UNL     1      18.769  35.378  94.027  1.00  0.00     0.274 HD
ENDBRANCH  17  21
BRANCH  18  25
HETATM   25  O3  UNL     1      18.882  32.859  96.594  1.00  0.00    -0.390 OA
ATOM     26  H3  UNL     1      19.259  32.520  97.397  1.00  0.00     0.210 HD
ENDBRANCH  18  25
BRANCH  19  27
HETATM   27  O4  UNL     1      18.041  33.392  99.209  1.00  0.00    -0.385 OA
ATOM     28  H4  UNL     1      18.528  33.451 100.024  1.00  0.00     0.210 HD
ENDBRANCH  19  27
BRANCH  19  29
HETATM   29  C21 UNL     1      19.962  34.545  98.561  1.00  0.00     0.204 C
BRANCH  29  30
HETATM   30  O5  UNL     1      20.402  33.345  99.156  1.00  0.00    -0.398 OA
ATOM     31  H5  UNL     1      21.231  33.532  99.580  1.00  0.00     0.209 HD
ENDBRANCH  29  30
ENDBRANCH  19  29
ENDBRANCH  13  15
ENDBRANCH  10  13
BRANCH   1  32
HETATM   32  N3  UNL     1      21.017  41.384  96.286  1.00  0.00    -0.214 N
HETATM   33  C6  UNL     1      21.431  40.668  95.105  1.00  0.00     0.171 C
HETATM   34  C5  UNL     1      22.766  41.242  94.653  1.00  0.00     0.293 C
HETATM   35  N2  UNL     1      22.617  42.654  94.515  1.00  0.00     0.096 N
HETATM   36  C24 UNL     1      22.624  43.226  95.846  1.00  0.00     0.293 C
HETATM   37  C23 UNL     1      21.388  42.764  96.536  1.00  0.00     0.171 C
BRANCH  35  38
HETATM   38  C4  UNL     1      23.632  43.250  93.667  1.00  0.00     0.225 C
HETATM   39  C3  UNL     1      24.614  43.959  94.595  1.00  0.00     0.038 C
HETATM   40  C2  UNL     1      25.963  43.839  93.919  1.00  0.00     0.035 C
HETATM   41  C1  UNL     1      25.875  42.704  92.948  1.00  0.00     0.185 C
HETATM   42  C25 UNL     1      24.504  42.133  93.138  1.00  0.00     0.068 C
BRANCH  41  43
HETATM   43  N1  UNL     1      26.846  41.654  93.213  1.00  0.00    -0.075 N
ATOM     44  H13 UNL     1      26.911  41.010  92.425  1.00  0.00     0.274 HD
ATOM     45  H12 UNL     1      27.796  42.026  93.202  1.00  0.00     0.274 HD
ATOM     46  H11 UNL     1      26.661  41.151  94.080  1.00  0.00     0.274 HD
ENDBRANCH  41  43
ENDBRANCH  35  38
ENDBRANCH   1  32
BRANCH   9  47
HETATM   47  C11 UNL     1      17.936  42.951 100.367  1.00  0.00     0.163 C
BRANCH  47  48
HETATM   48  C12 UNL     1      17.032  43.256 101.550  1.00  0.00     0.138 C
BRANCH  48  49
HETATM   49  O1  UNL     1      16.126  44.240 101.177  1.00  0.00    -0.394 OA
ATOM     50  H1  UNL     1      15.912  44.763 101.940  1.00  0.00     0.210 HD
ENDBRANCH  48  49
BRANCH  48  51
HETATM   51  C13 UNL     1      17.914  43.687 102.683  1.00  0.00     0.059 C
BRANCH  51  52
HETATM   52  C14 UNL     1      18.519  45.057 102.443  1.00  0.00     0.166 C
BRANCH  52  53
HETATM   53  O2  UNL     1      17.608  46.069 102.702  1.00  0.00    -0.401 OA
ATOM     54  H2  UNL     1      17.070  46.257 101.942  1.00  0.00     0.209 HD
ENDBRANCH  52  53
ENDBRANCH  51  52
ENDBRANCH  48  51
ENDBRANCH  47  48
ENDBRANCH   9  47
TORSDOF 16
ENDMDL