MODEL 1
REMARK VINA RESULT: -9.288503801      0.000      0.000
REMARK  11 active torsions:
REMARK  status: ('A' for Active; 'I' for Inactive)
REMARK    1  A    between atoms: N1_1  and  C1_4
REMARK    2  A    between atoms: C3_8  and  N3_9
REMARK    3  A    between atoms: N3_9  and  C4_11
REMARK    4  A    between atoms: C5_12  and  O1_13
REMARK    5  A    between atoms: C9_18  and  C10_19
REMARK    6  A    between atoms: N5_25  and  C12_26
REMARK    7  A    between atoms: C12_26  and  C13_27
REMARK    8  A    between atoms: C13_27  and  N6_28
REMARK    9  A    between atoms: N10_43  and  C21_44
REMARK   10  A    between atoms: C21_44  and  C22_45
REMARK   11  A    between atoms: C22_45  and  N11_46
ROOT
HETATM    1  C4  UNL     1      17.866  39.102  99.677  1.00  0.00     0.137 A
HETATM    2  C5  UNL     1      18.121  37.876 100.246  1.00  0.00     0.112 A
HETATM    3  C6  UNL     1      18.186  37.707 101.625  1.00  0.00     0.044 A
HETATM    4  C7  UNL     1      18.440  36.485 102.190  1.00  0.00     0.021 A
HETATM    5  C8  UNL     1      18.491  36.384 103.553  1.00  0.00     0.038 A
HETATM    6  C9  UNL     1      18.289  37.503 104.327  1.00  0.00     0.111 A
HETATM    7  N4  UNL     1      18.043  38.678 103.739  1.00  0.00    -0.336 N
ATOM      8  H4  UNL     1      17.895  39.492 104.336  1.00  0.00     0.168 HD
HETATM    9  C11 UNL     1      17.978  38.851 102.393  1.00  0.00     0.124 A
HETATM   10  N5  UNL     1      17.727  40.060 101.858  1.00  0.00    -0.296 N
HETATM   11  C18 UNL     1      17.673  40.179 100.513  1.00  0.00     0.279 A
HETATM   12  O4  UNL     1      17.438  41.316 100.056  1.00  0.00    -0.265 OA
ENDROOT
BRANCH   1  13
HETATM   13  N3  UNL     1      17.806  39.259  98.296  1.00  0.00    -0.334 N
ATOM     14  H3  UNL     1      16.865  39.277  97.903  1.00  0.00     0.168 HD
BRANCH  13  15
HETATM   15  C3  UNL     1      18.741  39.382  97.454  1.00  0.00     0.138 A
HETATM   16  C2  UNL     1      19.149  40.669  97.153  1.00  0.00     0.138 A
HETATM   17  N2  UNL     1      18.750  41.896  97.580  1.00  0.00    -0.184 N
HETATM   18  C20 UNL     1      20.158  40.893  96.250  1.00  0.00     0.155 A
HETATM   19  C1  UNL     1      19.498  42.816  96.950  1.00  0.00     0.680 A
ATOM     20  H2  UNL     1      18.012  42.084  98.258  1.00  0.00     0.184 HD
HETATM   21  N10 UNL     1      20.370  42.219  96.128  1.00  0.00    -0.165 N
HETATM   22  N9  UNL     1      20.731  39.811  95.673  1.00  0.00    -0.336 N
HETATM   23  C19 UNL     1      20.344  38.562  95.958  1.00  0.00     0.183 A
ATOM     24  H9  UNL     1      21.483  39.953  94.999  1.00  0.00     0.168 HD
HETATM   25  N8  UNL     1      19.358  38.360  96.841  1.00  0.00    -0.337 N
ATOM     26  H8  UNL     1      19.069  37.405  97.053  1.00  0.00     0.168 HD
BRANCH  19  27
HETATM   27  N1  UNL     1      19.437  44.110  97.073  1.00  0.00    -0.234 N
ATOM     28  H12 UNL     1      18.587  44.635  96.870  1.00  0.00     0.174 HD
ATOM     29  H11 UNL     1      20.179  44.745  97.369  1.00  0.00     0.174 HD
ENDBRANCH  19  27
BRANCH  21  30
HETATM   30  C21 UNL     1      21.366  42.812  95.258  1.00  0.00     0.169 C
BRANCH  30  31
HETATM   31  C22 UNL     1      22.642  43.090  96.039  1.00  0.00     0.143 C
BRANCH  31  32
HETATM   32  N11 UNL     1      23.358  44.230  95.514  1.00  0.00    -0.365 N
HETATM   33  C23 UNL     1      23.158  45.382  96.022  1.00  0.00     0.197 C
HETATM   34  N12 UNL     1      22.252  45.550  97.084  1.00  0.00    -0.067 NA
HETATM   35  N13 UNL     1      23.855  46.499  95.510  1.00  0.00    -0.067 NA
ATOM     36  H11 UNL     1      24.017  44.113  94.745  1.00  0.00     0.161 HD
ENDBRANCH  31  32
ENDBRANCH  30  31
ENDBRANCH  21  30
ENDBRANCH  13  15
ENDBRANCH   1  13
BRANCH   2  37
HETATM   37  O1  UNL     1      18.308  36.830  99.365  1.00  0.00    -0.357 OA
ATOM     38  H1  UNL     1      18.067  35.968  99.686  1.00  0.00     0.217 HD
ENDBRANCH   2  37
BRANCH  10  39
HETATM   39  C12 UNL     1      17.519  41.215 102.730  1.00  0.00     0.164 C
BRANCH  39  40
HETATM   40  C13 UNL     1      18.805  42.004 102.713  1.00  0.00     0.292 C
BRANCH  40  41
HETATM   41  N6  UNL     1      18.643  43.392 102.929  1.00  0.00     0.093 N
HETATM   42  C14 UNL     1      17.333  43.922 102.792  1.00  0.00     0.291 C
HETATM   43  C15 UNL     1      16.956  44.383 101.427  1.00  0.00     0.144 C
HETATM   44  N7  UNL     1      17.895  44.074 100.394  1.00  0.00    -0.418 N
HETATM   45  C16 UNL     1      19.259  44.304 100.721  1.00  0.00     0.144 C
ATOM     46  H7  UNL     1      17.606  43.714  99.485  1.00  0.00     0.153 HD
HETATM   47  C17 UNL     1      19.580  44.166 102.187  1.00  0.00     0.291 C
ENDBRANCH  40  41
ENDBRANCH  39  40
ENDBRANCH  10  39
BRANCH   6  48
HETATM   48  C10 UNL     1      18.347  37.385 105.796  1.00  0.00     0.226 C
HETATM   49  O2  UNL     1      18.313  36.284 106.388  1.00  0.00    -0.643 OA
HETATM   50  O3  UNL     1      18.444  38.539 106.552  1.00  0.00    -0.643 OA
ENDBRANCH   6  48
TORSDOF 11
ENDMDL