MODEL 3
REMARK VINA RESULT: -9.502892636      3.180      5.392
REMARK  11 active torsions:
REMARK  status: ('A' for Active; 'I' for Inactive)
REMARK    1  A    between atoms: N1_1  and  C1_4
REMARK    2  A    between atoms: C2_7  and  C3_8
REMARK    3  A    between atoms: C4_9  and  C5_10
REMARK    4  A    between atoms: C6_13  and  O2_14
REMARK    5  A    between atoms: C7_17  and  C8_18
REMARK    6  A    between atoms: C8_18  and  S1_19
REMARK    7  A    between atoms: S1_19  and  C9_20
REMARK    8  A    between atoms: C11_22  and  C12_23
REMARK    9  A    between atoms: C12_23  and  S2_24
REMARK   10  A    between atoms: S2_24  and  N4_25
REMARK   11  A    between atoms: C13_30  and  N5_31
ROOT
HETATM    1  C8  UNL     1      19.216  43.189 100.271  1.00  0.00     0.128 C
ENDROOT
BRANCH   1   2
HETATM    2  C7  UNL     1      19.215  43.736  98.857  1.00  0.00     0.233 C
HETATM    3  O3  UNL     1      18.514  42.970  97.961  1.00  0.00    -0.332 OA
HETATM    4  C6  UNL     1      19.222  41.928  97.423  1.00  0.00     0.301 C
HETATM    5  C4  UNL     1      20.514  42.396  96.758  1.00  0.00     0.090 C
HETATM    6  C3  UNL     1      21.137  43.398  97.290  1.00  0.00     0.074 C
HETATM    7  N7  UNL     1      20.562  44.010  98.466  1.00  0.00    -0.360 N
ATOM      8  H7  UNL     1      21.127  44.649  99.025  1.00  0.00     0.162 HD
BRANCH   4   9
HETATM    9  O2  UNL     1      19.525  40.908  98.306  1.00  0.00    -0.367 OA
ATOM     10  H2  UNL     1      18.773  40.330  98.370  1.00  0.00     0.213 HD
ENDBRANCH   4   9
BRANCH   5  11
HETATM   11  C5  UNL     1      20.981  41.717  95.594  1.00  0.00     0.268 C
HETATM   12  N3  UNL     1      21.689  40.471  95.800  1.00  0.00    -0.057 NA
HETATM   13  O1  UNL     1      20.863  42.046  94.413  1.00  0.00    -0.271 OA
ENDBRANCH   5  11
BRANCH   6  14
HETATM   14  C2  UNL     1      22.387  43.996  96.828  1.00  0.00     0.068 A
HETATM   15  N2  UNL     1      23.215  43.355  96.029  1.00  0.00    -0.335 N
HETATM   16  C1  UNL     1      24.296  43.991  95.587  1.00  0.00     0.142 A
ATOM     17  H2  UNL     1      23.031  42.389  95.755  1.00  0.00     0.168 HD
HETATM   18  S3  UNL     1      24.168  45.530  96.298  1.00  0.00    -0.064 SA
HETATM   19  C19 UNL     1      22.711  45.290  97.146  1.00  0.00     0.085 A
BRANCH  16  20
HETATM   20  N1  UNL     1      25.240  43.544  94.791  1.00  0.00    -0.380 N
ATOM     21  H12 UNL     1      25.444  42.577  94.539  1.00  0.00     0.158 HD
ATOM     22  H11 UNL     1      25.943  44.076  94.277  1.00  0.00     0.158 HD
ENDBRANCH  16  20
ENDBRANCH   6  14
ENDBRANCH   1   2
BRANCH   1  23
HETATM   23  S1  UNL     1      18.193  44.282 101.293  1.00  0.00    -0.156 SA
BRANCH  23  24
HETATM   24  C9  UNL     1      17.403  43.255 102.577  1.00  0.00     0.072 C
HETATM   25  C10 UNL     1      16.124  42.680 102.081  1.00  0.00    -0.006 C
HETATM   26  C11 UNL     1      16.048  41.384 102.355  1.00  0.00    -0.044 C
HETATM   27  C13 UNL     1      17.288  40.955 103.077  1.00  0.00     0.125 C
HETATM   28  C18 UNL     1      18.288  42.048 102.788  1.00  0.00     0.049 C
BRANCH  26  29
HETATM   29  C12 UNL     1      14.954  40.427 102.042  1.00  0.00     0.199 C
BRANCH  29  30
HETATM   30  S2  UNL     1      13.470  40.919 102.887  1.00  0.00     0.228 S
HETATM   31  O4  UNL     1      12.754  41.995 102.142  1.00  0.00    -0.206 OA
HETATM   32  O5  UNL     1      13.874  41.428 104.254  1.00  0.00    -0.206 OA
BRANCH  30  33
HETATM   33  N4  UNL     1      12.388  39.587 103.079  1.00  0.00    -0.328 N
ATOM     34  H42 UNL     1      12.500  38.696 102.593  1.00  0.00     0.168 HD
ATOM     35  H41 UNL     1      11.638  39.811 103.731  1.00  0.00     0.168 HD
ENDBRANCH  30  33
ENDBRANCH  29  30
ENDBRANCH  26  29
BRANCH  27  36
HETATM   36  N5  UNL     1      17.780  39.703 102.592  1.00  0.00    -0.301 N
HETATM   37  C14 UNL     1      17.887  39.483 101.279  1.00  0.00     0.102 A
HETATM   38  C15 UNL     1      18.360  38.282 100.817  1.00  0.00     0.092 A
HETATM   39  C16 UNL     1      18.723  37.309 101.703  1.00  0.00     0.250 A
HETATM   40  O6  UNL     1      19.155  36.213 101.277  1.00  0.00    -0.268 OA
HETATM   41  N6  UNL     1      18.605  37.560 103.013  1.00  0.00    -0.275 N
HETATM   42  C17 UNL     1      18.138  38.744 103.454  1.00  0.00     0.329 A
ATOM     43  H6  UNL     1      18.872  36.843 103.687  1.00  0.00     0.173 HD
HETATM   44  O7  UNL     1      18.060  38.893 104.705  1.00  0.00    -0.246 OA
ENDBRANCH  27  36
ENDBRANCH  23  24
ENDBRANCH   1  23
TORSDOF 11
ENDMDL