MODEL 1
REMARK VINA RESULT: -10.138543994      0.000      0.000
REMARK  14 active torsions:
REMARK  status: ('A' for Active; 'I' for Inactive)
REMARK    1  A    between atoms: N1_2  and  C2_4
REMARK    2  A    between atoms: C4_9  and  C5_10
REMARK    3  A    between atoms: C6_13  and  N5_14
REMARK    4  A    between atoms: N5_14  and  C7_16
REMARK    5  A    between atoms: C8_19  and  N7_20
REMARK    6  A    between atoms: C10_22  and  N8_23
REMARK    7  A    between atoms: C12_28  and  N9_29
REMARK    8  A    between atoms: C14_36  and  N11_37
REMARK    9  A    between atoms: N11_37  and  C15_39
REMARK   10  A    between atoms: C15_39  and  C16_40
REMARK   11  A    between atoms: C19_43  and  O2_44
REMARK   12  A    between atoms: C21_46  and  C22_47
REMARK   13  A    between atoms: C22_47  and  C23_48
REMARK   14  A    between atoms: C23_48  and  O3_49
ROOT
HETATM    1  C7  UNL     1      17.874  38.389  98.285  1.00  0.00     0.713 A
HETATM    2  N6  UNL     1      17.853  39.062  99.446  1.00  0.00    -0.021 N
ATOM      3  H6  UNL     1      17.469  38.610 100.276  1.00  0.00     0.203 HD
HETATM    4  C8  UNL     1      18.331  40.335  99.543  1.00  0.00     0.709 A
HETATM    5  N10 UNL     1      18.816  40.858  98.413  1.00  0.00    -0.021 N
ATOM      6  H10 UNL     1      19.181  41.809  98.452  1.00  0.00     0.203 HD
HETATM    7  C14 UNL     1      18.858  40.225  97.227  1.00  0.00     0.707 A
HETATM    8  N13 UNL     1      18.373  38.962  97.177  1.00  0.00    -0.021 N
ATOM      9  H13 UNL     1      18.388  38.446  96.299  1.00  0.00     0.203 HD
ENDROOT
BRANCH   1  10
HETATM   10  N5  UNL     1      17.365  37.065  98.234  1.00  0.00    -0.174 N
ATOM     11  H5  UNL     1      16.429  36.888  98.597  1.00  0.00     0.186 HD
BRANCH  10  12
HETATM   12  C6  UNL     1      18.034  36.075  97.748  1.00  0.00     0.155 A
HETATM   13  C4  UNL     1      18.561  35.120  98.586  1.00  0.00     0.116 A
HETATM   14  C3  UNL     1      19.268  34.082  97.993  1.00  0.00     0.151 A
HETATM   15  N2  UNL     1      19.428  34.018  96.652  1.00  0.00    -0.178 N
HETATM   16  N3  UNL     1      19.805  33.103  98.866  1.00  0.00    -0.081 NA
HETATM   17  C2  UNL     1      18.903  34.964  95.857  1.00  0.00     0.680 A
ATOM     18  H2  UNL     1      19.951  33.245  96.241  1.00  0.00     0.185 HD
HETATM   19  N14 UNL     1      18.221  35.968  96.422  1.00  0.00    -0.175 N
ATOM     20  H14 UNL     1      17.823  36.686  95.817  1.00  0.00     0.186 HD
BRANCH  13  21
HETATM   21  C5  UNL     1      18.386  35.196 100.034  1.00  0.00     0.272 C
HETATM   22  N4  UNL     1      19.161  36.138 100.761  1.00  0.00    -0.057 NA
HETATM   23  O1  UNL     1      17.587  34.476 100.677  1.00  0.00    -0.271 OA
ENDBRANCH  13  21
BRANCH  17  24
HETATM   24  N1  UNL     1      19.073  34.877  94.565  1.00  0.00    -0.230 N
HETATM   25  C1  UNL     1      19.554  36.041  93.864  1.00  0.00     0.165 C
ATOM     26  H1  UNL     1      18.872  34.010  94.067  1.00  0.00     0.177 HD
ENDBRANCH  17  24
ENDBRANCH  10  12
ENDBRANCH   1  10
BRANCH   4  27
HETATM   27  N7  UNL     1      18.297  41.028 100.780  1.00  0.00    -0.213 N
HETATM   28  C9  UNL     1      17.430  42.215 100.847  1.00  0.00     0.174 C
HETATM   29  C10 UNL     1      18.420  43.358 101.096  1.00  0.00     0.204 C
HETATM   30  C11 UNL     1      18.915  43.163 102.502  1.00  0.00     0.069 C
HETATM   31  C12 UNL     1      19.494  41.832 102.782  1.00  0.00     0.204 C
HETATM   32  C13 UNL     1      19.013  40.698 101.957  1.00  0.00     0.174 C
BRANCH  29  33
HETATM   33  N8  UNL     1      17.823  44.652 100.960  1.00  0.00    -0.073 N
ATOM     34  H83 UNL     1      18.257  45.176 100.201  1.00  0.00     0.274 HD
ATOM     35  H82 UNL     1      16.874  44.579 100.592  1.00  0.00     0.274 HD
ATOM     36  H81 UNL     1      17.836  45.189 101.828  1.00  0.00     0.274 HD
ENDBRANCH  29  33
BRANCH  31  37
HETATM   37  N9  UNL     1      20.948  41.950 102.686  1.00  0.00    -0.073 N
ATOM     38  H93 UNL     1      21.439  41.304 103.304  1.00  0.00     0.274 HD
ATOM     39  H92 UNL     1      21.317  41.598 101.802  1.00  0.00     0.274 HD
ATOM     40  H91 UNL     1      21.193  42.925 102.856  1.00  0.00     0.274 HD
ENDBRANCH  31  37
ENDBRANCH   4  27
BRANCH   7  41
HETATM   41  N11 UNL     1      19.347  40.807  96.182  1.00  0.00    -0.219 N
ATOM     42  H11 UNL     1      18.766  41.461  95.658  1.00  0.00     0.178 HD
BRANCH  41  43
HETATM   43  C15 UNL     1      20.699  40.550  95.740  1.00  0.00     0.195 C
BRANCH  43  44
HETATM   44  C16 UNL     1      21.495  41.781  95.617  1.00  0.00     0.028 A
HETATM   45  C17 UNL     1      22.210  42.090  94.484  1.00  0.00     0.029 A
HETATM   46  C18 UNL     1      22.960  43.267  94.399  1.00  0.00     0.041 A
HETATM   47  C19 UNL     1      22.983  44.130  95.470  1.00  0.00     0.090 A
HETATM   48  C21 UNL     1      22.258  43.792  96.589  1.00  0.00     0.045 A
HETATM   49  N12 UNL     1      21.542  42.646  96.637  1.00  0.00    -0.359 N
ATOM     50  H12 UNL     1      21.017  42.433  97.485  1.00  0.00     0.165 HD
BRANCH  47  51
HETATM   51  O2  UNL     1      23.715  45.308  95.434  1.00  0.00    -0.354 OA
HETATM   52  C20 UNL     1      23.390  46.354  94.555  1.00  0.00     0.210 C
ENDBRANCH  47  51
BRANCH  48  53
HETATM   53  C22 UNL     1      22.256  44.701  97.785  1.00  0.00     0.086 C
BRANCH  53  54
HETATM   54  C23 UNL     1      20.978  44.483  98.593  1.00  0.00     0.170 C
BRANCH  54  55
HETATM   55  O3  UNL     1      19.846  44.816  97.858  1.00  0.00    -0.400 OA
ATOM     56  H3  UNL     1      19.122  45.060  98.423  1.00  0.00     0.209 HD
ENDBRANCH  54  55
ENDBRANCH  53  54
ENDBRANCH  48  53
ENDBRANCH  43  44
ENDBRANCH  41  43
ENDBRANCH   7  41
TORSDOF 14
ENDMDL