MODEL 5
REMARK VINA RESULT: -8.344860915      2.784      6.344
REMARK  13 active torsions:
REMARK  status: ('A' for Active; 'I' for Inactive)
REMARK    1  A    between atoms: O1_2  and  C2_3
REMARK    2  A    between atoms: C2_3  and  C3_4
REMARK    3  A    between atoms: C6_11  and  C7_12
REMARK    4  A    between atoms: C7_12  and  N2_13
REMARK    5  A    between atoms: N2_13  and  C8_15
REMARK    6  A    between atoms: C12_26  and  N6_27
REMARK    7  A    between atoms: N6_27  and  N7_29
REMARK    8  A    between atoms: C13_32  and  C14_33
REMARK    9  A    between atoms: C19_38  and  N8_39
REMARK   10  A    between atoms: C20_44  and  O5_45
REMARK   11  A    between atoms: C20_44  and  C21_47
REMARK   12  A    between atoms: C21_47  and  C22_52
REMARK   13  A    between atoms: N10_48  and  O6_50
ROOT
HETATM    1  C2  UNL     1      17.619  39.615 101.614  1.00  0.00     0.262 C
HETATM    2  C4  UNL     1      18.028  39.256 100.174  1.00  0.00     0.067 C
HETATM    3  C5  UNL     1      17.780  37.890  99.987  1.00  0.00     0.048 C
HETATM    4  N1  UNL     1      18.348  37.144  99.034  1.00  0.00    -0.345 N
ATOM      5  H1  UNL     1      18.613  36.195  99.298  1.00  0.00     0.167 HD
HETATM    6  C6  UNL     1      18.612  37.512  97.751  1.00  0.00     0.102 C
HETATM    7  N5  UNL     1      19.027  38.747  97.344  1.00  0.00    -0.310 N
ATOM      8  H5  UNL     1      19.556  38.763  96.472  1.00  0.00     0.170 HD
HETATM    9  C11 UNL     1      18.840  39.946  97.921  1.00  0.00     0.275 C
HETATM   10  O4  UNL     1      18.933  40.935  97.171  1.00  0.00    -0.266 OA
HETATM   11  C12 UNL     1      18.552  40.156  99.291  1.00  0.00     0.129 C
HETATM   12  C13 UNL     1      16.821  37.611 101.034  1.00  0.00     0.147 C
HETATM   13  N9  UNL     1      17.606  38.273 102.153  1.00  0.00    -0.304 N
HETATM   14  C20 UNL     1      17.981  37.651 103.308  1.00  0.00     0.167 C
ENDROOT
BRANCH   1  15
HETATM   15  O1  UNL     1      16.406  40.172 101.690  1.00  0.00    -0.352 OA
HETATM   16  C1  UNL     1      15.741  40.480 102.788  1.00  0.00     0.206 C
ENDBRANCH   1  15
BRANCH   1  17
HETATM   17  C3  UNL     1      18.677  40.528 102.054  1.00  0.00     0.237 C
HETATM   18  O2  UNL     1      18.505  41.749 102.372  1.00  0.00    -0.644 OA
HETATM   19  O3  UNL     1      19.992  40.005 102.126  1.00  0.00    -0.644 OA
ENDBRANCH   1  17
BRANCH  12  20
HETATM   20  C14 UNL     1      16.316  36.291 101.288  1.00  0.00     0.045 C
HETATM   21  C15 UNL     1      15.012  36.366 102.066  1.00  0.00     0.009 C
HETATM   22  C16 UNL     1      14.515  34.946 102.378  1.00  0.00     0.001 C
HETATM   23  C17 UNL     1      14.131  34.244 101.092  1.00  0.00     0.002 C
HETATM   24  C18 UNL     1      15.268  34.334 100.138  1.00  0.00     0.033 C
HETATM   25  C19 UNL     1      15.820  35.721  99.925  1.00  0.00     0.190 C
BRANCH  25  26
HETATM   26  N8  UNL     1      14.824  36.571  99.347  1.00  0.00    -0.075 N
ATOM     27  H83 UNL     1      14.060  36.032  98.938  1.00  0.00     0.274 HD
ATOM     28  H82 UNL     1      14.295  37.072 100.061  1.00  0.00     0.274 HD
ATOM     29  H81 UNL     1      15.239  37.210  98.668  1.00  0.00     0.274 HD
ENDBRANCH  25  26
ENDBRANCH  12  20
BRANCH  14  30
HETATM   30  O5  UNL     1      18.113  36.334 103.317  1.00  0.00    -0.345 OA
ATOM     31  H5  UNL     1      17.770  35.839 104.052  1.00  0.00     0.219 HD
ENDBRANCH  14  30
BRANCH  14  32
HETATM   32  C21 UNL     1      18.262  38.255 104.614  1.00  0.00     0.086 C
HETATM   33  N10 UNL     1      19.406  38.474 105.032  1.00  0.00    -0.269 N
ATOM     34  H10 UNL     1      20.124  38.187 104.366  1.00  0.00     0.194 HD
BRANCH  33  35
HETATM   35  O6  UNL     1      19.915  38.983 106.118  1.00  0.00    -0.290 OA
ATOM     36  H6  UNL     1      20.099  39.861 106.432  1.00  0.00     0.244 HD
ENDBRANCH  33  35
BRANCH  32  37
HETATM   37  C22 UNL     1      17.103  38.629 105.487  1.00  0.00     0.042 A
HETATM   38  C23 UNL     1      16.670  37.891 106.655  1.00  0.00     0.011 A
HETATM   39  C24 UNL     1      15.873  37.815 105.316  1.00  0.00     0.011 A
ENDBRANCH  32  37
ENDBRANCH  14  32
BRANCH  11  40
HETATM   40  N6  UNL     1      18.862  41.341  99.628  1.00  0.00    -0.301 N
ATOM     41  H6  UNL     1      19.739  41.462 100.135  1.00  0.00     0.186 HD
BRANCH  40  42
HETATM   42  N7  UNL     1      18.131  42.480  99.375  1.00  0.00    -0.344 N
ATOM     43  H72 UNL     1      18.556  43.355  99.681  1.00  0.00     0.176 HD
ATOM     44  H71 UNL     1      17.220  42.526  98.918  1.00  0.00     0.176 HD
ENDBRANCH  40  42
ENDBRANCH  11  40
BRANCH   6  45
HETATM   45  C7  UNL     1      18.450  36.507  96.691  1.00  0.00     0.199 C
BRANCH  45  46
HETATM   46  N2  UNL     1      18.306  35.167  97.161  1.00  0.00    -0.355 N
ATOM     47  H2  UNL     1      17.363  34.820  97.341  1.00  0.00     0.163 HD
BRANCH  46  48
HETATM   48  C8  UNL     1      19.397  34.287  97.395  1.00  0.00     0.171 A
HETATM   49  N3  UNL     1      20.000  34.037  98.516  1.00  0.00    -0.361 N
HETATM   50  C9  UNL     1      21.063  33.090  98.360  1.00  0.00     0.142 A
ATOM     51  H3  UNL     1      19.747  34.466  99.406  1.00  0.00     0.162 HD
HETATM   52  C10 UNL     1      21.124  32.777  96.880  1.00  0.00     0.142 A
HETATM   53  N4  UNL     1      20.013  33.515  96.367  1.00  0.00    -0.361 N
ATOM     54  H4  UNL     1      19.701  33.492  95.396  1.00  0.00     0.162 HD
ENDBRANCH  46  48
ENDBRANCH  45  46
ENDBRANCH   6  45
TORSDOF 13
ENDMDL