MODEL 5
REMARK VINA RESULT: -9.930302289      3.920      9.783
REMARK  9 active torsions:
REMARK  status: ('A' for Active; 'I' for Inactive)
REMARK    1  A    between atoms: C2_7  and  C3_8
REMARK       I    between atoms: C3_8  and  N3_10
REMARK    2  A    between atoms: N3_10  and  C4_12
REMARK    3  A    between atoms: C7_16  and  C8_17
REMARK    4  A    between atoms: C9_20  and  C10_21
REMARK    5  A    between atoms: C10_21  and  O4_22
REMARK    6  A    between atoms: O4_22  and  C11_23
REMARK    7  A    between atoms: C13_27  and  S1_28
REMARK    8  A    between atoms: N8_40  and  C18_41
REMARK    9  A    between atoms: C18_41  and  C19_42
ROOT
HETATM    1  C3  UNL     1      20.981  40.862  94.355  1.00  0.00     0.286 C
HETATM    2  O1  UNL     1      19.951  40.875  93.634  1.00  0.00    -0.264 OA
HETATM    3  N3  UNL     1      20.887  40.365  95.685  1.00  0.00    -0.347 N
ATOM      4  H3  UNL     1      21.718  40.363  96.277  1.00  0.00     0.163 HD
ENDROOT
BRANCH   3   5
HETATM    5  C4  UNL     1      19.639  39.861  96.220  1.00  0.00     0.113 C
HETATM    6  C5  UNL     1      19.206  40.763  97.413  1.00  0.00     0.047 C
HETATM    7  C6  UNL     1      18.543  39.825  98.370  1.00  0.00     0.126 C
HETATM    8  N4  UNL     1      18.895  38.477  97.960  1.00  0.00    -0.364 N
HETATM    9  C7  UNL     1      18.703  37.081  98.206  1.00  0.00     0.117 C
HETATM   10  C14 UNL     1      19.811  38.548  96.850  1.00  0.00     0.142 C
HETATM   11  C9  UNL     1      18.873  36.431  97.030  1.00  0.00     0.009 C
HETATM   12  C12 UNL     1      19.263  37.374  96.003  1.00  0.00    -0.009 C
HETATM   13  C13 UNL     1      19.294  37.390  94.719  1.00  0.00     0.143 C
BRANCH   9  14
HETATM   14  C8  UNL     1      18.356  36.599  99.527  1.00  0.00     0.227 C
HETATM   15  O2  UNL     1      17.133  36.519  99.891  1.00  0.00    -0.643 OA
HETATM   16  O3  UNL     1      19.268  36.201 100.464  1.00  0.00    -0.643 OA
ENDBRANCH   9  14
BRANCH  11  17
HETATM   17  C10 UNL     1      18.751  34.967  96.896  1.00  0.00     0.222 C
BRANCH  17  18
HETATM   18  O4  UNL     1      19.964  34.290  97.002  1.00  0.00    -0.302 OA
BRANCH  18  19
HETATM   19  C11 UNL     1      20.246  33.584  98.179  1.00  0.00     0.372 C
HETATM   20  N5  UNL     1      21.560  33.239  98.570  1.00  0.00    -0.032 NA
HETATM   21  O5  UNL     1      19.285  33.254  98.905  1.00  0.00    -0.242 OA
ENDBRANCH  18  19
ENDBRANCH  17  18
ENDBRANCH  11  17
BRANCH  13  22
HETATM   22  S1  UNL     1      18.902  36.311  93.449  1.00  0.00     0.127 S
HETATM   23  O6  UNL     1      19.920  35.143  93.400  1.00  0.00    -0.592 OA
HETATM   24  O7  UNL     1      17.592  35.605  93.618  1.00  0.00    -0.592 OA
HETATM   25  O8  UNL     1      19.095  37.059  91.969  1.00  0.00    -0.592 OA
ENDBRANCH  13  22
ENDBRANCH   3   5
BRANCH   1  26
HETATM   26  C2  UNL     1      22.221  41.367  93.784  1.00  0.00     0.177 A
HETATM   27  N2  UNL     1      22.732  40.809  92.679  1.00  0.00    -0.322 N
HETATM   28  C1  UNL     1      23.937  41.285  92.223  1.00  0.00     0.131 A
ATOM     29  H2  UNL     1      22.242  40.057  92.192  1.00  0.00     0.169 HD
HETATM   30  N1  UNL     1      24.395  40.826  91.176  1.00  0.00    -0.383 N
HETATM   31  C16 UNL     1      24.611  42.310  92.881  1.00  0.00     0.122 A
ATOM     32  H12 UNL     1      23.901  40.075  90.694  1.00  0.00     0.157 HD
ATOM     33  H11 UNL     1      25.290  41.179  90.838  1.00  0.00     0.157 HD
HETATM   34  C15 UNL     1      24.038  42.843  94.010  1.00  0.00     0.141 A
HETATM   35  N7  UNL     1      25.769  42.959  92.670  1.00  0.00    -0.346 N
HETATM   36  N6  UNL     1      22.861  42.356  94.427  1.00  0.00    -0.322 N
HETATM   37  N8  UNL     1      24.873  43.803  94.444  1.00  0.00    -0.319 N
ATOM     38  H6  UNL     1      22.436  42.752  95.265  1.00  0.00     0.169 HD
HETATM   39  C17 UNL     1      25.947  43.888  93.628  1.00  0.00     0.185 A
ATOM     40  H7  UNL     1      26.415  42.776  91.901  1.00  0.00     0.167 HD
BRANCH  37  41
HETATM   41  C18 UNL     1      24.729  44.661  95.608  1.00  0.00     0.230 C
BRANCH  41  42
HETATM   42  C19 UNL     1      23.599  45.579  95.501  1.00  0.00     0.249 C
HETATM   43  N9  UNL     1      22.294  45.244  95.937  1.00  0.00    -0.061 NA
HETATM   44  O9  UNL     1      23.767  46.725  95.003  1.00  0.00    -0.275 OA
ENDBRANCH  41  42
ENDBRANCH  37  41
ENDBRANCH   1  26
TORSDOF 9
ENDMDL