MODEL 4
REMARK VINA RESULT: -9.326707123      3.468      6.173
REMARK  15 active torsions:
REMARK  status: ('A' for Active; 'I' for Inactive)
REMARK    1  A    between atoms: N1_2  and  C2_3
REMARK    2  A    between atoms: N1_2  and  C7_14
REMARK    3  A    between atoms: C2_3  and  C3_4
REMARK    4  A    between atoms: C3_4  and  N2_5
REMARK    5  A    between atoms: C7_14  and  C8_15
REMARK    6  A    between atoms: N5_28  and  N6_30
REMARK    7  A    between atoms: N6_30  and  N7_31
REMARK    8  A    between atoms: N6_30  and  N8_34
REMARK    9  A    between atoms: C21_39  and  O3_40
REMARK   10  A    between atoms: N9_42  and  C22_43
REMARK   11  A    between atoms: C22_43  and  C23_44
REMARK   12  A    between atoms: C23_44  and  O4_45
REMARK   13  A    between atoms: C23_44  and  C24_47
REMARK   14  A    between atoms: C24_47  and  O5_48
REMARK   15  A    between atoms: C25_50  and  O6_51
ROOT
HETATM    1  C8  UNL     1      19.384  42.187 102.502  1.00  0.00    -0.020 A
HETATM    2  C9  UNL     1      20.144  41.370 103.312  1.00  0.00     0.015 A
HETATM    3  C10 UNL     1      20.057  39.978 103.245  1.00  0.00     0.038 A
HETATM    4  C11 UNL     1      19.196  39.373 102.354  1.00  0.00     0.077 A
HETATM    5  C12 UNL     1      18.434  40.198 101.544  1.00  0.00    -0.024 A
HETATM    6  C13 UNL     1      18.519  41.557 101.610  1.00  0.00     0.022 A
HETATM    7  C14 UNL     1      17.513  39.550 100.587  1.00  0.00     0.045 C
HETATM    8  C15 UNL     1      16.890  38.362 101.241  1.00  0.00     0.057 C
HETATM    9  C16 UNL     1      17.904  37.390 101.774  1.00  0.00     0.167 A
HETATM   10  O1  UNL     1      19.089  37.997 102.263  1.00  0.00    -0.326 OA
HETATM   11  C17 UNL     1      17.210  36.667 102.866  1.00  0.00     0.218 A
HETATM   12  O2  UNL     1      16.839  37.114 103.988  1.00  0.00    -0.287 OA
HETATM   13  C18 UNL     1      16.994  35.285 102.456  1.00  0.00     0.116 A
HETATM   14  N5  UNL     1      16.355  34.406 103.119  1.00  0.00    -0.261 N
ATOM     15  H5  UNL     1      15.997  34.783 103.996  1.00  0.00     0.191 HD
HETATM   16  C19 UNL     1      17.652  35.141 101.162  1.00  0.00     0.061 A
HETATM   17  C20 UNL     1      18.221  36.333 100.791  1.00  0.00     0.053 A
HETATM   18  C21 UNL     1      18.877  36.107  99.581  1.00  0.00     0.155 A
HETATM   19  N9  UNL     1      18.702  34.824  99.234  1.00  0.00    -0.305 N
HETATM   20  C25 UNL     1      17.963  34.206 100.170  1.00  0.00     0.158 A
ENDROOT
BRANCH  18  21
HETATM   21  O3  UNL     1      19.578  37.086  98.897  1.00  0.00    -0.345 OA
ATOM     22  H3  UNL     1      19.919  37.871  99.309  1.00  0.00     0.219 HD
ENDBRANCH  18  21
BRANCH  14  23
HETATM   23  N6  UNL     1      16.031  33.123 102.966  1.00  0.00    -0.144 N
BRANCH  23  24
HETATM   24  N7  UNL     1      15.286  32.563 101.908  1.00  0.00    -0.309 N
ATOM     25  H72 UNL     1      15.756  31.792 101.432  1.00  0.00     0.180 HD
ATOM     26  H71 UNL     1      14.352  32.842 101.605  1.00  0.00     0.180 HD
ENDBRANCH  23  24
BRANCH  23  27
HETATM   27  N8  UNL     1      16.434  32.182 103.951  1.00  0.00    -0.309 N
ATOM     28  H82 UNL     1      17.408  31.890 103.872  1.00  0.00     0.180 HD
ATOM     29  H81 UNL     1      15.754  31.856 104.638  1.00  0.00     0.180 HD
ENDBRANCH  23  27
ENDBRANCH  14  23
BRANCH  20  30
HETATM   30  O6  UNL     1      17.573  32.879 100.160  1.00  0.00    -0.345 OA
ATOM     31  H6  UNL     1      17.382  32.362  99.386  1.00  0.00     0.219 HD
ENDBRANCH  20  30
BRANCH  19  32
HETATM   32  C22 UNL     1      19.256  34.259  98.023  1.00  0.00     0.167 C
BRANCH  32  33
HETATM   33  C23 UNL     1      18.222  34.053  96.957  1.00  0.00     0.160 C
BRANCH  33  34
HETATM   34  O4  UNL     1      18.254  32.791  96.375  1.00  0.00    -0.392 OA
ATOM     35  H4  UNL     1      17.550  32.633  95.757  1.00  0.00     0.210 HD
ENDBRANCH  33  34
BRANCH  33  36
HETATM   36  C24 UNL     1      18.535  35.032  95.829  1.00  0.00     0.197 C
BRANCH  36  37
HETATM   37  O5  UNL     1      18.034  36.282  96.205  1.00  0.00    -0.398 OA
ATOM     38  H5  UNL     1      18.716  36.729  96.691  1.00  0.00     0.209 HD
ENDBRANCH  36  37
ENDBRANCH  33  36
ENDBRANCH  32  33
ENDBRANCH  19  32
BRANCH   1  39
HETATM   39  C7  UNL     1      19.464  43.668 102.549  1.00  0.00     0.101 C
BRANCH  39  40
HETATM   40  N1  UNL     1      18.994  44.300 101.380  1.00  0.00    -0.372 N
HETATM   41  C1  UNL     1      17.804  45.041 101.425  1.00  0.00     0.154 C
BRANCH  40  42
HETATM   42  C2  UNL     1      19.853  44.433 100.273  1.00  0.00     0.082 C
BRANCH  42  43
HETATM   43  C3  UNL     1      19.381  43.750  99.000  1.00  0.00     0.167 C
BRANCH  43  44
HETATM   44  N2  UNL     1      20.074  44.419  97.918  1.00  0.00    -0.358 N
HETATM   45  C4  UNL     1      20.812  43.848  97.044  1.00  0.00     0.171 C
HETATM   46  N3  UNL     1      21.498  44.481  95.979  1.00  0.00    -0.361 N
HETATM   47  N4  UNL     1      21.088  42.460  96.976  1.00  0.00    -0.361 N
HETATM   48  C5  UNL     1      22.494  43.543  95.502  1.00  0.00     0.142 C
ATOM     49  H3  UNL     1      21.324  45.418  95.616  1.00  0.00     0.162 HD
HETATM   50  C6  UNL     1      21.859  42.208  95.764  1.00  0.00     0.142 C
ATOM     51  H4  UNL     1      20.798  41.758  97.657  1.00  0.00     0.162 HD
ATOM     52  H2  UNL     1      19.965  45.430  97.848  1.00  0.00     0.162 HD
ENDBRANCH  43  44
ENDBRANCH  42  43
ENDBRANCH  40  42
ENDBRANCH  39  40
ENDBRANCH   1  39
TORSDOF 15
ENDMDL