MODEL 5
REMARK VINA RESULT: -8.321319374      3.640      8.126
REMARK  12 active torsions:
REMARK  status: ('A' for Active; 'I' for Inactive)
REMARK    1  A    between atoms: C2_2  and  S1_3
REMARK    2  A    between atoms: S1_3  and  C3_6
REMARK    3  A    between atoms: C5_10  and  C6_11
REMARK    4  A    between atoms: C6_11  and  N2_12
REMARK    5  A    between atoms: C6_11  and  C14_30
REMARK    6  A    between atoms: N2_12  and  C7_14
REMARK    7  A    between atoms: C8_17  and  O4_18
REMARK    8  A    between atoms: C9_20  and  C10_21
REMARK    9  A    between atoms: C11_24  and  C12_25
REMARK   10  A    between atoms: C14_30  and  N5_31
REMARK   11  A    between atoms: C14_30  and  C15_35
REMARK   12  A    between atoms: C17_38  and  N6_39
ROOT
HETATM    1  C6  UNL     1      18.524  38.712  97.264  1.00  0.00     0.072 C
ENDROOT
BRANCH   1   2
HETATM    2  C5  UNL     1      18.222  39.503  98.481  1.00  0.00     0.064 A
HETATM    3  N1  UNL     1      18.784  40.761  98.746  1.00  0.00    -0.348 N
HETATM    4  C4  UNL     1      18.443  41.380  99.958  1.00  0.00     0.085 A
ATOM      5  H1  UNL     1      19.416  41.209  98.082  1.00  0.00     0.166 HD
HETATM    6  C3  UNL     1      18.810  42.538 100.455  1.00  0.00     0.146 C
HETATM    7  S3  UNL     1      17.342  40.232 100.763  1.00  0.00    -0.081 SA
HETATM    8  C18 UNL     1      17.425  39.039  99.426  1.00  0.00     0.083 A
BRANCH   6   9
HETATM    9  S1  UNL     1      18.226  43.070 102.009  1.00  0.00     0.168 S
HETATM   10  O1  UNL     1      18.483  42.043 103.071  1.00  0.00    -0.223 OA
HETATM   11  O2  UNL     1      16.751  43.364 101.901  1.00  0.00    -0.223 OA
BRANCH   9  12
HETATM   12  C2  UNL     1      19.044  44.552 102.475  1.00  0.00     0.140 C
HETATM   13  C1  UNL     1      18.082  45.702 102.719  1.00  0.00     0.021 C
ENDBRANCH   9  12
ENDBRANCH   6   9
ENDBRANCH   1   2
BRANCH   1  14
HETATM   14  N2  UNL     1      18.771  39.452  96.119  1.00  0.00    -0.347 N
ATOM     15  H2  UNL     1      18.105  40.195  95.907  1.00  0.00     0.163 HD
BRANCH  14  16
HETATM   16  C7  UNL     1      19.816  39.296  95.237  1.00  0.00     0.263 C
HETATM   17  O3  UNL     1      19.496  39.710  93.902  1.00  0.00    -0.250 OA
HETATM   18  N3  UNL     1      20.998  39.094  93.818  1.00  0.00    -0.116 NA
HETATM   19  C8  UNL     1      20.249  38.177  94.441  1.00  0.00     0.290 C
HETATM   20  C9  UNL     1      21.699  40.222  93.463  1.00  0.00     0.135 C
HETATM   21  C11 UNL     1      21.556  41.077  94.535  1.00  0.00     0.110 C
HETATM   22  C13 UNL     1      20.928  40.245  95.627  1.00  0.00     0.227 C
HETATM   23  O8  UNL     1      21.292  40.325  96.796  1.00  0.00    -0.286 OA
BRANCH  19  24
HETATM   24  O4  UNL     1      20.040  36.894  94.345  1.00  0.00    -0.373 OA
ATOM     25  H4  UNL     1      19.902  36.144  94.912  1.00  0.00     0.212 HD
ENDBRANCH  19  24
BRANCH  20  26
HETATM   26  C10 UNL     1      22.453  40.485  92.274  1.00  0.00     0.224 C
HETATM   27  O5  UNL     1      21.977  40.595  91.144  1.00  0.00    -0.643 OA
HETATM   28  O6  UNL     1      23.851  40.644  92.344  1.00  0.00    -0.643 OA
ENDBRANCH  20  26
BRANCH  21  29
HETATM   29  C12 UNL     1      22.004  42.367  94.799  1.00  0.00     0.270 C
HETATM   30  N4  UNL     1      21.021  43.415  94.972  1.00  0.00    -0.057 NA
HETATM   31  O7  UNL     1      23.174  42.747  94.910  1.00  0.00    -0.271 OA
ENDBRANCH  21  29
ENDBRANCH  14  16
ENDBRANCH   1  14
BRANCH   1  32
HETATM   32  C14 UNL     1      17.762  37.428  97.120  1.00  0.00     0.285 C
BRANCH  32  33
HETATM   33  N5  UNL     1      17.320  37.335  95.712  1.00  0.00    -0.064 N
ATOM     34  H53 UNL     1      17.006  38.228  95.333  1.00  0.00     0.275 HD
ATOM     35  H52 UNL     1      18.090  37.179  95.061  1.00  0.00     0.275 HD
ATOM     36  H51 UNL     1      16.606  36.608  95.667  1.00  0.00     0.275 HD
ENDBRANCH  32  33
BRANCH  32  37
HETATM   37  C15 UNL     1      18.499  36.180  97.501  1.00  0.00     0.054 A
HETATM   38  C16 UNL     1      18.702  35.858  98.820  1.00  0.00     0.080 A
HETATM   39  S2  UNL     1      19.584  34.402  98.722  1.00  0.00    -0.064 SA
HETATM   40  C17 UNL     1      19.652  34.276  97.011  1.00  0.00     0.142 A
HETATM   41  N7  UNL     1      18.997  35.353  96.613  1.00  0.00    -0.338 N
ATOM     42  H7  UNL     1      18.879  35.541  95.617  1.00  0.00     0.168 HD
BRANCH  40  43
HETATM   43  N6  UNL     1      20.214  33.342  96.279  1.00  0.00    -0.380 N
ATOM     44  H62 UNL     1      21.206  33.186  96.100  1.00  0.00     0.158 HD
ATOM     45  H61 UNL     1      19.768  32.594  95.748  1.00  0.00     0.158 HD
ENDBRANCH  40  43
ENDBRANCH  32  37
ENDBRANCH   1  32
TORSDOF 12
ENDMDL