MODEL 5
REMARK VINA RESULT: -9.519069224      4.001      8.197
REMARK  15 active torsions:
REMARK  status: ('A' for Active; 'I' for Inactive)
REMARK    1  A    between atoms: N1_1  and  C1_4
REMARK    2  A    between atoms: C2_7  and  C3_8
REMARK    3  A    between atoms: C6_11  and  S1_12
REMARK    4  A    between atoms: S1_12  and  N3_13
REMARK    5  A    between atoms: C10_21  and  C11_22
REMARK    6  A    between atoms: C11_22  and  C12_23
REMARK    7  A    between atoms: C12_23  and  C13_24
REMARK    8  A    between atoms: C14_25  and  C15_26
REMARK    9  A    between atoms: C15_26  and  C16_27
REMARK   10  A    between atoms: C16_27  and  N4_28
REMARK   11  A    between atoms: N4_28  and  C17_30
REMARK   12  A    between atoms: C17_30  and  C18_31
REMARK   13  A    between atoms: C19_36  and  N7_37
REMARK   14  A    between atoms: C20_42  and  N9_43
REMARK   15  A    between atoms: N9_43  and  N10_45
ROOT
HETATM    1  C13 UNL     1      18.954  42.043 100.669  1.00  0.00     0.046 A
HETATM    2  C14 UNL     1      19.267  42.057 102.062  1.00  0.00     0.118 A
HETATM    3  N6  UNL     1      19.263  43.218 102.695  1.00  0.00    -0.183 N
ATOM      4  H6  UNL     1      19.486  43.227 103.690  1.00  0.00     0.185 HD
HETATM    5  C19 UNL     1      18.979  44.388 102.094  1.00  0.00     0.678 A
HETATM    6  N8  UNL     1      18.686  44.389 100.790  1.00  0.00    -0.175 N
ATOM      7  H8  UNL     1      18.470  45.272 100.328  1.00  0.00     0.186 HD
HETATM    8  C20 UNL     1      18.669  43.227 100.060  1.00  0.00     0.150 A
ENDROOT
BRANCH   1   9
HETATM    9  C12 UNL     1      18.986  40.785  99.985  1.00  0.00     0.020 C
BRANCH   9  10
HETATM   10  C11 UNL     1      18.115  40.171  99.267  1.00  0.00     0.031 C
BRANCH  10  11
HETATM   11  C10 UNL     1      18.437  39.611  97.938  1.00  0.00     0.051 A
HETATM   12  C9  UNL     1      19.490  40.145  97.197  1.00  0.00     0.061 A
HETATM   13  C2  UNL     1      19.852  39.677  95.958  1.00  0.00     0.061 A
HETATM   14  N2  UNL     1      19.122  38.647  95.473  1.00  0.00    -0.191 N
HETATM   15  C1  UNL     1      18.116  38.110  96.144  1.00  0.00     0.676 A
ATOM     16  H2  UNL     1      19.356  38.270  94.555  1.00  0.00     0.184 HD
HETATM   17  N14 UNL     1      17.791  38.601  97.363  1.00  0.00    -0.192 N
ATOM     18  H14 UNL     1      17.012  38.175  97.866  1.00  0.00     0.184 HD
BRANCH  13  19
HETATM   19  C3  UNL     1      20.947  40.228  95.175  1.00  0.00    -0.009 A
HETATM   20  C4  UNL     1      21.866  41.052  95.806  1.00  0.00     0.015 A
HETATM   21  C5  UNL     1      22.933  41.614  95.143  1.00  0.00     0.026 A
HETATM   22  C6  UNL     1      23.120  41.363  93.794  1.00  0.00     0.079 A
HETATM   23  C7  UNL     1      22.225  40.554  93.151  1.00  0.00     0.026 A
HETATM   24  C8  UNL     1      21.154  39.997  93.840  1.00  0.00     0.015 A
BRANCH  22  25
HETATM   25  S1  UNL     1      24.457  42.045  92.900  1.00  0.00     0.256 S
HETATM   26  O1  UNL     1      24.284  43.542  92.860  1.00  0.00    -0.201 OA
HETATM   27  O2  UNL     1      24.458  41.575  91.472  1.00  0.00    -0.201 OA
BRANCH  25  28
HETATM   28  N3  UNL     1      25.931  41.701  93.700  1.00  0.00    -0.324 N
ATOM     29  H32 UNL     1      26.014  41.089  94.512  1.00  0.00     0.169 HD
ATOM     30  H31 UNL     1      26.698  42.195  93.245  1.00  0.00     0.169 HD
ENDBRANCH  25  28
ENDBRANCH  22  25
ENDBRANCH  13  19
BRANCH  15  31
HETATM   31  N1  UNL     1      17.429  37.120  95.660  1.00  0.00    -0.234 N
ATOM     32  H12 UNL     1      16.721  37.309  94.950  1.00  0.00     0.174 HD
ATOM     33  H11 UNL     1      17.582  36.161  95.972  1.00  0.00     0.174 HD
ENDBRANCH  15  31
ENDBRANCH  10  11
ENDBRANCH   9  10
ENDBRANCH   1   9
BRANCH   2  34
HETATM   34  C15 UNL     1      19.556  40.815 102.677  1.00  0.00    -0.024 C
BRANCH  34  35
HETATM   35  C16 UNL     1      19.810  39.741 103.213  1.00  0.00     0.013 C
BRANCH  35  36
HETATM   36  N4  UNL     1      20.101  38.524 103.850  1.00  0.00    -0.342 N
ATOM     37  H4  UNL     1      20.407  37.713 103.313  1.00  0.00     0.170 HD
BRANCH  36  38
HETATM   38  C17 UNL     1      19.956  38.452 105.284  1.00  0.00     0.228 C
BRANCH  38  39
HETATM   39  C18 UNL     1      18.521  38.195 105.583  1.00  0.00     0.249 C
HETATM   40  N5  UNL     1      17.729  37.275 104.846  1.00  0.00    -0.061 NA
HETATM   41  O3  UNL     1      18.017  38.838 106.542  1.00  0.00    -0.275 OA
ENDBRANCH  38  39
ENDBRANCH  36  38
ENDBRANCH  35  36
ENDBRANCH  34  35
ENDBRANCH   2  34
BRANCH   8  42
HETATM   42  N9  UNL     1      18.388  43.370  98.682  1.00  0.00    -0.264 N
ATOM     43  H9  UNL     1      17.458  43.167  98.315  1.00  0.00     0.190 HD
BRANCH  42  44
HETATM   44  N10 UNL     1      19.434  43.803  97.819  1.00  0.00    -0.175 N
HETATM   45  C21 UNL     1      19.392  43.772  96.478  1.00  0.00     0.238 A
HETATM   46  N11 UNL     1      20.541  44.254  95.967  1.00  0.00    -0.279 N
HETATM   47  N12 UNL     1      21.281  44.578  97.025  1.00  0.00    -0.006 NA
ATOM     48  H11 UNL     1      20.791  44.351  94.983  1.00  0.00     0.184 HD
HETATM   49  N13 UNL     1      20.610  44.305  98.152  1.00  0.00     0.015 NA
ENDBRANCH  42  44
ENDBRANCH   8  42
BRANCH   5  50
HETATM   50  N7  UNL     1      18.994  45.478 102.775  1.00  0.00    -0.234 N
ATOM     51  H72 UNL     1      18.373  45.611 103.573  1.00  0.00     0.174 HD
ATOM     52  H71 UNL     1      19.636  46.229 102.520  1.00  0.00     0.174 HD
ENDBRANCH   5  50
TORSDOF 15
ENDMDL