MODEL 1
REMARK VINA RESULT: -10.620377619      0.000      0.000
REMARK  12 active torsions:
REMARK  status: ('A' for Active; 'I' for Inactive)
REMARK    1  A    between atoms: C4_4  and  N1_5
REMARK    2  A    between atoms: N2_8  and  C7_9
REMARK    3  A    between atoms: C7_9  and  C8_10
REMARK    4  A    between atoms: C11_17  and  N5_18
REMARK       I    between atoms: N5_18  and  C12_20
REMARK       I    between atoms: C12_20  and  N6_22
REMARK    5  A    between atoms: N6_22  and  N7_24
REMARK    6  A    between atoms: N7_24  and  C14_26
REMARK    7  A    between atoms: C14_26  and  C16_28
REMARK    8  A    between atoms: C16_28  and  C17_30
REMARK    9  A    between atoms: C17_30  and  O3_31
REMARK   10  A    between atoms: C17_30  and  C18_33
REMARK   11  A    between atoms: C18_33  and  O4_34
REMARK   12  A    between atoms: C19_38  and  N9_39
ROOT
HETATM    1  C8  UNL     1      19.106  44.012 100.467  1.00  0.00     0.141 C
HETATM    2  C9  UNL     1      19.930  43.243 101.482  1.00  0.00     0.151 C
HETATM    3  N3  UNL     1      19.567  41.863 101.598  1.00  0.00    -0.373 N
ATOM      4  H3  UNL     1      20.341  41.210 101.473  1.00  0.00     0.161 HD
HETATM    5  C10 UNL     1      18.299  41.241 101.860  1.00  0.00     0.136 A
HETATM    6  N4  UNL     1      18.358  39.950 102.101  1.00  0.00    -0.175 N
ATOM      7  H4  UNL     1      19.263  39.480 102.086  1.00  0.00     0.186 HD
HETATM    8  C11 UNL     1      17.231  39.225 102.371  1.00  0.00     0.689 A
HETATM    9  N8  UNL     1      16.057  39.887 102.380  1.00  0.00    -0.176 N
ATOM     10  H8  UNL     1      15.212  39.354 102.582  1.00  0.00     0.186 HD
HETATM   11  C19 UNL     1      15.924  41.203 102.143  1.00  0.00     0.134 A
HETATM   12  C20 UNL     1      17.079  41.915 101.873  1.00  0.00     0.120 A
HETATM   13  C21 UNL     1      16.851  43.342 101.617  1.00  0.00     0.259 C
HETATM   14  O5  UNL     1      15.769  43.784 102.082  1.00  0.00    -0.267 OA
HETATM   15  N10 UNL     1      17.735  44.201 100.914  1.00  0.00    -0.346 N
ATOM     16  H10 UNL     1      17.340  45.111 100.682  1.00  0.00     0.163 HD
ENDROOT
BRANCH   8  17
HETATM   17  N5  UNL     1      17.331  37.958 102.601  1.00  0.00    -0.140 N
HETATM   18  C12 UNL     1      18.285  37.137 101.953  1.00  0.00     0.354 C
HETATM   19  O1  UNL     1      19.488  37.248 102.301  1.00  0.00    -0.244 OA
HETATM   20  N6  UNL     1      17.873  36.207 100.927  1.00  0.00    -0.250 N
HETATM   21  C13 UNL     1      16.492  36.146 100.563  1.00  0.00     0.182 C
ATOM     22  H5  UNL     1      16.696  37.531 103.277  1.00  0.00     0.189 HD
BRANCH  20  23
HETATM   23  N7  UNL     1      18.822  35.400 100.348  1.00  0.00    -0.319 N
ATOM     24  H7  UNL     1      19.566  34.964 100.894  1.00  0.00     0.181 HD
BRANCH  23  25
HETATM   25  C14 UNL     1      18.711  35.207  98.938  1.00  0.00     0.167 C
HETATM   26  C15 UNL     1      19.430  36.359  98.242  1.00  0.00     0.042 C
BRANCH  25  27
HETATM   27  C16 UNL     1      19.292  33.889  98.569  1.00  0.00     0.180 C
HETATM   28  O2  UNL     1      18.913  33.302  97.580  1.00  0.00    -0.293 OA
BRANCH  27  29
HETATM   29  C17 UNL     1      20.349  33.323  99.450  1.00  0.00     0.213 C
BRANCH  29  30
HETATM   30  O3  UNL     1      19.915  32.222 100.150  1.00  0.00    -0.386 OA
ATOM     31  H3  UNL     1      19.905  31.435  99.618  1.00  0.00     0.210 HD
ENDBRANCH  29  30
BRANCH  29  32
HETATM   32  C18 UNL     1      21.594  32.984  98.648  1.00  0.00     0.203 C
BRANCH  32  33
HETATM   33  O4  UNL     1      21.280  32.181  97.549  1.00  0.00    -0.398 OA
ATOM     34  H4  UNL     1      22.058  31.766  97.196  1.00  0.00     0.209 HD
ENDBRANCH  32  33
ENDBRANCH  29  32
ENDBRANCH  27  29
ENDBRANCH  25  27
ENDBRANCH  23  25
ENDBRANCH  20  23
ENDBRANCH   8  17
BRANCH  11  35
HETATM   35  N9  UNL     1      14.819  41.847 102.149  1.00  0.00    -0.384 N
ATOM     36  H92 UNL     1      14.000  41.374 102.530  1.00  0.00     0.157 HD
ATOM     37  H91 UNL     1      14.689  42.797 101.801  1.00  0.00     0.157 HD
ENDBRANCH  11  35
BRANCH   1  38
HETATM   38  C7  UNL     1      19.129  43.247  99.175  1.00  0.00     0.090 C
BRANCH  38  39
HETATM   39  N2  UNL     1      19.811  43.817  98.098  1.00  0.00    -0.369 N
HETATM   40  C6  UNL     1      19.902  43.058  96.909  1.00  0.00     0.147 C
HETATM   41  C5  UNL     1      20.809  43.699  95.877  1.00  0.00     0.145 C
HETATM   42  N1  UNL     1      22.075  44.082  96.447  1.00  0.00    -0.360 N
HETATM   43  C23 UNL     1      22.120  44.644  97.762  1.00  0.00     0.169 C
HETATM   44  C22 UNL     1      20.742  44.847  98.288  1.00  0.00     0.083 C
BRANCH  42  45
HETATM   45  C4  UNL     1      23.249  43.874  95.663  1.00  0.00     0.126 A
HETATM   46  C3  UNL     1      23.315  43.402  94.364  1.00  0.00     0.084 A
HETATM   47  C2  UNL     1      24.639  43.363  93.989  1.00  0.00     0.076 A
HETATM   48  C1  UNL     1      25.192  42.920  92.665  1.00  0.00     0.079 C
HETATM   49  O6  UNL     1      25.320  43.792  95.025  1.00  0.00    -0.241 OA
HETATM   50  N11 UNL     1      24.529  44.097  96.012  1.00  0.00    -0.245 N
ATOM     51  H11 UNL     1      24.834  44.452  96.918  1.00  0.00     0.196 HD
ENDBRANCH  42  45
ENDBRANCH  38  39
ENDBRANCH   1  38
TORSDOF 12
ENDMDL