MODEL 5
REMARK VINA RESULT: -3.911964645      1.449      4.119
REMARK  4 active torsions:
REMARK  status: ('A' for Active; 'I' for Inactive)
REMARK    1  A    between atoms: N1_2  and  C2_3
REMARK    2  A    between atoms: C2_3  and  C3_4
REMARK    3  A    between atoms: C3_4  and  N2_5
REMARK    4  A    between atoms: N2_5  and  C4_8
ROOT
HETATM    1  C3  UNL     1      27.946   8.661  46.839  1.00  0.00     0.262 C
ENDROOT
BRANCH   1   2
HETATM    2  C2  UNL     1      29.246   9.384  46.864  1.00  0.00     0.287 C
BRANCH   2   3
HETATM    3  N1  UNL     1      29.498  10.156  48.053  1.00  0.00     0.009 N
HETATM    4  C1  UNL     1      28.296  10.303  48.852  1.00  0.00     0.297 C
HETATM    5  C8  UNL     1      30.259  11.341  47.971  1.00  0.00     0.277 C
HETATM    6  C9  UNL     1      30.938  10.848  49.258  1.00  0.00     0.172 C
HETATM    7  N3  UNL     1      30.481   9.556  48.869  1.00  0.00    -0.045 NA
ENDBRANCH   2   3
ENDBRANCH   1   2
BRANCH   1   8
HETATM    8  N2  UNL     1      28.056   7.222  46.895  1.00  0.00    -0.069 N
ATOM      9  H22 UNL     1      27.636   6.779  46.078  1.00  0.00     0.277 HD
ATOM     10  H21 UNL     1      29.018   6.910  46.760  1.00  0.00     0.277 HD
BRANCH   8  11
HETATM   11  C4  UNL     1      27.497   6.719  48.121  1.00  0.00     0.186 C
HETATM   12  C5  UNL     1      26.369   7.578  48.693  1.00  0.00     0.033 C
HETATM   13  C6  UNL     1      26.841   7.056  50.061  1.00  0.00     0.004 C
HETATM   14  C7  UNL     1      28.234   7.028  49.394  1.00  0.00     0.033 C
ENDBRANCH   8  11
ENDBRANCH   1   8
TORSDOF 4
ENDMDL