MODEL 4
REMARK VINA RESULT: -2.639370491      9.219     10.621
REMARK  5 active torsions:
REMARK  status: ('A' for Active; 'I' for Inactive)
REMARK    1  A    between atoms: N1_2  and  C4_5
REMARK    2  A    between atoms: C4_5  and  C5_6
REMARK    3  A    between atoms: C6_7  and  N2_8
REMARK    4  A    between atoms: C8_13  and  C9_14
REMARK    5  A    between atoms: C9_14  and  N3_15
ROOT
HETATM    1  C5  UNL     1      23.936  16.308  44.940  1.00  0.00     0.048 C
HETATM    2  C6  UNL     1      22.736  16.912  45.691  1.00  0.00     0.190 C
HETATM    3  C7  UNL     1      23.483  16.560  46.960  1.00  0.00     0.040 C
HETATM    4  C8  UNL     1      24.762  16.709  46.121  1.00  0.00     0.021 C
ENDROOT
BRANCH   1   5
HETATM    5  C4  UNL     1      24.128  17.053  43.667  1.00  0.00     0.243 C
BRANCH   5   6
HETATM    6  N1  UNL     1      23.899  16.341  42.463  1.00  0.00    -0.078 N
HETATM    7  C1  UNL     1      23.083  17.215  41.601  1.00  0.00     0.271 C
HETATM    8  C2  UNL     1      25.114  16.085  41.700  1.00  0.00     0.271 C
HETATM    9  C3  UNL     1      23.189  15.109  42.595  1.00  0.00     0.271 C
ENDBRANCH   5   6
ENDBRANCH   1   5
BRANCH   2  10
HETATM   10  N2  UNL     1      22.632  18.347  45.511  1.00  0.00    -0.075 N
ATOM     11  H23 UNL     1      23.278  18.841  46.127  1.00  0.00     0.274 HD
ATOM     12  H22 UNL     1      23.014  18.632  44.609  1.00  0.00     0.274 HD
ATOM     13  H21 UNL     1      21.679  18.689  45.631  1.00  0.00     0.274 HD
ENDBRANCH   2  10
BRANCH   4  14
HETATM   14  C9  UNL     1      25.822  15.735  46.572  1.00  0.00     0.234 C
BRANCH  14  15
HETATM   15  N3  UNL     1      26.829  16.527  47.292  1.00  0.00    -0.079 N
ATOM     16  H33 UNL     1      27.144  17.349  46.776  1.00  0.00     0.274 HD
ATOM     17  H32 UNL     1      26.453  17.023  48.100  1.00  0.00     0.274 HD
ATOM     18  H31 UNL     1      27.585  15.883  47.528  1.00  0.00     0.274 HD
ENDBRANCH  14  15
ENDBRANCH   4  14
TORSDOF 5
ENDMDL