MODEL 4
REMARK VINA RESULT: -3.563619615      1.684      4.216
REMARK  3 active torsions:
REMARK  status: ('A' for Active; 'I' for Inactive)
REMARK    1  A    between atoms: C2_2  and  C3_3
REMARK    2  A    between atoms: C3_3  and  C4_4
REMARK    3  A    between atoms: C4_4  and  N1_5
ROOT
HETATM    1  N1  UNL     1      28.041   8.251  48.533  1.00  0.00     0.211 N
HETATM    2  C5  UNL     1      29.099   7.586  49.197  1.00  0.00     0.345 C
HETATM    3  N2  UNL     1      28.370   9.659  48.662  1.00  0.00    -0.009 NA
HETATM    4  C6  UNL     1      29.443   9.870  47.729  1.00  0.00     0.184 C
HETATM    5  C7  UNL     1      29.208   8.838  46.680  1.00  0.00     0.369 C
HETATM    6  N3  UNL     1      28.010   8.169  47.169  1.00  0.00     0.197 N
HETATM    7  C8  UNL     1      27.855   6.905  46.554  1.00  0.00     0.399 C
HETATM    8  O1  UNL     1      26.967   8.958  46.740  1.00  0.00    -0.035 OA
ENDROOT
BRANCH   1   9
HETATM    9  C4  UNL     1      26.802   8.154  49.225  1.00  0.00     0.305 C
BRANCH   9  10
HETATM   10  C3  UNL     1      26.543   7.002  50.101  1.00  0.00     0.032 C
BRANCH  10  11
HETATM   11  C2  UNL     1      25.269   6.241  49.880  1.00  0.00    -0.003 C
HETATM   12  C1  UNL     1      24.702   5.969  51.274  1.00  0.00     0.005 C
ENDBRANCH  10  11
ENDBRANCH   9  10
ENDBRANCH   1   9
TORSDOF 3
ENDMDL