MODEL 3
REMARK VINA RESULT: -5.303694448      0.915      1.711
REMARK  3 active torsions:
REMARK  status: ('A' for Active; 'I' for Inactive)
REMARK    1  A    between atoms: N1_2  and  C2_3
REMARK    2  A    between atoms: N1_2  and  C3_9
REMARK    3  A    between atoms: C2_3  and  N2_4
ROOT
HETATM    1  C1  UNL     1      26.960  10.718  48.676  1.00  0.00     0.312 C
HETATM    2  N1  UNL     1      28.214  10.324  48.001  1.00  0.00     0.107 N
ENDROOT
BRANCH   2   3
HETATM    3  C2  UNL     1      29.248  10.938  48.835  1.00  0.00     0.411 C
BRANCH   3   4
HETATM    4  N2  UNL     1      30.466  10.213  48.859  1.00  0.00    -0.316 N
HETATM    5  N3  UNL     1      31.524  10.785  49.239  1.00  0.00    -0.348 N
ATOM      6  H32 UNL     1      31.487  11.764  49.525  1.00  0.00     0.176 HD
ATOM      7  H31 UNL     1      32.401  10.263  49.257  1.00  0.00     0.176 HD
ATOM      8  H2  UNL     1      30.486   9.235  48.571  1.00  0.00     0.181 HD
ENDBRANCH   3   4
ENDBRANCH   2   3
BRANCH   2   9
HETATM    9  C3  UNL     1      28.283   8.876  48.173  1.00  0.00     0.224 C
HETATM   10  C4  UNL     1      28.693   8.131  46.958  1.00  0.00     0.036 C
HETATM   11  C5  UNL     1      27.720   7.055  46.532  1.00  0.00     0.002 C
HETATM   12  C6  UNL     1      27.296   6.141  47.632  1.00  0.00     0.000 C
HETATM   13  C7  UNL     1      27.276   6.823  48.969  1.00  0.00     0.002 C
HETATM   14  C8  UNL     1      26.976   8.300  48.699  1.00  0.00     0.036 C
ENDBRANCH   2   9
TORSDOF 3
ENDMDL