MODEL 4
REMARK VINA RESULT: -3.745497284      1.420      3.334
REMARK  3 active torsions:
REMARK  status: ('A' for Active; 'I' for Inactive)
REMARK    1  A    between atoms: N1_2  and  C3_4
REMARK    2  A    between atoms: C8_9  and  N2_10
REMARK    3  A    between atoms: N2_10  and  N3_12
ROOT
HETATM    1  C3  UNL     1      27.632   8.581  48.947  1.00  0.00     0.246 C
HETATM    2  C4  UNL     1      26.736   7.676  49.695  1.00  0.00     0.038 C
HETATM    3  C5  UNL     1      26.347   6.406  49.052  1.00  0.00     0.002 C
HETATM    4  C6  UNL     1      27.042   5.986  47.830  1.00  0.00     0.002 C
HETATM    5  C7  UNL     1      28.136   6.861  47.328  1.00  0.00     0.029 C
HETATM    6  C8  UNL     1      27.722   8.302  47.468  1.00  0.00     0.134 C
ENDROOT
BRANCH   6   7
HETATM    7  N2  UNL     1      28.773   9.118  46.902  1.00  0.00    -0.316 N
ATOM      8  H2  UNL     1      28.519   9.971  46.406  1.00  0.00     0.182 HD
BRANCH   7   9
HETATM    9  N3  UNL     1      30.121   8.779  47.008  1.00  0.00    -0.253 N
HETATM   10  N4  UNL     1      30.793   8.913  48.051  1.00  0.00    -0.331 N
ATOM     11  H42 UNL     1      30.311   9.294  48.865  1.00  0.00     0.178 HD
ATOM     12  H41 UNL     1      31.779   8.665  48.129  1.00  0.00     0.178 HD
ATOM     13  H3  UNL     1      30.586   8.399  46.184  1.00  0.00     0.207 HD
ENDBRANCH   7   9
ENDBRANCH   6   7
BRANCH   1  14
HETATM   14  N1  UNL     1      27.343   9.985  49.092  1.00  0.00     0.086 N
HETATM   15  C1  UNL     1      26.224  10.404  48.262  1.00  0.00     0.310 C
HETATM   16  C2  UNL     1      28.441  10.847  48.748  1.00  0.00     0.310 C
ENDBRANCH   1  14
TORSDOF 3
ENDMDL