MODEL 5
REMARK VINA RESULT: -4.712515783      1.388      2.098
REMARK  3 active torsions:
REMARK  status: ('A' for Active; 'I' for Inactive)
REMARK    1  A    between atoms: C2_2  and  N1_3
REMARK    2  A    between atoms: N1_3  and  C3_4
REMARK    3  A    between atoms: C3_4  and  C4_5
ROOT
HETATM    1  N1  UNL     1      27.677   7.799  48.418  1.00  0.00     0.012 N
HETATM    2  C7  UNL     1      27.433   8.666  47.252  1.00  0.00     0.262 C
HETATM    3  C8  UNL     1      27.952   7.889  46.058  1.00  0.00     0.048 C
HETATM    4  C9  UNL     1      27.732   6.469  46.546  1.00  0.00     0.144 C
HETATM    5  N3  UNL     1      27.793   6.519  47.960  1.00  0.00    -0.047 NA
ENDROOT
BRANCH   1   6
HETATM    6  C2  UNL     1      26.486   7.984  49.265  1.00  0.00     0.256 C
HETATM    7  C1  UNL     1      25.961   6.708  49.808  1.00  0.00     0.036 C
ENDBRANCH   1   6
BRANCH   1   8
HETATM    8  C3  UNL     1      28.823   8.325  49.085  1.00  0.00     0.293 C
BRANCH   8   9
HETATM    9  C4  UNL     1      29.489   9.477  48.433  1.00  0.00     0.215 C
HETATM   10  C5  UNL     1      29.112  10.855  48.834  1.00  0.00     0.062 C
HETATM   11  C6  UNL     1      30.562  11.168  48.430  1.00  0.00     0.235 C
HETATM   12  N2  UNL     1      30.849   9.759  48.746  1.00  0.00    -0.069 N
ATOM     13  H22 UNL     1      31.249   9.492  49.645  1.00  0.00     0.277 HD
ATOM     14  H21 UNL     1      31.610   9.262  48.284  1.00  0.00     0.277 HD
ENDBRANCH   8   9
ENDBRANCH   1   8
TORSDOF 3
ENDMDL