MODEL 1
REMARK VINA RESULT: -5.458755114      0.000      0.000
REMARK  3 active torsions:
REMARK  status: ('A' for Active; 'I' for Inactive)
REMARK    1  A    between atoms: N1_2  and  C3_4
REMARK    2  A    between atoms: N1_2  and  C6_8
REMARK    3  A    between atoms: C3_4  and  C4_5
ROOT
HETATM    1  C6  UNL     1      28.285   7.628  48.634  1.00  0.00     0.217 C
HETATM    2  C7  UNL     1      27.701   7.709  50.010  1.00  0.00     0.062 C
HETATM    3  C8  UNL     1      26.460   6.885  49.975  1.00  0.00     0.234 C
HETATM    4  N3  UNL     1      26.320   6.293  48.692  1.00  0.00    -0.073 N
ATOM      5  H31 UNL     1      25.463   6.581  48.221  1.00  0.00     0.277 HD
ATOM      6  H32 UNL     1      26.123   5.294  48.743  1.00  0.00     0.277 HD
HETATM    7  C9  UNL     1      27.506   6.586  47.917  1.00  0.00     0.265 C
ENDROOT
BRANCH   1   8
HETATM    8  N1  UNL     1      28.357   8.899  47.956  1.00  0.00    -0.066 N
HETATM    9  C1  UNL     1      27.365   9.763  48.576  1.00  0.00     0.272 C
HETATM   10  C2  UNL     1      27.847   8.644  46.595  1.00  0.00     0.272 C
BRANCH   8  11
HETATM   11  C3  UNL     1      29.656   9.466  47.887  1.00  0.00     0.265 C
BRANCH  11  12
HETATM   12  C4  UNL     1      29.727  10.898  48.265  1.00  0.00     0.015 C
HETATM   13  C5  UNL     1      30.769  11.439  48.854  1.00  0.00     0.097 C
HETATM   14  N2  UNL     1      31.904  10.631  49.159  1.00  0.00    -0.115 NA
ENDBRANCH  11  12
ENDBRANCH   8  11
ENDBRANCH   1   8
TORSDOF 3
ENDMDL