MODEL 3
REMARK VINA RESULT: -3.805830031      1.836      4.203
REMARK  4 active torsions:
REMARK  status: ('A' for Active; 'I' for Inactive)
REMARK    1  A    between atoms: C2_2  and  C3_3
REMARK    2  A    between atoms: C3_3  and  C4_4
REMARK    3  A    between atoms: N1_6  and  C6_7
REMARK    4  A    between atoms: C6_7  and  N2_8
ROOT
HETATM    1  C4  UNL     1      35.059  -0.859  38.931  1.00  0.00     0.029 A
HETATM    2  C5  UNL     1      35.803  -1.811  39.592  1.00  0.00     0.118 A
HETATM    3  N1  UNL     1      36.673  -1.181  40.402  1.00  0.00    -0.327 N
HETATM    4  C7  UNL     1      36.452   0.146  40.225  1.00  0.00     0.184 A
HETATM    5  N3  UNL     1      35.468   0.337  39.328  1.00  0.00    -0.354 N
ATOM      6  H3  UNL     1      35.104   1.236  39.012  1.00  0.00     0.166 HD
ENDROOT
BRANCH   3   7
HETATM    7  C6  UNL     1      37.661  -1.759  41.294  1.00  0.00     0.359 C
BRANCH   7   8
HETATM    8  N2  UNL     1      37.116  -2.919  41.995  1.00  0.00    -0.063 N
ATOM      9  H23 UNL     1      36.154  -2.761  42.294  1.00  0.00     0.276 HD
ATOM     10  H22 UNL     1      36.955  -3.701  41.360  1.00  0.00     0.276 HD
ATOM     11  H21 UNL     1      37.714  -3.187  42.777  1.00  0.00     0.276 HD
ENDBRANCH   7   8
ENDBRANCH   3   7
BRANCH   1  12
HETATM   12  C3  UNL     1      33.995  -1.188  37.950  1.00  0.00     0.084 C
BRANCH  12  13
HETATM   13  C2  UNL     1      33.913  -2.673  37.895  1.00  0.00    -0.031 C
HETATM   14  C1  UNL     1      32.745  -3.272  37.983  1.00  0.00     0.007 C
ENDBRANCH  12  13
ENDBRANCH   1  12
TORSDOF 4
ENDMDL