MODEL 5
REMARK VINA RESULT: -4.517866607      1.502      1.864
REMARK  3 active torsions:
REMARK  status: ('A' for Active; 'I' for Inactive)
REMARK    1  A    between atoms: C2_2  and  C3_3
REMARK    2  A    between atoms: C3_3  and  N1_4
REMARK    3  A    between atoms: N1_4  and  C4_6
ROOT
HETATM    1  C4  UNL     1      34.091  -1.966  39.012  1.00  0.00     0.117 A
HETATM    2  C5  UNL     1      32.829  -2.501  38.879  1.00  0.00     0.068 A
HETATM    3  C6  UNL     1      32.700  -2.958  37.564  1.00  0.00     0.111 A
HETATM    4  N2  UNL     1      33.868  -2.687  36.959  1.00  0.00    -0.310 N
ATOM      5  H2  UNL     1      34.089  -2.900  35.986  1.00  0.00     0.186 HD
HETATM    6  N3  UNL     1      34.702  -2.092  37.828  1.00  0.00    -0.286 N
ATOM      7  H3  UNL     1      35.651  -1.784  37.617  1.00  0.00     0.188 HD
ENDROOT
BRANCH   1   8
HETATM    8  N1  UNL     1      34.600  -1.440  40.069  1.00  0.00    -0.372 N
ATOM      9  H1  UNL     1      34.068  -0.731  40.573  1.00  0.00     0.161 HD
BRANCH   8  10
HETATM   10  C3  UNL     1      35.906  -1.823  40.569  1.00  0.00     0.147 C
BRANCH  10  11
HETATM   11  C2  UNL     1      36.813  -0.667  40.343  1.00  0.00    -0.018 C
HETATM   12  C1  UNL     1      36.345   0.551  40.101  1.00  0.00     0.008 C
ENDBRANCH  10  11
ENDBRANCH   8  10
ENDBRANCH   1   8
TORSDOF 3
ENDMDL