MODEL 1
REMARK VINA RESULT: -4.895469513      0.000      0.000
REMARK  3 active torsions:
REMARK  status: ('A' for Active; 'I' for Inactive)
REMARK    1  A    between atoms: C2_3  and  C3_4
REMARK    2  A    between atoms: C3_4  and  C4_5
REMARK    3  A    between atoms: C4_5  and  N2_6
ROOT
HETATM    1  N2  UNL     1      34.165  -0.558  39.349  1.00  0.00    -0.362 N
ATOM      2  H2  UNL     1      33.629  -0.265  40.166  1.00  0.00     0.162 HD
HETATM    3  C5  UNL     1      33.745  -1.584  38.693  1.00  0.00     0.181 A
HETATM    4  N3  UNL     1      34.036  -2.383  37.588  1.00  0.00    -0.324 N
ATOM      5  H3  UNL     1      34.790  -2.346  36.903  1.00  0.00     0.169 HD
HETATM    6  C6  UNL     1      33.039  -3.182  37.721  1.00  0.00     0.186 A
HETATM    7  N4  UNL     1      32.640  -2.445  38.863  1.00  0.00    -0.324 N
ATOM      8  H4  UNL     1      31.872  -2.510  39.531  1.00  0.00     0.169 HD
ENDROOT
BRANCH   1   9
HETATM    9  C4  UNL     1      35.331   0.198  39.012  1.00  0.00     0.126 C
BRANCH   9  10
HETATM   10  C3  UNL     1      36.308   0.061  40.175  1.00  0.00     0.048 C
BRANCH  10  11
HETATM   11  C2  UNL     1      37.183  -1.091  39.836  1.00  0.00    -0.011 C
HETATM   12  C1  UNL     1      37.434  -1.439  38.594  1.00  0.00     0.096 C
HETATM   13  N1  UNL     1      38.272  -2.542  38.311  1.00  0.00    -0.115 NA
ENDBRANCH  10  11
ENDBRANCH   9  10
ENDBRANCH   1   9
TORSDOF 3
ENDMDL