MODEL 2
REMARK VINA RESULT: -4.959425533      0.786      1.931
REMARK  4 active torsions:
REMARK  status: ('A' for Active; 'I' for Inactive)
REMARK    1  A    between atoms: C5_7  and  C6_8
REMARK    2  A    between atoms: C6_8  and  C7_9
REMARK    3  A    between atoms: C7_9  and  C8_10
REMARK    4  A    between atoms: C8_10  and  N2_11
ROOT
HETATM    1  C1  UNL     1      36.968  -2.214  40.968  1.00  0.00     0.044 C
HETATM    2  C2  UNL     1      36.446  -1.192  40.281  1.00  0.00     0.032 A
HETATM    3  N1  UNL     1      36.640   0.108  40.550  1.00  0.00    -0.366 N
ATOM      4  H1  UNL     1      37.214   0.461  41.315  1.00  0.00     0.165 HD
HETATM    5  C3  UNL     1      35.981   0.878  39.680  1.00  0.00     0.089 A
HETATM    6  C4  UNL     1      35.337   0.001  38.815  1.00  0.00     0.030 A
HETATM    7  C5  UNL     1      35.626  -1.271  39.189  1.00  0.00    -0.013 A
ENDROOT
BRANCH   7   8
HETATM    8  C6  UNL     1      35.216  -2.390  38.634  1.00  0.00    -0.011 C
BRANCH   8   9
HETATM    9  C7  UNL     1      34.252  -2.355  37.488  1.00  0.00     0.055 C
BRANCH   9  10
HETATM   10  C8  UNL     1      32.981  -3.043  37.986  1.00  0.00     0.233 C
BRANCH  10  11
HETATM   11  N2  UNL     1      32.365  -2.270  39.049  1.00  0.00    -0.079 N
ATOM     12  H23 UNL     1      32.858  -2.385  39.935  1.00  0.00     0.274 HD
ATOM     13  H22 UNL     1      32.511  -1.268  38.922  1.00  0.00     0.274 HD
ATOM     14  H21 UNL     1      31.375  -2.502  39.133  1.00  0.00     0.274 HD
ENDBRANCH  10  11
ENDBRANCH   9  10
ENDBRANCH   8   9
ENDBRANCH   7   8
TORSDOF 4
ENDMDL