MODEL 1
REMARK VINA RESULT: -3.934300997      0.000      0.000
REMARK  5 active torsions:
REMARK  status: ('A' for Active; 'I' for Inactive)
REMARK    1  A    between atoms: C1_4  and  C2_5
REMARK    2  A    between atoms: C2_5  and  C3_6
REMARK    3  A    between atoms: C3_6  and  C4_7
REMARK    4  A    between atoms: C4_7  and  C5_8
REMARK    5  A    between atoms: C6_9  and  C7_10
ROOT
HETATM    1  C7  UNL     1      37.944  -1.814  41.501  1.00  0.00     0.015 C
HETATM    2  C8  UNL     1      38.695  -2.315  42.316  1.00  0.00     0.066 C
HETATM    3  O1  UNL     1      39.553  -2.880  43.229  1.00  0.00    -0.313 OA
ATOM      4  H1  UNL     1      40.139  -3.272  43.866  1.00  0.00     0.230 HD
ENDROOT
BRANCH   1   5
HETATM    5  C6  UNL     1      37.068  -1.211  40.568  1.00  0.00    -0.013 C
HETATM    6  C5  UNL     1      36.314  -0.684  39.787  1.00  0.00    -0.092 C
BRANCH   6   7
HETATM    7  C4  UNL     1      35.382  -0.026  38.851  1.00  0.00     0.095 C
BRANCH   7   8
HETATM    8  C3  UNL     1      34.135  -0.897  38.671  1.00  0.00     0.017 C
BRANCH   8   9
HETATM    9  C2  UNL     1      34.530  -2.213  38.014  1.00  0.00     0.044 C
BRANCH   9  10
HETATM   10  C1  UNL     1      33.311  -2.971  37.703  1.00  0.00     0.052 C
HETATM   11  N1  UNL     1      32.246  -2.910  38.419  1.00  0.00    -0.411 N
ATOM     12  H12 UNL     1      32.265  -2.302  39.237  1.00  0.00     0.155 HD
ATOM     13  H11 UNL     1      31.400  -3.436  38.203  1.00  0.00     0.155 HD
ENDBRANCH   9  10
ENDBRANCH   8   9
ENDBRANCH   7   8
ENDBRANCH   6   7
ENDBRANCH   1   5
TORSDOF 5
ENDMDL