MODEL 3
REMARK VINA RESULT: -5.035414287      0.806      1.575
REMARK  2 active torsions:
REMARK  status: ('A' for Active; 'I' for Inactive)
REMARK    1  A    between atoms: C1_4  and  N2_5
REMARK    2  A    between atoms: N2_5  and  N3_7
ROOT
HETATM    1  N2  UNL     1      34.415  -2.059  39.153  1.00  0.00    -0.316 N
ATOM      2  H2  UNL     1      33.894  -1.669  39.939  1.00  0.00     0.181 HD
ENDROOT
BRANCH   1   3
HETATM    3  C1  UNL     1      33.744  -2.530  38.003  1.00  0.00     0.185 C
HETATM    4  N1  UNL     1      32.687  -3.229  38.121  1.00  0.00    -0.395 N
ATOM      5  H12 UNL     1      32.337  -3.442  39.055  1.00  0.00     0.156 HD
ATOM      6  H11 UNL     1      32.202  -3.568  37.290  1.00  0.00     0.156 HD
ENDBRANCH   1   3
BRANCH   1   7
HETATM    7  N3  UNL     1      35.802  -2.141  39.189  1.00  0.00    -0.231 NA
HETATM    8  C2  UNL     1      36.256  -2.473  40.517  1.00  0.00     0.113 C
HETATM    9  C3  UNL     1      37.233  -1.379  40.927  1.00  0.00     0.017 C
HETATM   10  C4  UNL     1      36.623  -0.213  40.135  1.00  0.00     0.017 C
HETATM   11  C5  UNL     1      36.446  -0.915  38.800  1.00  0.00     0.113 C
ENDBRANCH   1   7
TORSDOF 2
ENDMDL