MODEL 4
REMARK VINA RESULT: -4.619892325      1.283      1.961
REMARK  3 active torsions:
REMARK  status: ('A' for Active; 'I' for Inactive)
REMARK    1  A    between atoms: C3_3  and  N1_4
REMARK    2  A    between atoms: N1_4  and  C4_7
REMARK    3  A    between atoms: C4_7  and  C5_8
ROOT
HETATM    1  C1  UNL     1      38.301  -2.259  38.051  1.00  0.00     0.013 C
HETATM    2  C2  UNL     1      37.798  -2.014  39.114  1.00  0.00    -0.090 C
HETATM    3  C3  UNL     1      37.174  -1.686  40.414  1.00  0.00     0.324 C
ENDROOT
BRANCH   3   4
HETATM    4  N1  UNL     1      36.628  -0.328  40.361  1.00  0.00    -0.065 N
ATOM      5  H12 UNL     1      36.310  -0.007  41.275  1.00  0.00     0.278 HD
ATOM      6  H11 UNL     1      37.354   0.371  40.203  1.00  0.00     0.278 HD
BRANCH   4   7
HETATM    7  C4  UNL     1      35.583  -0.258  39.367  1.00  0.00     0.240 C
BRANCH   7   8
HETATM    8  C5  UNL     1      34.814  -1.510  39.208  1.00  0.00     0.050 A
HETATM    9  C6  UNL     1      34.277  -2.032  37.941  1.00  0.00     0.050 A
HETATM   10  C7  UNL     1      33.212  -3.104  37.959  1.00  0.00     0.239 C
HETATM   11  C8  UNL     1      33.344  -1.288  38.811  1.00  0.00     0.198 A
HETATM   12  N2  UNL     1      32.441  -2.389  38.970  1.00  0.00    -0.070 N
ATOM     13  H22 UNL     1      31.435  -2.260  38.866  1.00  0.00     0.277 HD
ATOM     14  H21 UNL     1      32.275  -2.801  39.889  1.00  0.00     0.277 HD
ENDBRANCH   7   8
ENDBRANCH   4   7
ENDBRANCH   3   4
TORSDOF 3
ENDMDL