MODEL 5
REMARK VINA RESULT: -3.556883881      1.171      2.177
REMARK  3 active torsions:
REMARK  status: ('A' for Active; 'I' for Inactive)
REMARK    1  A    between atoms: C2_2  and  C3_3
REMARK    2  A    between atoms: C3_3  and  C4_4
REMARK    3  A    between atoms: C4_4  and  N1_5
ROOT
HETATM    1  N1  UNL     1      34.800  -1.998  38.325  1.00  0.00    -0.217 N
HETATM    2  C5  UNL     1      34.343  -1.134  39.431  1.00  0.00     0.161 C
HETATM    3  C6  UNL     1      32.922  -1.538  39.736  1.00  0.00     0.158 C
HETATM    4  N2  UNL     1      32.563  -2.476  38.718  1.00  0.00    -0.225 N
ATOM      5  H2  UNL     1      31.696  -3.011  38.684  1.00  0.00     0.177 HD
HETATM    6  C7  UNL     1      33.620  -2.542  37.753  1.00  0.00     0.669 C
HETATM    7  N3  UNL     1      33.484  -3.036  36.578  1.00  0.00    -0.235 N
ATOM      8  H31 UNL     1      32.636  -3.426  36.167  1.00  0.00     0.174 HD
ATOM      9  H32 UNL     1      34.237  -3.083  35.891  1.00  0.00     0.174 HD
ENDROOT
BRANCH   1  10
HETATM   10  C4  UNL     1      36.165  -2.194  37.999  1.00  0.00     0.145 C
BRANCH  10  11
HETATM   11  C3  UNL     1      37.150  -1.321  38.706  1.00  0.00     0.047 C
BRANCH  11  12
HETATM   12  C2  UNL     1      37.652  -2.149  39.853  1.00  0.00    -0.035 C
HETATM   13  C1  UNL     1      37.420  -1.760  41.076  1.00  0.00     0.007 C
ENDBRANCH  11  12
ENDBRANCH  10  11
ENDBRANCH   1  10
TORSDOF 3
ENDMDL