MODEL 1
REMARK VINA RESULT: -5.728853357      0.000      0.000
REMARK  3 active torsions:
REMARK  status: ('A' for Active; 'I' for Inactive)
REMARK    1  A    between atoms: C1_2  and  N1_3
REMARK    2  A    between atoms: C2_5  and  N2_6
REMARK    3  A    between atoms: N2_6  and  C3_8
ROOT
HETATM    1  N2  UNL     1      36.418  -2.476  38.673  1.00  0.00    -0.375 N
ATOM      2  H2  UNL     1      36.885  -3.351  38.910  1.00  0.00     0.161 HD
ENDROOT
BRANCH   1   3
HETATM    3  C2  UNL     1      35.209  -2.549  37.930  1.00  0.00     0.178 C
HETATM    4  N1  UNL     1      34.128  -2.914  38.482  1.00  0.00    -0.331 N
ATOM      5  H1  UNL     1      34.170  -3.148  39.474  1.00  0.00     0.168 HD
BRANCH   4   6
HETATM    6  C1  UNL     1      32.880  -3.024  37.852  1.00  0.00     0.353 C
HETATM    7  O1  UNL     1      31.835  -2.753  38.504  1.00  0.00    -0.283 OA
ENDBRANCH   4   6
ENDBRANCH   1   3
BRANCH   1   8
HETATM    8  C3  UNL     1      37.022  -1.262  39.110  1.00  0.00     0.152 C
HETATM    9  C4  UNL     1      36.147  -0.037  39.134  1.00  0.00     0.040 C
HETATM   10  C5  UNL     1      36.484   0.095  40.603  1.00  0.00     0.083 C
HETATM   11  C6  UNL     1      37.129  -1.244  40.596  1.00  0.00     0.149 C
HETATM   12  O2  UNL     1      37.538  -1.946  41.499  1.00  0.00    -0.296 OA
ENDBRANCH   1   8
TORSDOF 3
ENDMDL