MODEL 4
REMARK VINA RESULT: -4.587138456      0.752      1.535
REMARK  4 active torsions:
REMARK  status: ('A' for Active; 'I' for Inactive)
REMARK    1  A    between atoms: N1_2  and  C2_4
REMARK    2  A    between atoms: C2_4  and  C3_5
REMARK    3  A    between atoms: C3_5  and  N2_6
REMARK    4  A    between atoms: N2_6  and  C4_8
ROOT
HETATM    1  C4  UNL     1      34.291  -0.914  38.649  1.00  0.00     0.677 A
HETATM    2  N3  UNL     1      33.330  -1.410  39.438  1.00  0.00    -0.201 N
ATOM      3  H3  UNL     1      32.987  -0.993  40.303  1.00  0.00     0.183 HD
HETATM    4  C5  UNL     1      32.899  -2.553  38.887  1.00  0.00     0.123 A
HETATM    5  C6  UNL     1      33.620  -2.744  37.743  1.00  0.00     0.123 A
HETATM    6  N4  UNL     1      34.484  -1.726  37.596  1.00  0.00    -0.201 N
ATOM      7  H4  UNL     1      35.152  -1.596  36.837  1.00  0.00     0.183 HD
ENDROOT
BRANCH   1   8
HETATM    8  N2  UNL     1      34.941   0.202  38.884  1.00  0.00    -0.224 N
ATOM      9  H2  UNL     1      34.684   1.063  38.402  1.00  0.00     0.177 HD
BRANCH   8  10
HETATM   10  C3  UNL     1      36.025   0.191  39.835  1.00  0.00     0.157 C
BRANCH  10  11
HETATM   11  C2  UNL     1      36.980  -0.949  39.503  1.00  0.00     0.138 C
BRANCH  11  12
HETATM   12  N1  UNL     1      37.280  -1.743  40.633  1.00  0.00    -0.406 N
HETATM   13  C1  UNL     1      36.475  -2.514  41.229  1.00  0.00     0.112 C
ATOM     14  H1  UNL     1      38.230  -1.689  41.000  1.00  0.00     0.158 HD
ENDBRANCH  11  12
ENDBRANCH  10  11
ENDBRANCH   8  10
ENDBRANCH   1   8
TORSDOF 4
ENDMDL