MODEL 2
REMARK VINA RESULT: -7.035698788      2.175      3.118
REMARK  9 active torsions:
REMARK  status: ('A' for Active; 'I' for Inactive)
REMARK    1  A    between atoms: O1_1  and  C1_3
REMARK    2  A    between atoms: C4_8  and  N2_9
REMARK    3  A    between atoms: N2_9  and  C5_11
REMARK    4  A    between atoms: C5_11  and  C6_12
REMARK    5  A    between atoms: N3_19  and  C12_20
REMARK    6  A    between atoms: C13_24  and  C14_25
REMARK    7  A    between atoms: C14_25  and  C15_26
REMARK    8  A    between atoms: C16_30  and  O2_31
REMARK    9  A    between atoms: C17_33  and  O3_34
ROOT
HETATM    1  C1  UNL     1      31.194  50.846  48.568  1.00  0.00     0.161 A
HETATM    2  C2  UNL     1      31.527  52.202  48.414  1.00  0.00     0.144 A
HETATM    3  N1  UNL     1      31.399  52.804  47.224  1.00  0.00    -0.368 N
ATOM      4  H1  UNL     1      31.643  53.788  47.120  1.00  0.00     0.164 HD
HETATM    5  C3  UNL     1      30.941  52.095  46.154  1.00  0.00     0.136 A
HETATM    6  C4  UNL     1      30.607  50.776  46.266  1.00  0.00     0.123 A
HETATM    7  N3  UNL     1      30.752  50.182  47.512  1.00  0.00    -0.280 N
ENDROOT
BRANCH   7   8
HETATM    8  C12 UNL     1      30.385  48.807  47.539  1.00  0.00     0.326 C
HETATM    9  N4  UNL     1      29.377  48.580  48.606  1.00  0.00    -0.044 N
HETATM   10  C13 UNL     1      29.237  47.111  48.629  1.00  0.00     0.228 C
ATOM     11  H42 UNL     1      29.610  48.998  49.507  1.00  0.00     0.280 HD
ATOM     12  H41 UNL     1      28.502  49.087  48.479  1.00  0.00     0.280 HD
HETATM   13  C16 UNL     1      30.424  46.540  47.933  1.00  0.00     0.181 C
HETATM   14  C17 UNL     1      31.376  47.788  47.977  1.00  0.00     0.199 C
BRANCH  10  15
HETATM   15  C14 UNL     1      27.909  46.693  48.093  1.00  0.00     0.153 C
BRANCH  15  16
HETATM   16  C15 UNL     1      27.136  45.798  49.025  1.00  0.00     0.389 C
HETATM   17  F1  UNL     1      25.936  45.402  48.448  1.00  0.00    -0.171 F
HETATM   18  F2  UNL     1      27.861  44.663  49.333  1.00  0.00    -0.171 F
HETATM   19  F3  UNL     1      26.820  46.411  50.212  1.00  0.00    -0.171 F
ENDBRANCH  15  16
ENDBRANCH  10  15
BRANCH  13  20
HETATM   20  O2  UNL     1      31.044  45.525  48.642  1.00  0.00    -0.391 OA
ATOM     21  H2  UNL     1      30.914  45.584  49.581  1.00  0.00     0.210 HD
ENDBRANCH  13  20
BRANCH  14  22
HETATM   22  O3  UNL     1      32.368  47.465  47.076  1.00  0.00    -0.389 OA
ATOM     23  H3  UNL     1      33.227  47.838  47.236  1.00  0.00     0.210 HD
ENDBRANCH  14  22
ENDBRANCH   7   8
BRANCH   1  24
HETATM   24  O1  UNL     1      31.342  50.260  49.826  1.00  0.00    -0.345 OA
ATOM     25  H1  UNL     1      32.188  50.314  50.256  1.00  0.00     0.219 HD
ENDBRANCH   1  24
BRANCH   6  26
HETATM   26  N2  UNL     1      30.172  50.063  45.277  1.00  0.00    -0.371 N
ATOM     27  H2  UNL     1      30.688  49.239  44.970  1.00  0.00     0.161 HD
BRANCH  26  28
HETATM   28  C5  UNL     1      28.958  50.443  44.617  1.00  0.00     0.160 C
BRANCH  28  29
HETATM   29  C6  UNL     1      27.766  49.670  45.082  1.00  0.00    -0.040 A
HETATM   30  C7  UNL     1      27.008  50.140  46.137  1.00  0.00     0.010 A
HETATM   31  C8  UNL     1      25.896  49.482  46.617  1.00  0.00     0.024 A
HETATM   32  C9  UNL     1      25.516  48.297  46.020  1.00  0.00     0.034 A
HETATM   33 CL1  UNL     1      24.106  47.399  46.578  1.00  0.00    -0.084 Cl
HETATM   34  C10 UNL     1      26.268  47.822  44.966  1.00  0.00     0.024 A
HETATM   35  C11 UNL     1      27.387  48.502  44.497  1.00  0.00     0.010 A
ENDBRANCH  28  29
ENDBRANCH  26  28
ENDBRANCH   6  26
TORSDOF 9
ENDMDL