MODEL 1
REMARK VINA RESULT: -7.701062618      0.000      0.000
REMARK  8 active torsions:
REMARK  status: ('A' for Active; 'I' for Inactive)
REMARK    1  A    between atoms: C2_7  and  C3_8
REMARK    2  A    between atoms: C7_12  and  O1_13
REMARK    3  A    between atoms: O1_13  and  C8_14
REMARK    4  A    between atoms: C8_14  and  C9_15
REMARK    5  A    between atoms: N3_22  and  C12_23
REMARK    6  A    between atoms: C14_25  and  O2_26
REMARK    7  A    between atoms: C15_28  and  C16_29
REMARK    8  A    between atoms: C16_29  and  O3_30
ROOT
HETATM    1  N1  UNL     1      30.776  53.583  49.561  1.00  0.00    -0.234 N
ATOM      2  H11 UNL     1      31.498  54.300  49.493  1.00  0.00     0.174 HD
ATOM      3  H12 UNL     1      29.934  54.030  49.923  1.00  0.00     0.174 HD
HETATM    4  C1  UNL     1      30.898  52.332  49.247  1.00  0.00     0.680 A
HETATM    5  N2  UNL     1      29.924  51.363  49.340  1.00  0.00    -0.190 N
ATOM      6  H2  UNL     1      28.972  51.520  49.672  1.00  0.00     0.184 HD
HETATM    7  C2  UNL     1      30.403  50.198  48.933  1.00  0.00     0.077 A
HETATM    8  C11 UNL     1      31.716  50.450  48.578  1.00  0.00     0.142 A
HETATM    9  N3  UNL     1      32.004  51.745  48.772  1.00  0.00    -0.164 N
ENDROOT
BRANCH   7  10
HETATM   10  C3  UNL     1      29.777  48.892  48.842  1.00  0.00     0.017 A
HETATM   11  C4  UNL     1      29.665  48.105  50.001  1.00  0.00     0.015 A
HETATM   12  C5  UNL     1      29.089  46.875  49.974  1.00  0.00     0.004 A
HETATM   13  C6  UNL     1      28.586  46.342  48.799  1.00  0.00     0.038 A
HETATM   14  C7  UNL     1      28.666  47.062  47.635  1.00  0.00     0.091 A
HETATM   15  C10 UNL     1      29.273  48.338  47.703  1.00  0.00     0.080 A
HETATM   16 CL1  UNL     1      29.323  49.171  46.166  1.00  0.00    -0.080 Cl
BRANCH  14  17
HETATM   17  O1  UNL     1      28.209  46.607  46.496  1.00  0.00    -0.341 OA
BRANCH  17  18
HETATM   18  C8  UNL     1      27.384  46.482  45.486  1.00  0.00     0.293 C
BRANCH  18  19
HETATM   19  C9  UNL     1      27.477  45.153  44.770  1.00  0.00     0.408 C
HETATM   20  F1  UNL     1      27.462  45.328  43.391  1.00  0.00    -0.169 F
HETATM   21  F2  UNL     1      26.303  44.435  45.044  1.00  0.00    -0.169 F
HETATM   22  F3  UNL     1      28.507  44.370  45.138  1.00  0.00    -0.169 F
ENDBRANCH  18  19
ENDBRANCH  17  18
ENDBRANCH  14  17
ENDBRANCH   7  10
BRANCH   9  23
HETATM   23  C12 UNL     1      33.249  52.427  48.533  1.00  0.00     0.248 C
HETATM   24  C13 UNL     1      33.261  53.137  47.193  1.00  0.00     0.089 C
HETATM   25  C14 UNL     1      34.751  53.351  46.998  1.00  0.00     0.153 C
HETATM   26  C15 UNL     1      35.332  52.216  47.799  1.00  0.00     0.176 C
HETATM   27  O4  UNL     1      34.291  51.507  48.348  1.00  0.00    -0.356 OA
BRANCH  25  28
HETATM   28  O2  UNL     1      35.103  54.554  47.603  1.00  0.00    -0.393 OA
ATOM     29  H2  UNL     1      35.060  55.241  46.947  1.00  0.00     0.210 HD
ENDBRANCH  25  28
BRANCH  26  30
HETATM   30  C16 UNL     1      36.178  51.350  46.859  1.00  0.00     0.198 C
BRANCH  30  31
HETATM   31  O3  UNL     1      35.414  50.366  46.258  1.00  0.00    -0.398 OA
ATOM     32  H3  UNL     1      35.886  49.542  46.210  1.00  0.00     0.209 HD
ENDBRANCH  30  31
ENDBRANCH  26  30
ENDBRANCH   9  23
TORSDOF 8
ENDMDL