MODEL 5
REMARK VINA RESULT: -6.990090067      2.756      3.290
REMARK  7 active torsions:
REMARK  status: ('A' for Active; 'I' for Inactive)
REMARK    1  A    between atoms: C2_7  and  C3_8
REMARK    2  A    between atoms: C4_10  and  C5_11
REMARK    3  A    between atoms: C4_10  and  C11_20
REMARK    4  A    between atoms: C5_11  and  S1_12
REMARK    5  A    between atoms: S1_12  and  C6_15
REMARK    6  A    between atoms: C11_20  and  O3_21
REMARK    7  A    between atoms: N3_23  and  O4_25
ROOT
HETATM    1  N1  UNL     1      34.247  53.255  50.358  1.00  0.00    -0.386 N
ATOM      2  H11 UNL     1      35.250  53.347  50.201  1.00  0.00     0.157 HD
ATOM      3  H12 UNL     1      33.795  53.546  51.225  1.00  0.00     0.157 HD
HETATM    4  C1  UNL     1      33.524  52.748  49.415  1.00  0.00     0.117 C
HETATM    5  N2  UNL     1      32.143  52.621  49.632  1.00  0.00    -0.369 N
ATOM      6  H2  UNL     1      31.763  52.623  50.578  1.00  0.00     0.161 HD
HETATM    7  C2  UNL     1      31.269  52.486  48.488  1.00  0.00     0.135 C
HETATM    8  C4  UNL     1      31.873  51.534  47.521  1.00  0.00     0.131 C
HETATM    9  C12 UNL     1      33.263  51.926  47.083  1.00  0.00     0.303 C
HETATM   10  F2  UNL     1      33.810  50.825  46.430  1.00  0.00    -0.201 F
HETATM   11  F3  UNL     1      33.205  52.918  46.091  1.00  0.00    -0.201 F
HETATM   12  C13 UNL     1      34.176  52.327  48.165  1.00  0.00     0.236 C
HETATM   13 CL1  UNL     1      35.321  51.012  48.594  1.00  0.00    -0.086 Cl
HETATM   14 CL2  UNL     1      35.189  53.701  47.611  1.00  0.00    -0.086 Cl
ENDROOT
BRANCH   8  15
HETATM   15  C5  UNL     1      31.078  51.403  46.245  1.00  0.00     0.167 C
BRANCH  15  16
HETATM   16  S1  UNL     1      29.427  50.887  46.423  1.00  0.00     0.150 S
HETATM   17  O1  UNL     1      28.409  51.956  46.510  1.00  0.00    -0.227 OA
HETATM   18  O2  UNL     1      29.237  49.989  47.636  1.00  0.00    -0.227 OA
BRANCH  16  19
HETATM   19  C6  UNL     1      28.969  49.855  45.021  1.00  0.00     0.108 C
HETATM   20  C7  UNL     1      28.064  48.744  45.446  1.00  0.00     0.020 C
HETATM   21  C8  UNL     1      26.888  48.816  44.491  1.00  0.00     0.001 C
HETATM   22  C9  UNL     1      27.415  49.594  43.279  1.00  0.00     0.001 C
HETATM   23  C10 UNL     1      28.273  50.641  43.965  1.00  0.00     0.020 C
ENDBRANCH  16  19
ENDBRANCH  15  16
ENDBRANCH   8  15
BRANCH   8  24
HETATM   24  C11 UNL     1      31.960  50.186  48.146  1.00  0.00     0.153 C
HETATM   25  N3  UNL     1      32.279  49.129  47.482  1.00  0.00    -0.250 N
ATOM     26  H3  UNL     1      32.477  49.238  46.488  1.00  0.00     0.196 HD
BRANCH  24  27
HETATM   27  O3  UNL     1      31.693  50.023  49.495  1.00  0.00    -0.347 OA
ATOM     28  H3  UNL     1      31.229  49.253  49.802  1.00  0.00     0.219 HD
ENDBRANCH  24  27
BRANCH  25  29
HETATM   29  O4  UNL     1      32.370  47.888  48.005  1.00  0.00    -0.288 OA
ATOM     30  H4  UNL     1      31.652  47.413  48.404  1.00  0.00     0.244 HD
ENDBRANCH  25  29
ENDBRANCH   8  24
BRANCH   7  31
HETATM   31  C3  UNL     1      30.970  53.840  47.913  1.00  0.00     0.248 C
HETATM   32  F1  UNL     1      31.121  54.842  48.845  1.00  0.00    -0.253 F
ENDBRANCH   7  31
TORSDOF 7
ENDMDL