MODEL 5
REMARK VINA RESULT: -8.021678986      2.603      3.463
REMARK  10 active torsions:
REMARK  status: ('A' for Active; 'I' for Inactive)
REMARK    1  A    between atoms: O1_1  and  N1_3
REMARK    2  A    between atoms: C1_5  and  O2_6
REMARK    3  A    between atoms: C1_5  and  C2_8
REMARK    4  A    between atoms: C4_11  and  C5_12
REMARK    5  A    between atoms: C5_12  and  C6_13
REMARK    6  A    between atoms: C6_13  and  O4_14
REMARK    7  A    between atoms: O4_14  and  C7_15
REMARK    8  A    between atoms: C10_18  and  C11_19
REMARK    9  A    between atoms: C16_29  and  O5_30
REMARK   10  A    between atoms: C17_32  and  O6_33
ROOT
HETATM    1  C2  UNL     1      34.003  52.698  48.440  1.00  0.00     0.229 C
HETATM    2  O3  UNL     1      32.722  52.418  48.029  1.00  0.00    -0.368 OA
HETATM    3  C3  UNL     1      32.545  52.430  46.650  1.00  0.00     0.145 C
HETATM    4  C4  UNL     1      31.169  52.846  46.250  1.00  0.00     0.090 C
HETATM    5  C14 UNL     1      31.555  54.252  46.606  1.00  0.00     0.258 C
HETATM    6  F4  UNL     1      30.974  55.244  45.820  1.00  0.00    -0.205 F
HETATM    7  F5  UNL     1      31.630  54.541  47.918  1.00  0.00    -0.205 F
HETATM    8  C15 UNL     1      32.957  53.788  46.077  1.00  0.00     0.119 C
HETATM    9  C16 UNL     1      34.127  54.434  46.642  1.00  0.00     0.162 C
HETATM   10  C17 UNL     1      34.577  53.997  47.982  1.00  0.00     0.184 C
ENDROOT
BRANCH   4  11
HETATM   11  C5  UNL     1      29.986  52.187  46.815  1.00  0.00     0.040 C
BRANCH  11  12
HETATM   12  C6  UNL     1      29.384  51.228  45.833  1.00  0.00     0.176 C
BRANCH  12  13
HETATM   13  O4  UNL     1      30.082  50.012  45.632  1.00  0.00    -0.351 OA
BRANCH  13  14
HETATM   14  C7  UNL     1      29.848  49.040  46.665  1.00  0.00     0.068 A
HETATM   15  C8  UNL     1      30.924  48.635  47.395  1.00  0.00     0.037 A
HETATM   16  C9  UNL     1      30.726  47.684  48.435  1.00  0.00     0.019 A
HETATM   17  C10 UNL     1      29.455  47.209  48.652  1.00  0.00     0.048 A
HETATM   18  C12 UNL     1      28.373  47.601  47.923  1.00  0.00     0.019 A
HETATM   19  C13 UNL     1      28.601  48.541  46.913  1.00  0.00     0.037 A
BRANCH  17  20
HETATM   20  C11 UNL     1      29.199  46.238  49.792  1.00  0.00     0.417 C
HETATM   21  F1  UNL     1      30.031  45.166  49.674  1.00  0.00    -0.166 F
HETATM   22  F2  UNL     1      29.379  46.985  50.951  1.00  0.00    -0.166 F
HETATM   23  F3  UNL     1      27.868  45.913  49.711  1.00  0.00    -0.166 F
ENDBRANCH  17  20
ENDBRANCH  13  14
ENDBRANCH  12  13
ENDBRANCH  11  12
ENDBRANCH   4  11
BRANCH   1  24
HETATM   24  C1  UNL     1      34.947  51.574  48.283  1.00  0.00     0.167 C
HETATM   25  N1  UNL     1      34.672  50.403  48.695  1.00  0.00    -0.249 N
ATOM     26  H1  UNL     1      35.384  49.688  48.549  1.00  0.00     0.196 HD
BRANCH  25  27
HETATM   27  O1  UNL     1      33.521  50.003  49.314  1.00  0.00    -0.288 OA
ATOM     28  H1  UNL     1      33.206  50.283  50.165  1.00  0.00     0.244 HD
ENDBRANCH  25  27
BRANCH  24  29
HETATM   29  O2  UNL     1      36.165  51.826  47.675  1.00  0.00    -0.346 OA
ATOM     30  H2  UNL     1      36.652  52.612  47.893  1.00  0.00     0.219 HD
ENDBRANCH  24  29
ENDBRANCH   1  24
BRANCH   9  31
HETATM   31  O5  UNL     1      33.908  55.814  46.616  1.00  0.00    -0.392 OA
ATOM     32  H5  UNL     1      34.454  56.207  47.287  1.00  0.00     0.210 HD
ENDBRANCH   9  31
BRANCH  10  33
HETATM   33  O6  UNL     1      34.344  55.009  48.908  1.00  0.00    -0.390 OA
ATOM     34  H6  UNL     1      34.565  55.861  48.552  1.00  0.00     0.210 HD
ENDBRANCH  10  33
TORSDOF 10
ENDMDL