MODEL 1
REMARK VINA RESULT: -7.977573569      0.000      0.000
REMARK  9 active torsions:
REMARK  status: ('A' for Active; 'I' for Inactive)
REMARK    1  A    between atoms: O1_2  and  C2_3
REMARK    2  A    between atoms: C3_5  and  C4_6
REMARK    3  A    between atoms: C4_6  and  N1_7
REMARK    4  A    between atoms: N1_7  and  C5_9
REMARK    5  A    between atoms: C5_9  and  C6_10
REMARK    6  A    between atoms: C11_16  and  O3_17
REMARK    7  A    between atoms: C12_19  and  O4_20
REMARK    8  A    between atoms: C13_22  and  O5_23
REMARK    9  A    between atoms: C14_25  and  C16_28
ROOT
HETATM    1  C2  UNL     1      33.031  52.552  46.846  1.00  0.00     0.299 C
HETATM    2  O2  UNL     1      32.072  51.558  46.756  1.00  0.00    -0.318 OA
HETATM    3  C3  UNL     1      32.211  50.500  47.531  1.00  0.00     0.096 C
HETATM    4  C12 UNL     1      32.798  50.747  48.897  1.00  0.00     0.207 C
HETATM    5  C13 UNL     1      34.053  51.532  48.848  1.00  0.00     0.190 C
HETATM    6  C14 UNL     1      34.301  52.210  47.506  1.00  0.00     0.223 C
HETATM    7  C15 UNL     1      35.159  51.362  46.699  1.00  0.00     0.086 C
HETATM    8  N2  UNL     1      35.874  50.669  46.066  1.00  0.00    -0.196 NA
ENDROOT
BRANCH   6   9
HETATM    9  C16 UNL     1      35.126  53.477  47.858  1.00  0.00     0.415 C
HETATM   10  F1  UNL     1      34.744  54.004  49.059  1.00  0.00    -0.169 F
HETATM   11  F2  UNL     1      36.442  53.037  48.002  1.00  0.00    -0.169 F
HETATM   12  F3  UNL     1      35.121  54.351  46.826  1.00  0.00    -0.169 F
ENDBRANCH   6   9
BRANCH   1  13
HETATM   13  O1  UNL     1      32.485  53.746  47.305  1.00  0.00    -0.363 OA
HETATM   14  C1  UNL     1      31.763  54.482  46.425  1.00  0.00     0.204 C
ENDBRANCH   1  13
BRANCH   5  15
HETATM   15  O5  UNL     1      35.140  50.671  49.131  1.00  0.00    -0.390 OA
ATOM     16  H5  UNL     1      34.953  50.197  49.933  1.00  0.00     0.210 HD
ENDBRANCH   5  15
BRANCH   4  17
HETATM   17  O4  UNL     1      33.192  49.458  49.435  1.00  0.00    -0.386 OA
ATOM     18  H4  UNL     1      32.609  49.266  50.160  1.00  0.00     0.210 HD
ENDBRANCH   4  17
BRANCH   3  19
HETATM   19  C4  UNL     1      31.154  49.426  47.613  1.00  0.00     0.122 C
BRANCH  19  20
HETATM   20  N1  UNL     1      31.532  48.130  47.301  1.00  0.00    -0.372 N
ATOM     21  H1  UNL     1      32.073  47.978  46.450  1.00  0.00     0.164 HD
BRANCH  20  22
HETATM   22  C5  UNL     1      31.216  47.027  48.081  1.00  0.00     0.101 C
BRANCH  22  23
HETATM   23  C6  UNL     1      29.713  46.957  48.191  1.00  0.00     0.014 A
HETATM   24  C7  UNL     1      29.004  46.448  47.105  1.00  0.00     0.039 A
HETATM   25  C8  UNL     1      27.669  46.139  47.252  1.00  0.00     0.035 A
HETATM   26 CL1  UNL     1      26.804  45.465  45.916  1.00  0.00    -0.084 Cl
HETATM   27  C9  UNL     1      27.025  46.349  48.509  1.00  0.00     0.026 A
HETATM   28  C10 UNL     1      27.722  46.856  49.567  1.00  0.00     0.039 A
HETATM   29  C11 UNL     1      29.071  47.162  49.409  1.00  0.00     0.077 A
BRANCH  29  30
HETATM   30  O3  UNL     1      29.744  47.667  50.442  1.00  0.00    -0.360 OA
ATOM     31  H3  UNL     1      29.296  47.850  51.259  1.00  0.00     0.217 HD
ENDBRANCH  29  30
ENDBRANCH  22  23
ENDBRANCH  20  22
ENDBRANCH  19  20
ENDBRANCH   3  19
TORSDOF 9
ENDMDL