MODEL 5
REMARK VINA RESULT: -6.876287191      1.365      1.635
REMARK  10 active torsions:
REMARK  status: ('A' for Active; 'I' for Inactive)
REMARK    1  A    between atoms: C4_7  and  C5_8
REMARK    2  A    between atoms: C5_8  and  N2_9
REMARK    3  A    between atoms: C5_8  and  C6_13
REMARK    4  A    between atoms: C6_13  and  N3_14
REMARK    5  A    between atoms: C6_13  and  C9_21
REMARK    6  A    between atoms: N3_14  and  O1_15
REMARK    7  A    between atoms: O1_15  and  C7_16
REMARK    8  A    between atoms: C7_16  and  C8_17
REMARK    9  A    between atoms: C16_28  and  O2_29
REMARK   10  A    between atoms: C17_31  and  O3_32
ROOT
HETATM    1  C5  UNL     1      30.357  50.589  47.090  1.00  0.00     0.254 C
ENDROOT
BRANCH   1   2
HETATM    2  C4  UNL     1      29.992  49.346  47.843  1.00  0.00     0.050 C
HETATM    3  N1  UNL     1      28.814  49.181  48.331  1.00  0.00    -0.370 N
HETATM    4  C3  UNL     1      28.344  48.070  49.054  1.00  0.00     0.089 C
ATOM      5  H1  UNL     1      28.149  49.938  48.177  1.00  0.00     0.164 HD
HETATM    6  C2  UNL     1      29.007  46.771  48.724  1.00  0.00     0.093 C
HETATM    7  C1  UNL     1      29.307  46.031  50.006  1.00  0.00     0.041 C
HETATM    8 CL1  UNL     1      27.881  45.753  47.775  1.00  0.00    -0.111 Cl
HETATM    9  C17 UNL     1      30.252  46.909  47.903  1.00  0.00     0.180 C
HETATM   10  C16 UNL     1      30.939  48.240  48.078  1.00  0.00     0.196 C
BRANCH   9  11
HETATM   11  O3  UNL     1      31.171  45.914  48.237  1.00  0.00    -0.390 OA
ATOM     12  H3  UNL     1      30.830  45.056  48.012  1.00  0.00     0.210 HD
ENDBRANCH   9  11
BRANCH  10  13
HETATM   13  O2  UNL     1      32.059  48.216  47.298  1.00  0.00    -0.387 OA
ATOM     14  H2  UNL     1      32.022  47.677  46.516  1.00  0.00     0.210 HD
ENDBRANCH  10  13
ENDBRANCH   1   2
BRANCH   1  15
HETATM   15  N2  UNL     1      30.811  50.141  45.807  1.00  0.00    -0.068 N
ATOM     16  H23 UNL     1      30.370  50.623  45.024  1.00  0.00     0.275 HD
ATOM     17  H22 UNL     1      31.770  50.416  45.592  1.00  0.00     0.275 HD
ATOM     18  H21 UNL     1      30.664  49.132  45.802  1.00  0.00     0.275 HD
ENDBRANCH   1  15
BRANCH   1  19
HETATM   19  C6  UNL     1      31.420  51.382  47.857  1.00  0.00     0.157 C
BRANCH  19  20
HETATM   20  N3  UNL     1      30.787  52.653  48.267  1.00  0.00    -0.092 NA
BRANCH  20  21
HETATM   21  O1  UNL     1      30.948  52.793  49.577  1.00  0.00    -0.277 OA
BRANCH  21  22
HETATM   22  C7  UNL     1      30.829  54.080  50.042  1.00  0.00     0.312 C
BRANCH  22  23
HETATM   23  C8  UNL     1      32.232  54.703  50.021  1.00  0.00     0.410 C
HETATM   24  F1  UNL     1      32.341  55.617  51.074  1.00  0.00    -0.169 F
HETATM   25  F2  UNL     1      33.207  53.741  50.101  1.00  0.00    -0.169 F
HETATM   26  F3  UNL     1      32.425  55.412  48.857  1.00  0.00    -0.169 F
ENDBRANCH  22  23
ENDBRANCH  21  22
ENDBRANCH  20  21
ENDBRANCH  19  20
BRANCH  19  27
HETATM   27  C9  UNL     1      32.603  51.669  46.945  1.00  0.00     0.079 C
HETATM   28  C10 UNL     1      32.502  53.162  46.506  1.00  0.00     0.045 C
HETATM   29  C11 UNL     1      33.895  53.762  46.285  1.00  0.00    -0.029 C
HETATM   30  C12 UNL     1      34.867  53.846  47.342  1.00  0.00    -0.030 C
HETATM   31  C13 UNL     1      35.906  52.759  47.593  1.00  0.00     0.038 C
HETATM   32  C14 UNL     1      35.235  51.373  47.869  1.00  0.00     0.084 C
HETATM   33  C15 UNL     1      33.909  51.469  47.405  1.00  0.00    -0.176 C
ENDBRANCH  19  27
ENDBRANCH   1  19
TORSDOF 10
ENDMDL