MODEL 4
REMARK VINA RESULT: -7.280181771      3.122      4.767
REMARK  9 active torsions:
REMARK  status: ('A' for Active; 'I' for Inactive)
REMARK    1  A    between atoms: O1_1  and  C1_3
REMARK    2  A    between atoms: C1_3  and  C2_4
REMARK    3  A    between atoms: C3_6  and  C4_7
REMARK    4  A    between atoms: C7_11  and  O3_12
REMARK    5  A    between atoms: C8_14  and  C9_15
REMARK    6  A    between atoms: C9_15  and  C10_16
REMARK    7  A    between atoms: C15_26  and  C16_27
REMARK    8  A    between atoms: C16_27  and  O5_28
REMARK    9  A    between atoms: C17_30  and  O6_31
ROOT
HETATM    1  C4  UNL     1      30.472  51.106  46.848  1.00  0.00    -0.001 A
HETATM    2  C5  UNL     1      30.139  51.031  45.507  1.00  0.00     0.039 A
HETATM    3  C6  UNL     1      29.058  50.268  45.119  1.00  0.00     0.068 A
HETATM    4 CL1  UNL     1      28.651  50.185  43.427  1.00  0.00    -0.081 Cl
HETATM    5  C7  UNL     1      28.305  49.581  46.053  1.00  0.00     0.093 A
HETATM    6  C8  UNL     1      28.611  49.634  47.407  1.00  0.00    -0.022 A
HETATM    7  C14 UNL     1      29.700  50.407  47.752  1.00  0.00     0.022 A
ENDROOT
BRANCH   1   8
HETATM    8  C3  UNL     1      31.642  51.925  47.308  1.00  0.00     0.295 C
HETATM    9  O2  UNL     1      31.758  51.947  48.681  1.00  0.00    -0.347 OA
HETATM   10  C2  UNL     1      32.778  52.813  49.011  1.00  0.00     0.179 C
HETATM   11  C17 UNL     1      34.091  52.198  48.593  1.00  0.00     0.180 C
HETATM   12  C15 UNL     1      33.817  51.181  47.488  1.00  0.00     0.179 C
HETATM   13  O4  UNL     1      32.784  51.543  46.655  1.00  0.00    -0.347 OA
BRANCH  10  14
HETATM   14  C1  UNL     1      32.822  53.107  50.488  1.00  0.00     0.198 C
BRANCH  14  15
HETATM   15  O1  UNL     1      32.992  54.451  50.786  1.00  0.00    -0.398 OA
ATOM     16  H1  UNL     1      33.767  54.834  50.392  1.00  0.00     0.209 HD
ENDBRANCH  14  15
ENDBRANCH  10  14
BRANCH  11  17
HETATM   17  O6  UNL     1      34.626  51.483  49.646  1.00  0.00    -0.390 OA
ATOM     18  H6  UNL     1      35.436  51.067  49.372  1.00  0.00     0.210 HD
ENDBRANCH  11  17
BRANCH  12  19
HETATM   19  C16 UNL     1      35.087  51.052  46.678  1.00  0.00     0.198 C
BRANCH  19  20
HETATM   20  O5  UNL     1      36.100  50.464  47.451  1.00  0.00    -0.398 OA
ATOM     21  H5  UNL     1      36.354  49.628  47.081  1.00  0.00     0.209 HD
ENDBRANCH  19  20
ENDBRANCH  12  19
ENDBRANCH   1   8
BRANCH   6  22
HETATM   22  C9  UNL     1      27.790  48.886  48.394  1.00  0.00     0.052 C
BRANCH  22  23
HETATM   23  C10 UNL     1      28.551  47.794  49.087  1.00  0.00     0.075 C
HETATM   24  C11 UNL     1      27.667  46.871  49.934  1.00  0.00     0.096 C
HETATM   25  C12 UNL     1      28.565  45.730  49.440  1.00  0.00     0.308 C
HETATM   26  F1  UNL     1      29.754  45.697  50.136  1.00  0.00    -0.200 F
HETATM   27  F2  UNL     1      27.922  44.549  49.261  1.00  0.00    -0.200 F
HETATM   28  C13 UNL     1      28.749  46.577  48.174  1.00  0.00     0.311 C
HETATM   29  F3  UNL     1      27.649  46.386  47.354  1.00  0.00    -0.199 F
HETATM   30  F4  UNL     1      29.967  46.480  47.587  1.00  0.00    -0.199 F
ENDBRANCH  22  23
ENDBRANCH   6  22
BRANCH   5  31
HETATM   31  O3  UNL     1      27.233  48.829  45.632  1.00  0.00    -0.358 OA
ATOM     32  H3  UNL     1      27.212  48.508  44.738  1.00  0.00     0.217 HD
ENDBRANCH   5  31
TORSDOF 9
ENDMDL