MODEL 5
REMARK VINA RESULT: -6.779378502      2.076      2.625
REMARK  9 active torsions:
REMARK  status: ('A' for Active; 'I' for Inactive)
REMARK    1  A    between atoms: S1_2  and  C2_3
REMARK    2  A    between atoms: C5_6  and  C6_7
REMARK    3  A    between atoms: C6_7  and  C7_10
REMARK    4  A    between atoms: C7_10  and  C8_13
REMARK    5  A    between atoms: C9_15  and  C10_16
REMARK    6  A    between atoms: C10_16  and  O2_17
REMARK    7  A    between atoms: C11_19  and  O3_20
REMARK    8  A    between atoms: C12_22  and  O4_23
REMARK    9  A    between atoms: C13_25  and  O5_26
ROOT
HETATM    1  C8  UNL     1      32.931  50.993  49.057  1.00  0.00     0.198 C
HETATM    2  O1  UNL     1      33.901  50.722  48.127  1.00  0.00    -0.370 OA
HETATM    3  C9  UNL     1      35.078  51.394  48.229  1.00  0.00     0.177 C
HETATM    4  C11 UNL     1      35.014  52.876  48.316  1.00  0.00     0.180 C
HETATM    5  C12 UNL     1      33.865  53.323  49.154  1.00  0.00     0.180 C
HETATM    6  C13 UNL     1      33.090  52.246  49.827  1.00  0.00     0.181 C
ENDROOT
BRANCH   1   7
HETATM    7  C7  UNL     1      31.559  50.825  48.408  1.00  0.00     0.211 C
HETATM    8 CL1  UNL     1      31.771  51.414  46.695  1.00  0.00    -0.092 Cl
HETATM    9 CL2  UNL     1      30.339  51.918  49.080  1.00  0.00    -0.092 Cl
BRANCH   7  10
HETATM   10  C6  UNL     1      31.155  49.416  48.264  1.00  0.00     0.308 C
HETATM   11  F1  UNL     1      31.774  48.724  49.336  1.00  0.00    -0.197 F
HETATM   12  F2  UNL     1      31.835  48.906  47.145  1.00  0.00    -0.197 F
BRANCH  10  13
HETATM   13  C5  UNL     1      29.759  49.050  48.225  1.00  0.00     0.016 A
HETATM   14  C4  UNL     1      29.186  48.461  49.367  1.00  0.00     0.014 A
HETATM   15  C3  UNL     1      27.867  48.098  49.414  1.00  0.00     0.019 A
HETATM   16  C2  UNL     1      27.015  48.294  48.325  1.00  0.00    -0.000 A
HETATM   17  C15 UNL     1      27.559  48.866  47.204  1.00  0.00     0.019 A
HETATM   18  C14 UNL     1      28.913  49.231  47.176  1.00  0.00     0.014 A
BRANCH  16  19
HETATM   19  S1  UNL     1      25.291  47.835  48.417  1.00  0.00    -0.134 SA
HETATM   20  C1  UNL     1      24.841  47.611  50.154  1.00  0.00     0.095 C
ENDBRANCH  16  19
ENDBRANCH  10  13
ENDBRANCH   7  10
ENDBRANCH   1   7
BRANCH   6  21
HETATM   21  O5  UNL     1      33.618  51.977  51.094  1.00  0.00    -0.390 OA
ATOM     22  H5  UNL     1      33.907  52.781  51.510  1.00  0.00     0.210 HD
ENDBRANCH   6  21
BRANCH   3  23
HETATM   23  C10 UNL     1      35.867  51.056  46.948  1.00  0.00     0.198 C
BRANCH  23  24
HETATM   24  O2  UNL     1      35.054  50.998  45.836  1.00  0.00    -0.398 OA
ATOM     25  H2  UNL     1      35.550  50.884  45.034  1.00  0.00     0.209 HD
ENDBRANCH  23  24
ENDBRANCH   3  23
BRANCH   5  26
HETATM   26  O4  UNL     1      34.312  54.185  50.183  1.00  0.00    -0.390 OA
ATOM     27  H4  UNL     1      35.252  54.307  50.128  1.00  0.00     0.210 HD
ENDBRANCH   5  26
BRANCH   4  28
HETATM   28  O3  UNL     1      34.945  53.427  47.021  1.00  0.00    -0.390 OA
ATOM     29  H3  UNL     1      35.283  54.315  47.031  1.00  0.00     0.210 HD
ENDBRANCH   4  28
TORSDOF 9
ENDMDL