MODEL 2
REMARK VINA RESULT: -8.044353526      1.428      1.974
REMARK  8 active torsions:
REMARK  status: ('A' for Active; 'I' for Inactive)
REMARK    1  A    between atoms: O1_1  and  C1_3
REMARK    2  A    between atoms: C2_4  and  O2_5
REMARK    3  A    between atoms: C3_7  and  O3_8
REMARK    4  A    between atoms: N1_10  and  C4_11
REMARK    5  A    between atoms: C8_15  and  C9_16
REMARK    6  A    between atoms: C15_25  and  O4_26
REMARK    7  A    between atoms: O4_26  and  C16_27
REMARK    8  A    between atoms: C19_32  and  O5_33
ROOT
HETATM    1  C1  UNL     1      29.960  49.002  49.150  1.00  0.00     0.185 C
HETATM    2  C2  UNL     1      30.261  47.564  49.494  1.00  0.00     0.198 C
HETATM    3  C3  UNL     1      29.998  46.611  48.389  1.00  0.00     0.256 C
HETATM    4  N1  UNL     1      28.847  47.095  47.505  1.00  0.00    -0.318 N
HETATM    5  C11 UNL     1      28.798  48.422  47.104  1.00  0.00     0.056 C
HETATM    6  C12 UNL     1      28.365  48.915  45.815  1.00  0.00    -0.011 A
HETATM    7  C13 UNL     1      27.167  48.640  45.234  1.00  0.00     0.016 A
HETATM    8  C14 UNL     1      26.788  49.224  44.014  1.00  0.00     0.038 A
HETATM    9  C15 UNL     1      27.601  50.103  43.348  1.00  0.00     0.074 A
HETATM   10  C17 UNL     1      28.828  50.375  43.946  1.00  0.00     0.038 A
HETATM   11  C18 UNL     1      29.202  49.813  45.125  1.00  0.00     0.016 A
HETATM   12  C19 UNL     1      29.990  49.215  47.638  1.00  0.00     0.200 C
ENDROOT
BRANCH   4  13
HETATM   13  C4  UNL     1      27.963  46.017  47.320  1.00  0.00     0.038 A
HETATM   14  C5  UNL     1      27.757  45.485  46.091  1.00  0.00     0.030 A
HETATM   15  C6  UNL     1      26.755  44.572  45.851  1.00  0.00     0.003 A
HETATM   16  C7  UNL     1      25.908  44.148  46.889  1.00  0.00     0.016 A
HETATM   17  C8  UNL     1      26.120  44.682  48.126  1.00  0.00     0.050 A
HETATM   18  C10 UNL     1      27.129  45.596  48.348  1.00  0.00     0.046 A
BRANCH  17  19
HETATM   19  C9  UNL     1      25.220  44.325  49.262  1.00  0.00     0.417 C
HETATM   20  F1  UNL     1      25.283  45.362  50.147  1.00  0.00    -0.166 F
HETATM   21  F2  UNL     1      23.913  44.109  48.783  1.00  0.00    -0.166 F
HETATM   22  F3  UNL     1      25.605  43.158  49.864  1.00  0.00    -0.166 F
ENDBRANCH  17  19
ENDBRANCH   4  13
BRANCH   3  23
HETATM   23  O3  UNL     1      31.065  46.172  47.676  1.00  0.00    -0.374 OA
ATOM     24  H3  UNL     1      31.891  46.623  47.802  1.00  0.00     0.212 HD
ENDBRANCH   3  23
BRANCH   2  25
HETATM   25  O2  UNL     1      29.497  47.268  50.615  1.00  0.00    -0.388 OA
ATOM     26  H2  UNL     1      28.591  47.301  50.333  1.00  0.00     0.210 HD
ENDBRANCH   2  25
BRANCH  12  27
HETATM   27  O5  UNL     1      31.202  48.912  47.205  1.00  0.00    -0.387 OA
ATOM     28  H5  UNL     1      31.686  48.531  47.928  1.00  0.00     0.210 HD
ENDBRANCH  12  27
BRANCH   1  29
HETATM   29  O1  UNL     1      30.996  49.786  49.675  1.00  0.00    -0.390 OA
ATOM     30  H1  UNL     1      31.764  49.644  49.134  1.00  0.00     0.210 HD
ENDBRANCH   1  29
BRANCH   9  31
HETATM   31  O4  UNL     1      27.352  50.741  42.200  1.00  0.00    -0.290 OA
BRANCH  31  32
HETATM   32  C16 UNL     1      27.897  50.820  40.967  1.00  0.00     0.505 C
HETATM   33  F4  UNL     1      28.259  52.134  40.627  1.00  0.00    -0.184 F
HETATM   34  F5  UNL     1      29.067  50.087  40.877  1.00  0.00    -0.184 F
ENDBRANCH  31  32
ENDBRANCH   9  31
TORSDOF 8
ENDMDL