MODEL 5
REMARK VINA RESULT: -3.951704672      2.790      4.328
REMARK  1 active torsions:
REMARK  status: ('A' for Active; 'I' for Inactive)
REMARK       I    between atoms: C2_2  and  N1_4
REMARK    1  A    between atoms: N1_4  and  C3_5
ROOT
HETATM    1  C3  UNL     1      22.050  14.723  59.331  1.00  0.00     0.175 A
HETATM    2  C4  UNL     1      21.889  13.381  58.475  1.00  0.00     0.029 A
HETATM    3  C5  UNL     1      22.252  12.099  59.263  1.00  0.00     0.016 A
HETATM    4  C6  UNL     1      22.729  13.429  59.605  1.00  0.00     0.029 A
ENDROOT
BRANCH   1   5
HETATM    5  N1  UNL     1      22.582  15.749  58.617  1.00  0.00    -0.409 NA
HETATM    6  C2  UNL     1      23.111  16.767  57.908  1.00  0.00     0.282 C
HETATM    7  C1  UNL     1      24.591  16.735  57.487  1.00  0.00     0.134 C
HETATM    8  O1  UNL     1      22.580  17.858  57.478  1.00  0.00    -0.258 OA
ENDBRANCH   1   5
TORSDOF 1
ENDMDL