MODEL 4
REMARK VINA RESULT: -3.722835554      1.334      2.407
REMARK  1 active torsions:
REMARK  status: ('A' for Active; 'I' for Inactive)
REMARK    1  A    between atoms: C3_3  and  N2_7
ROOT
HETATM    1  C1  UNL     1      23.778  16.691  58.134  1.00  0.00     0.106 C
HETATM    2  C2  UNL     1      23.990  15.491  58.033  1.00  0.00    -0.106 C
HETATM    3  C3  UNL     1      24.242  14.088  57.941  1.00  0.00     0.242 C
HETATM    4  N1  UNL     1      25.375  13.680  57.506  1.00  0.00    -0.373 N
ATOM      5  H11 UNL     1      25.555  12.678  57.440  1.00  0.00     0.158 HD
ATOM      6  H12 UNL     1      26.109  14.328  57.221  1.00  0.00     0.158 HD
ENDROOT
BRANCH   3   7
HETATM    7  N2  UNL     1      23.223  13.188  58.337  1.00  0.00    -0.027 N
HETATM    8  C4  UNL     1      21.973  13.856  58.597  1.00  0.00     0.281 C
HETATM    9  C5  UNL     1      23.678  12.515  59.533  1.00  0.00     0.281 C
HETATM   10  C6  UNL     1      23.002  12.224  57.257  1.00  0.00     0.281 C
ENDBRANCH   3   7
TORSDOF 1
ENDMDL