MODEL 1
REMARK VINA RESULT: -4.182193893      0.000      0.000
REMARK  1 active torsions:
REMARK  status: ('A' for Active; 'I' for Inactive)
REMARK    1  A    between atoms: C1_2  and  C2_4
ROOT
HETATM    1  C2  UNL     1      22.987  15.037  58.134  1.00  0.00     0.083 C
HETATM    2  C3  UNL     1      22.976  13.956  59.173  1.00  0.00    -0.001 C
HETATM    3  C4  UNL     1      24.458  14.113  59.235  1.00  0.00     0.011 C
HETATM    4  C5  UNL     1      24.151  14.214  57.762  1.00  0.00    -0.001 C
HETATM    5  C6  UNL     1      23.247  13.022  58.014  1.00  0.00     0.011 C
ENDROOT
BRANCH   1   6
HETATM    6  C1  UNL     1      23.165  16.415  58.570  1.00  0.00     0.236 C
HETATM    7  N1  UNL     1      23.981  17.261  57.747  1.00  0.00    -0.062 NA
HETATM    8  O1  UNL     1      22.680  16.953  59.595  1.00  0.00    -0.276 OA
ENDBRANCH   1   6
TORSDOF 1
ENDMDL