MODEL 4
REMARK VINA RESULT: -5.318533794      2.419      2.835
REMARK  2 active torsions:
REMARK  status: ('A' for Active; 'I' for Inactive)
REMARK    1  A    between atoms: N1_1  and  N2_4
REMARK       I    between atoms: N3_6  and  C1_8
REMARK    2  A    between atoms: C1_8  and  C2_10
ROOT
HETATM    1  N2  UNL     1      25.977  17.133  56.929  1.00  0.00    -0.247 N
ATOM      2  H2  UNL     1      26.052  18.082  57.295  1.00  0.00     0.207 HD
HETATM    3  N3  UNL     1      25.282  16.558  57.769  1.00  0.00    -0.256 N
ATOM      4  H3  UNL     1      25.698  15.935  58.461  1.00  0.00     0.191 HD
HETATM    5  C1  UNL     1      23.886  16.795  57.739  1.00  0.00     0.241 C
HETATM    6  O1  UNL     1      23.481  17.933  57.417  1.00  0.00    -0.271 OA
ENDROOT
BRANCH   1   7
HETATM    7  N1  UNL     1      26.640  17.180  55.872  1.00  0.00    -0.331 N
ATOM      8  H12 UNL     1      26.323  16.329  55.407  1.00  0.00     0.178 HD
ATOM      9  H11 UNL     1      27.315  17.607  55.237  1.00  0.00     0.178 HD
ENDBRANCH   1   7
BRANCH   5  10
HETATM   10  C2  UNL     1      22.887  15.751  58.073  1.00  0.00     0.080 A
HETATM   11  C3  UNL     1      23.192  14.748  59.128  1.00  0.00     0.015 A
HETATM   12  C4  UNL     1      22.331  15.901  59.485  1.00  0.00     0.015 A
ENDBRANCH   5  10
TORSDOF 2
ENDMDL