MODEL 1
REMARK VINA RESULT: -4.963833686      0.000      0.000
REMARK  0 active torsions:
REMARK  status: ('A' for Active; 'I' for Inactive)
REMARK       I    between atoms: C1_4  and  N3_6
ROOT
HETATM    1  N1  UNL     1      25.692  16.974  57.757  1.00  0.00    -0.374 N
ATOM      2  H11 UNL     1      26.343  16.253  58.069  1.00  0.00     0.158 HD
ATOM      3  H12 UNL     1      26.038  17.864  57.398  1.00  0.00     0.158 HD
HETATM    4  C1  UNL     1      24.424  16.731  57.827  1.00  0.00     0.183 C
HETATM    5  N2  UNL     1      23.524  17.729  57.396  1.00  0.00    -0.064 NA
HETATM    6  N3  UNL     1      23.942  15.489  58.328  1.00  0.00    -0.356 N
HETATM    7  C2  UNL     1      22.832  15.297  59.241  1.00  0.00     0.125 C
HETATM    8  C3  UNL     1      22.097  14.093  58.670  1.00  0.00     0.021 C
HETATM    9  C4  UNL     1      23.144  13.365  57.868  1.00  0.00     0.021 C
HETATM   10  C5  UNL     1      24.439  14.160  58.044  1.00  0.00     0.125 C
ENDROOT
TORSDOF 0
ENDMDL