MODEL 1
REMARK VINA RESULT: -4.172629819      0.000      0.000
REMARK  3 active torsions:
REMARK  status: ('A' for Active; 'I' for Inactive)
REMARK    1  A    between atoms: C3_3  and  C4_4
REMARK    2  A    between atoms: C5_5  and  C6_6
REMARK    3  A    between atoms: C7_7  and  N1_8
ROOT
HETATM    1  C1  UNL     1      26.660  10.717  60.399  1.00  0.00     0.113 C
HETATM    2  C2  UNL     1      25.659  11.723  59.975  1.00  0.00    -0.097 C
HETATM    3  C3  UNL     1      24.850  12.554  59.637  1.00  0.00    -0.015 C
ENDROOT
BRANCH   3   4
HETATM    4  C4  UNL     1      23.919  13.544  59.245  1.00  0.00    -0.010 C
HETATM    5  C5  UNL     1      23.128  14.395  58.908  1.00  0.00    -0.063 C
BRANCH   5   6
HETATM    6  C6  UNL     1      22.197  15.406  58.492  1.00  0.00     0.082 C
HETATM    7  C7  UNL     1      22.550  16.657  58.242  1.00  0.00     0.091 C
BRANCH   7   8
HETATM    8  N1  UNL     1      23.905  17.048  58.381  1.00  0.00    -0.403 N
HETATM    9  C8  UNL     1      24.693  17.234  57.184  1.00  0.00     0.145 C
ATOM     10  H1  UNL     1      24.314  17.194  59.304  1.00  0.00     0.158 HD
ENDBRANCH   7   8
ENDBRANCH   5   6
ENDBRANCH   3   4
TORSDOF 3
ENDMDL