MODEL 3
REMARK VINA RESULT: -3.715792122      1.110      1.212
REMARK  1 active torsions:
REMARK  status: ('A' for Active; 'I' for Inactive)
REMARK    1  A    between atoms: C2_2  and  N1_4
ROOT
HETATM    1  N1  UNL     1      23.618  14.101  58.271  1.00  0.00     0.042 N
HETATM    2  O1  UNL     1      24.560  14.402  57.333  1.00  0.00    -0.059 OA
HETATM    3  C4  UNL     1      22.779  12.973  57.922  1.00  0.00     0.321 C
HETATM    4  C5  UNL     1      23.662  12.074  58.770  1.00  0.00     0.074 C
HETATM    5  C6  UNL     1      24.175  13.374  59.400  1.00  0.00     0.321 C
ENDROOT
BRANCH   1   6
HETATM    6  C2  UNL     1      22.890  15.268  58.596  1.00  0.00     0.162 C
HETATM    7  C1  UNL     1      23.488  16.432  58.562  1.00  0.00     0.055 C
HETATM    8  C3  UNL     1      21.470  15.163  58.968  1.00  0.00     0.085 C
ENDBRANCH   1   6
TORSDOF 1
ENDMDL