MODEL 5
REMARK VINA RESULT: -3.378943169      1.154      3.069
REMARK  1 active torsions:
REMARK  status: ('A' for Active; 'I' for Inactive)
REMARK    1  A    between atoms: C2_2  and  N1_3
ROOT
HETATM    1  N1  UNL     1      23.015  13.456  58.755  1.00  0.00    -0.026 N
HETATM    2  C3  UNL     1      22.268  12.716  59.744  1.00  0.00     0.280 C
HETATM    3  C4  UNL     1      24.382  13.685  59.136  1.00  0.00     0.272 C
HETATM    4  C5  UNL     1      25.243  12.963  58.121  1.00  0.00     0.262 C
HETATM    5  N2  UNL     1      24.334  12.253  57.263  1.00  0.00    -0.049 N
ATOM      6  H21 UNL     1      24.428  11.241  57.345  1.00  0.00     0.279 HD
ATOM      7  H22 UNL     1      24.581  12.338  56.277  1.00  0.00     0.279 HD
HETATM    8  C6  UNL     1      23.006  12.704  57.535  1.00  0.00     0.473 C
ENDROOT
BRANCH   1   9
HETATM    9  C2  UNL     1      22.360  14.719  58.583  1.00  0.00     0.194 C
HETATM   10  C1  UNL     1      23.017  15.831  58.919  1.00  0.00     0.038 C
ENDBRANCH   1   9
TORSDOF 1
ENDMDL