MODEL 1
REMARK VINA RESULT: -3.145048484      0.000      0.000
REMARK  0 active torsions:
REMARK  status: ('A' for Active; 'I' for Inactive)
ROOT
HETATM    1  C1  UNL     1      24.168  16.377  57.617  1.00  0.00     0.013 C
HETATM    2  C2  UNL     1      23.661  15.663  58.842  1.00  0.00     0.034 C
HETATM    3  C3  UNL     1      22.426  14.872  58.512  1.00  0.00     0.242 C
HETATM    4  N1  UNL     1      23.138  13.640  58.666  1.00  0.00    -0.074 N
HETATM    5  C4  UNL     1      22.460  12.776  59.608  1.00  0.00     0.272 C
HETATM    6  C5  UNL     1      23.460  12.922  57.458  1.00  0.00     0.272 C
HETATM    7  C6  UNL     1      24.281  14.349  59.160  1.00  0.00     0.242 C
ENDROOT
TORSDOF 0
ENDMDL