MODEL 3
REMARK VINA RESULT: -3.972467844      2.661      5.051
REMARK  5 active torsions:
REMARK  status: ('A' for Active; 'I' for Inactive)
REMARK    1  A    between atoms: C3_3  and  C4_4
REMARK    2  A    between atoms: C4_4  and  C5_5
REMARK    3  A    between atoms: C5_5  and  C6_6
REMARK    4  A    between atoms: C6_6  and  O1_7
REMARK    5  A    between atoms: O1_7  and  C7_8
ROOT
HETATM    1  C1  UNL     1      26.292  12.071  59.213  1.00  0.00     0.112 C
HETATM    2  C2  UNL     1      24.866  12.355  59.384  1.00  0.00    -0.110 C
HETATM    3  C3  UNL     1      23.678  12.613  59.533  1.00  0.00    -0.096 C
ENDROOT
BRANCH   3   4
HETATM    4  C4  UNL     1      22.309  12.886  59.719  1.00  0.00     0.175 C
BRANCH   4   5
HETATM    5  C5  UNL     1      21.901  14.092  59.413  1.00  0.00    -0.145 C
BRANCH   5   6
HETATM    6  C6  UNL     1      21.371  15.255  59.083  1.00  0.00     0.248 C
BRANCH   6   7
HETATM    7  O1  UNL     1      22.083  15.985  58.186  1.00  0.00    -0.375 OA
BRANCH   7   8
HETATM    8  C7  UNL     1      23.368  16.488  58.437  1.00  0.00     0.122 A
HETATM    9  C8  UNL     1      24.090  17.280  57.404  1.00  0.00     0.034 A
HETATM   10  C9  UNL     1      24.552  15.884  57.768  1.00  0.00     0.034 A
ENDBRANCH   7   8
ENDBRANCH   6   7
ENDBRANCH   5   6
ENDBRANCH   4   5
ENDBRANCH   3   4
TORSDOF 5
ENDMDL