MODEL 3
REMARK VINA RESULT: -4.398514172      1.190      1.803
REMARK  2 active torsions:
REMARK  status: ('A' for Active; 'I' for Inactive)
REMARK    1  A    between atoms: N1_2  and  C2_5
REMARK    2  A    between atoms: C2_5  and  C3_6
ROOT
HETATM    1  C3  UNL     1      23.425  14.660  58.963  1.00  0.00     0.242 A
HETATM    2  C4  UNL     1      21.959  14.815  58.622  1.00  0.00     0.273 A
HETATM    3  N2  UNL     1      22.597  13.532  58.752  1.00  0.00    -0.058 N
HETATM    4  C5  UNL     1      22.756  12.666  57.633  1.00  0.00     0.238 C
HETATM    5  C6  UNL     1      21.470  11.846  57.676  1.00  0.00     0.029 C
HETATM    6  C7  UNL     1      21.000  11.920  59.111  1.00  0.00     0.029 C
HETATM    7  C8  UNL     1      22.104  12.717  59.820  1.00  0.00     0.238 C
ENDROOT
BRANCH   1   8
HETATM    8  C2  UNL     1      24.359  15.155  57.909  1.00  0.00     0.267 C
BRANCH   8   9
HETATM    9  N1  UNL     1      24.983  16.422  58.317  1.00  0.00    -0.077 N
HETATM   10  C1  UNL     1      24.654  17.370  57.252  1.00  0.00     0.267 C
ATOM     11  H12 UNL     1      25.982  16.346  58.508  1.00  0.00     0.276 HD
ATOM     12  H11 UNL     1      24.708  16.736  59.248  1.00  0.00     0.276 HD
ENDBRANCH   8   9
ENDBRANCH   1   8
TORSDOF 2
ENDMDL