MODEL 2
REMARK VINA RESULT: -4.371079780      1.920      3.745
REMARK  3 active torsions:
REMARK  status: ('A' for Active; 'I' for Inactive)
REMARK    1  A    between atoms: C2_2  and  N1_3
REMARK    2  A    between atoms: N1_3  and  C3_4
REMARK    3  A    between atoms: N1_3  and  C4_6
ROOT
HETATM    1  C4  UNL     1      23.348  15.136  59.229  1.00  0.00     0.065 C
HETATM    2  C5  UNL     1      22.075  15.401  58.415  1.00  0.00     0.020 C
HETATM    3  C6  UNL     1      22.331  16.870  58.055  1.00  0.00     0.002 C
HETATM    4  C7  UNL     1      23.793  16.838  57.677  1.00  0.00     0.002 C
HETATM    5  C8  UNL     1      24.404  15.624  58.313  1.00  0.00     0.020 C
ENDROOT
BRANCH   1   6
HETATM    6  N1  UNL     1      23.456  13.783  59.654  1.00  0.00    -0.257 NA
BRANCH   6   7
HETATM    7  C2  UNL     1      24.650  13.221  59.112  1.00  0.00     0.093 C
HETATM    8  C1  UNL     1      25.345  12.259  60.045  1.00  0.00     0.021 C
ENDBRANCH   6   7
BRANCH   6   9
HETATM    9  C3  UNL     1      22.309  13.006  59.493  1.00  0.00     0.324 C
HETATM   10  O1  UNL     1      21.627  12.563  60.407  1.00  0.00    -0.289 OA
ENDBRANCH   6   9
ENDBRANCH   1   6
TORSDOF 3
ENDMDL