MODEL 3
REMARK VINA RESULT: -3.983457854      0.729      1.359
REMARK  3 active torsions:
REMARK  status: ('A' for Active; 'I' for Inactive)
REMARK    1  A    between atoms: C3_3  and  C4_4
REMARK    2  A    between atoms: C4_4  and  N1_5
REMARK    3  A    between atoms: C5_7  and  C6_8
ROOT
HETATM    1  N1  UNL     1      21.213  13.931  58.761  1.00  0.00    -0.398 N
ATOM      2  H1  UNL     1      20.284  13.557  58.951  1.00  0.00     0.158 HD
HETATM    3  C5  UNL     1      22.151  13.179  58.322  1.00  0.00     0.059 C
ENDROOT
BRANCH   1   4
HETATM    4  C4  UNL     1      21.512  15.319  58.978  1.00  0.00     0.145 C
BRANCH   4   5
HETATM    5  C3  UNL     1      22.836  15.663  58.423  1.00  0.00    -0.012 C
HETATM    6  C2  UNL     1      23.025  16.864  57.904  1.00  0.00    -0.033 C
HETATM    7  C1  UNL     1      24.345  17.251  57.335  1.00  0.00     0.036 C
ENDBRANCH   4   5
ENDBRANCH   1   4
BRANCH   3   8
HETATM    8  C6  UNL     1      21.864  11.750  58.092  1.00  0.00     0.015 C
HETATM    9  C7  UNL     1      20.393  11.505  58.440  1.00  0.00     0.015 C
HETATM   10  C8  UNL     1      22.071  11.321  56.663  1.00  0.00     0.015 C
ENDBRANCH   3   8
TORSDOF 3
ENDMDL