MODEL 1
REMARK VINA RESULT: -4.399906193      0.000      0.000
REMARK  3 active torsions:
REMARK  status: ('A' for Active; 'I' for Inactive)
REMARK    1  A    between atoms: C2_2  and  C3_3
REMARK    2  A    between atoms: C3_3  and  N1_4
REMARK    3  A    between atoms: C4_6  and  N2_7
ROOT
HETATM    1  N1  UNL     1      20.839  12.780  58.851  1.00  0.00    -0.383 N
ATOM      2  H1  UNL     1      20.203  13.523  59.141  1.00  0.00     0.160 HD
HETATM    3  C4  UNL     1      22.095  13.064  58.659  1.00  0.00     0.174 C
ENDROOT
BRANCH   3   4
HETATM    4  N2  UNL     1      22.602  14.360  58.842  1.00  0.00    -0.377 N
HETATM    5  C5  UNL     1      23.957  14.783  58.659  1.00  0.00     0.123 C
HETATM    6  C6  UNL     1      23.784  16.129  57.977  1.00  0.00     0.021 C
HETATM    7  C7  UNL     1      22.338  16.522  58.191  1.00  0.00     0.021 C
HETATM    8  C8  UNL     1      21.884  15.532  59.248  1.00  0.00     0.123 C
ENDBRANCH   3   4
BRANCH   1   9
HETATM    9  C3  UNL     1      20.319  11.444  58.662  1.00  0.00     0.147 C
BRANCH   9  10
HETATM   10  C2  UNL     1      20.192  11.099  57.210  1.00  0.00    -0.018 C
HETATM   11  C1  UNL     1      19.052  10.629  56.747  1.00  0.00     0.008 C
ENDBRANCH   9  10
ENDBRANCH   1   9
TORSDOF 3
ENDMDL