MODEL 3
REMARK VINA RESULT: -4.009442012      0.442      1.397
REMARK  4 active torsions:
REMARK  status: ('A' for Active; 'I' for Inactive)
REMARK    1  A    between atoms: C2_2  and  O1_3
REMARK    2  A    between atoms: C2_2  and  C3_5
REMARK    3  A    between atoms: C3_5  and  C4_6
REMARK    4  A    between atoms: C3_5  and  N1_8
ROOT
HETATM    1  C3  UNL     1      22.316  13.339  58.031  1.00  0.00     0.244 C
ENDROOT
BRANCH   1   2
HETATM    2  C2  UNL     1      21.482  12.613  59.059  1.00  0.00     0.065 C
HETATM    3  C1  UNL     1      22.068  11.915  60.001  1.00  0.00     0.048 C
BRANCH   2   4
HETATM    4  O1  UNL     1      20.101  12.670  59.029  1.00  0.00    -0.364 OA
ATOM      5  H1  UNL     1      19.611  11.862  58.928  1.00  0.00     0.217 HD
ENDBRANCH   2   4
ENDBRANCH   1   2
BRANCH   1   6
HETATM    6  C4  UNL     1      23.290  12.343  57.493  1.00  0.00     0.036 C
HETATM    7  C5  UNL     1      22.708  11.439  56.438  1.00  0.00     0.007 C
ENDBRANCH   1   6
BRANCH   1   8
HETATM    8  N1  UNL     1      22.929  14.451  58.696  1.00  0.00    -0.058 N
HETATM    9  C6  UNL     1      22.066  15.266  59.527  1.00  0.00     0.273 C
HETATM   10  C7  UNL     1      24.292  14.266  59.162  1.00  0.00     0.266 A
HETATM   11  C8  UNL     1      23.956  15.212  58.026  1.00  0.00     0.266 A
ENDBRANCH   1   8
TORSDOF 4
ENDMDL