MODEL 2
REMARK VINA RESULT: -4.773165607      1.480      1.902
REMARK  2 active torsions:
REMARK  status: ('A' for Active; 'I' for Inactive)
REMARK    1  A    between atoms: C2_2  and  C3_3
REMARK    2  A    between atoms: C6_6  and  C7_7
ROOT
HETATM    1  C3  UNL     1      22.773  13.910  59.396  1.00  0.00     0.017 A
HETATM    2  C4  UNL     1      21.890  15.059  59.172  1.00  0.00    -0.000 A
HETATM    3  C5  UNL     1      22.412  16.415  59.532  1.00  0.00     0.020 A
HETATM    4  C6  UNL     1      23.625  16.176  58.661  1.00  0.00     0.080 A
HETATM    5  C8  UNL     1      23.019  14.851  58.263  1.00  0.00     0.011 A
ENDROOT
BRANCH   4   6
HETATM    6  C7  UNL     1      23.825  17.145  57.592  1.00  0.00     0.235 C
HETATM    7  N1  UNL     1      25.057  17.201  56.903  1.00  0.00    -0.062 NA
HETATM    8  O1  UNL     1      22.923  17.944  57.260  1.00  0.00    -0.276 OA
ENDBRANCH   4   6
BRANCH   1   9
HETATM    9  C2  UNL     1      22.206  12.565  59.153  1.00  0.00    -0.031 C
HETATM   10  C1  UNL     1      21.769  11.773  60.104  1.00  0.00     0.007 C
ENDBRANCH   1   9
TORSDOF 2
ENDMDL