MODEL 4
REMARK VINA RESULT: -5.084918719      1.356      2.212
REMARK  2 active torsions:
REMARK  status: ('A' for Active; 'I' for Inactive)
REMARK    1  A    between atoms: C2_2  and  C3_10
REMARK    2  A    between atoms: N1_3  and  N2_5
ROOT
HETATM    1  C1  UNL     1      21.593  15.330  59.460  1.00  0.00     0.065 C
HETATM    2  C2  UNL     1      22.650  15.748  58.466  1.00  0.00     0.005 C
HETATM    3  N1  UNL     1      22.635  16.972  58.137  1.00  0.00    -0.295 N
ATOM      4  H1  UNL     1      21.911  17.537  58.579  1.00  0.00     0.187 HD
ENDROOT
BRANCH   3   5
HETATM    5  N2  UNL     1      23.458  17.640  57.268  1.00  0.00    -0.249 N
HETATM    6  N3  UNL     1      24.580  18.078  57.647  1.00  0.00    -0.331 N
ATOM      7  H32 UNL     1      24.863  17.924  58.615  1.00  0.00     0.178 HD
ATOM      8  H31 UNL     1      25.193  18.575  57.000  1.00  0.00     0.178 HD
ATOM      9  H2  UNL     1      23.161  17.785  56.303  1.00  0.00     0.207 HD
ENDBRANCH   3   5
BRANCH   2  10
HETATM   10  C3  UNL     1      23.558  14.701  58.008  1.00  0.00     0.032 C
HETATM   11  C4  UNL     1      24.463  14.206  59.148  1.00  0.00     0.010 C
HETATM   12  C5  UNL     1      24.419  12.848  58.433  1.00  0.00     0.001 C
HETATM   13  C6  UNL     1      23.025  13.287  57.952  1.00  0.00     0.010 C
ENDBRANCH   2  10
TORSDOF 2
ENDMDL