MODEL 2
REMARK VINA RESULT: -5.428306333      1.301      2.295
REMARK  2 active torsions:
REMARK  status: ('A' for Active; 'I' for Inactive)
REMARK    1  A    between atoms: C5_5  and  C6_6
REMARK    2  A    between atoms: N1_7  and  N2_9
ROOT
HETATM    1  C6  UNL     1      22.506  16.925  57.784  1.00  0.00     0.086 C
HETATM    2  N1  UNL     1      23.358  17.787  57.362  1.00  0.00    -0.301 N
ATOM      3  H1  UNL     1      23.046  18.519  56.723  1.00  0.00     0.187 HD
ENDROOT
BRANCH   1   4
HETATM    4  C5  UNL     1      22.927  15.873  58.693  1.00  0.00     0.026 C
HETATM    5  C4  UNL     1      23.652  14.730  57.995  1.00  0.00     0.010 C
HETATM    6  C3  UNL     1      23.814  13.793  59.180  1.00  0.00     0.005 C
HETATM    7  C2  UNL     1      22.448  13.858  59.816  1.00  0.00    -0.018 C
HETATM    8  C1  UNL     1      21.659  12.618  59.457  1.00  0.00     0.010 C
HETATM    9  C7  UNL     1      21.776  15.102  59.307  1.00  0.00     0.014 C
ENDBRANCH   1   4
BRANCH   2  10
HETATM   10  N2  UNL     1      24.702  17.755  57.749  1.00  0.00    -0.250 N
HETATM   11  N3  UNL     1      25.578  17.420  56.888  1.00  0.00    -0.331 N
ATOM     12  H32 UNL     1      25.289  17.183  55.939  1.00  0.00     0.178 HD
ATOM     13  H31 UNL     1      26.558  17.396  57.170  1.00  0.00     0.178 HD
ATOM     14  H2  UNL     1      24.975  17.995  58.702  1.00  0.00     0.207 HD
ENDBRANCH   2  10
TORSDOF 2
ENDMDL