MODEL 1
REMARK VINA RESULT: -3.905359019      0.000      0.000
REMARK  2 active torsions:
REMARK  status: ('A' for Active; 'I' for Inactive)
REMARK    1  A    between atoms: C2_2  and  C3_3
REMARK    2  A    between atoms: C7_7  and  N1_8
ROOT
HETATM    1  C3  UNL     1      94.480  78.208 -16.970  1.00  0.00     0.039 C
HETATM    2  C4  UNL     1      93.071  77.820 -16.514  1.00  0.00     0.017 C
HETATM    3  C5  UNL     1      93.561  78.053 -15.100  1.00  0.00     0.013 C
HETATM    4  C6  UNL     1      92.511  78.676 -14.260  1.00  0.00     0.012 C
HETATM    5  C7  UNL     1      94.650  78.921 -15.635  1.00  0.00     0.196 C
ENDROOT
BRANCH   5   6
HETATM    6  N1  UNL     1      94.407  80.314 -15.761  1.00  0.00    -0.074 N
HETATM    7  C8  UNL     1      95.216  81.112 -14.867  1.00  0.00     0.267 C
ATOM      8  H12 UNL     1      94.525  80.618 -16.728  1.00  0.00     0.277 HD
ATOM      9  H11 UNL     1      93.416  80.523 -15.640  1.00  0.00     0.277 HD
ENDBRANCH   5   6
BRANCH   1  10
HETATM   10  C2  UNL     1      94.412  79.079 -18.157  1.00  0.00    -0.030 C
HETATM   11  C1  UNL     1      93.393  79.020 -18.989  1.00  0.00     0.007 C
ENDBRANCH   1  10
TORSDOF 2
ENDMDL