MODEL 3
REMARK VINA RESULT: -3.917901838      1.461      1.780
REMARK  1 active torsions:
REMARK  status: ('A' for Active; 'I' for Inactive)
REMARK    1  A    between atoms: C2_2  and  C3_3
ROOT
HETATM    1  C3  UNL     1      92.946  78.513 -15.024  1.00  0.00     0.238 A
HETATM    2  C4  UNL     1      94.122  77.569 -15.279  1.00  0.00     0.275 A
HETATM    3  N1  UNL     1      93.676  78.535 -16.234  1.00  0.00    -0.056 N
HETATM    4  C5  UNL     1      93.007  77.981 -17.390  1.00  0.00     0.238 C
HETATM    5  C6  UNL     1      93.861  78.322 -18.593  1.00  0.00     0.030 C
HETATM    6  C7  UNL     1      94.706  79.468 -18.130  1.00  0.00     0.030 C
HETATM    7  C8  UNL     1      94.479  79.626 -16.657  1.00  0.00     0.238 C
ENDROOT
BRANCH   1   8
HETATM    8  C2  UNL     1      93.200  79.435 -13.908  1.00  0.00    -0.002 C
HETATM    9  C1  UNL     1      92.241  79.605 -13.000  1.00  0.00     0.009 C
ENDBRANCH   1   8
TORSDOF 1
ENDMDL