MODEL 4
REMARK VINA RESULT: -3.741828606      2.279      3.959
REMARK  3 active torsions:
REMARK  status: ('A' for Active; 'I' for Inactive)
REMARK    1  A    between atoms: C3_3  and  C4_4
REMARK    2  A    between atoms: C4_4  and  N1_6
REMARK    3  A    between atoms: N1_6  and  C6_9
ROOT
HETATM    1  C1  UNL     1      95.167  80.887 -14.904  1.00  0.00     0.112 C
HETATM    2  C2  UNL     1      94.397  79.789 -15.507  1.00  0.00    -0.109 C
HETATM    3  C3  UNL     1      93.751  78.900 -16.018  1.00  0.00    -0.074 C
ENDROOT
BRANCH   3   4
HETATM    4  C4  UNL     1      92.956  77.841 -16.651  1.00  0.00     0.260 C
HETATM    5  C5  UNL     1      93.217  76.493 -16.032  1.00  0.00     0.054 C
BRANCH   4   6
HETATM    6  N1  UNL     1      93.253  77.870 -18.060  1.00  0.00    -0.057 N
ATOM      7  H12 UNL     1      92.451  77.633 -18.644  1.00  0.00     0.279 HD
ATOM      8  H11 UNL     1      93.400  78.814 -18.420  1.00  0.00     0.279 HD
BRANCH   6   9
HETATM    9  C6  UNL     1      94.405  76.984 -18.273  1.00  0.00     0.187 A
HETATM   10  C7  UNL     1      95.641  77.495 -18.874  1.00  0.00     0.035 A
HETATM   11  C8  UNL     1      94.703  76.682 -19.701  1.00  0.00     0.035 A
ENDBRANCH   6   9
ENDBRANCH   4   6
ENDBRANCH   3   4
TORSDOF 3
ENDMDL