MODEL 1
REMARK VINA RESULT: -4.236106730      0.000      0.000
REMARK  1 active torsions:
REMARK  status: ('A' for Active; 'I' for Inactive)
REMARK    1  A    between atoms: N1_2  and  C4_5
ROOT
HETATM    1  C4  UNL     1      94.554  78.274 -16.255  1.00  0.00     0.194 C
HETATM    2  C5  UNL     1      93.261  78.560 -15.466  1.00  0.00     0.039 C
HETATM    3  C6  UNL     1      94.277  79.392 -14.668  1.00  0.00    -0.006 A
HETATM    4  C7  UNL     1      94.899  80.607 -15.050  1.00  0.00     0.012 A
HETATM    5  C8  UNL     1      94.604  79.790 -16.172  1.00  0.00     0.021 A
ENDROOT
BRANCH   1   6
HETATM    6  N1  UNL     1      94.387  77.733 -17.542  1.00  0.00    -0.074 N
HETATM    7  C1  UNL     1      95.529  77.696 -18.383  1.00  0.00     0.272 C
HETATM    8  C2  UNL     1      93.831  76.370 -17.497  1.00  0.00     0.272 C
HETATM    9  C3  UNL     1      93.352  78.532 -18.222  1.00  0.00     0.272 C
ENDBRANCH   1   6
TORSDOF 1
ENDMDL