MODEL 4
REMARK VINA RESULT: -3.555625479      1.262      1.402
REMARK  2 active torsions:
REMARK  status: ('A' for Active; 'I' for Inactive)
REMARK    1  A    between atoms: C2_2  and  C3_3
REMARK    2  A    between atoms: C3_3  and  N1_4
ROOT
HETATM    1  C3  UNL     1      93.777  77.708 -16.893  1.00  0.00     0.145 A
HETATM    2  C7  UNL     1      93.435  76.553 -15.955  1.00  0.00     0.046 A
HETATM    3  C8  UNL     1      92.661  77.810 -15.954  1.00  0.00     0.046 A
ENDROOT
BRANCH   1   4
HETATM    4  C2  UNL     1      95.107  78.322 -16.587  1.00  0.00     0.002 C
HETATM    5  C1  UNL     1      95.261  79.443 -15.937  1.00  0.00     0.009 C
ENDBRANCH   1   4
BRANCH   1   6
HETATM    6  N1  UNL     1      93.486  77.577 -18.281  1.00  0.00    -0.066 N
HETATM    7  C4  UNL     1      93.340  78.894 -18.898  1.00  0.00     0.272 C
HETATM    8  C5  UNL     1      94.516  76.890 -19.034  1.00  0.00     0.272 C
HETATM    9  C6  UNL     1      92.245  76.855 -18.543  1.00  0.00     0.272 C
ENDBRANCH   1   6
TORSDOF 2
ENDMDL