MODEL 1
REMARK VINA RESULT: -4.330420317      0.000      0.000
REMARK  1 active torsions:
REMARK  status: ('A' for Active; 'I' for Inactive)
REMARK    1  A    between atoms: N1_2  and  C4_5
ROOT
HETATM    1  C4  UNL     1      95.071  78.576 -16.503  1.00  0.00     0.386 C
HETATM    2  C5  UNL     1      94.329  78.221 -15.270  1.00  0.00     0.065 C
HETATM    3  C6  UNL     1      94.105  79.550 -14.563  1.00  0.00     0.031 C
HETATM    4  C7  UNL     1      94.964  80.552 -15.315  1.00  0.00     0.235 C
HETATM    5  N2  UNL     1      95.054  79.996 -16.643  1.00  0.00    -0.046 N
ATOM      6  H21 UNL     1      94.318  80.327 -17.267  1.00  0.00     0.279 HD
ATOM      7  H22 UNL     1      95.848  80.354 -17.175  1.00  0.00     0.279 HD
ENDROOT
BRANCH   1   8
HETATM    8  N1  UNL     1      94.631  77.915 -17.693  1.00  0.00    -0.050 N
HETATM    9  C1  UNL     1      95.678  77.708 -18.664  1.00  0.00     0.274 C
HETATM   10  C2  UNL     1      93.988  76.647 -17.459  1.00  0.00     0.274 C
HETATM   11  C3  UNL     1      93.610  78.788 -18.299  1.00  0.00     0.274 C
ENDBRANCH   1   8
TORSDOF 1
ENDMDL