MODEL 3
REMARK VINA RESULT: -4.048801415      1.757      4.079
REMARK  2 active torsions:
REMARK  status: ('A' for Active; 'I' for Inactive)
REMARK    1  A    between atoms: N1_2  and  C2_4
REMARK    2  A    between atoms: C4_6  and  N2_7
ROOT
HETATM    1  C2  UNL     1      92.788  76.974 -17.690  1.00  0.00     0.024 C
HETATM    2  C3  UNL     1      94.118  76.473 -18.079  1.00  0.00     0.069 C
HETATM    3  C4  UNL     1      92.614  77.941 -16.807  1.00  0.00     0.226 C
ENDROOT
BRANCH   1   4
HETATM    4  N1  UNL     1      91.633  76.400 -18.285  1.00  0.00    -0.397 N
HETATM    5  C1  UNL     1      91.529  76.366 -19.725  1.00  0.00     0.146 C
ATOM      6  H1  UNL     1      90.888  76.017 -17.703  1.00  0.00     0.158 HD
ENDBRANCH   1   4
BRANCH   3   7
HETATM    7  N2  UNL     1      93.765  78.527 -16.200  1.00  0.00    -0.046 N
HETATM    8  C5  UNL     1      94.520  79.437 -17.047  1.00  0.00     0.278 C
HETATM    9  C6  UNL     1      94.415  77.845 -15.120  1.00  0.00     0.271 A
HETATM   10  C7  UNL     1      93.596  79.051 -14.844  1.00  0.00     0.271 A
ENDBRANCH   3   7
TORSDOF 2
ENDMDL