MODEL 4
REMARK VINA RESULT: -3.568673689      1.768      2.095
REMARK  2 active torsions:
REMARK  status: ('A' for Active; 'I' for Inactive)
REMARK    1  A    between atoms: C2_2  and  C4_4
REMARK    2  A    between atoms: N1_5  and  C5_7
ROOT
HETATM    1  C4  UNL     1      95.184  78.622 -16.389  1.00  0.00     0.059 C
HETATM    2  N1  UNL     1      94.879  77.770 -17.262  1.00  0.00    -0.398 N
ATOM      3  H1  UNL     1      94.109  77.136 -17.052  1.00  0.00     0.159 HD
ENDROOT
BRANCH   2   4
HETATM    4  C5  UNL     1      95.528  77.623 -18.528  1.00  0.00     0.072 C
HETATM    5  C6  UNL     1      95.618  79.004 -19.150  1.00  0.00     0.031 C
HETATM    6  C7  UNL     1      94.761  76.746 -19.479  1.00  0.00     0.031 C
ENDBRANCH   2   4
BRANCH   1   7
HETATM    7  C2  UNL     1      94.438  78.678 -15.119  1.00  0.00     0.015 C
HETATM    8  C1  UNL     1      93.006  78.278 -15.407  1.00  0.00     0.015 C
HETATM    9  C3  UNL     1      94.432  80.065 -14.513  1.00  0.00     0.015 C
ENDBRANCH   1   7
TORSDOF 2
ENDMDL