MODEL 4
REMARK VINA RESULT: -4.059149879      1.407      1.997
REMARK  2 active torsions:
REMARK  status: ('A' for Active; 'I' for Inactive)
REMARK    1  A    between atoms: N1_2  and  C4_5
REMARK    2  A    between atoms: C5_6  and  C6_7
ROOT
HETATM    1  C4  UNL     1      93.925  77.623 -16.918  1.00  0.00     0.199 C
HETATM    2  C5  UNL     1      93.816  78.769 -16.272  1.00  0.00     0.032 C
ENDROOT
BRANCH   2   3
HETATM    3  C6  UNL     1      94.167  78.917 -14.830  1.00  0.00     0.235 A
HETATM    4  C7  UNL     1      94.551  80.329 -14.434  1.00  0.00     0.270 A
HETATM    5  N2  UNL     1      93.346  79.707 -13.963  1.00  0.00    -0.064 N
ATOM      6  H22 UNL     1      92.364  79.981 -13.998  1.00  0.00     0.278 HD
ATOM      7  H21 UNL     1      92.969  79.546 -13.029  1.00  0.00     0.278 HD
ENDBRANCH   2   3
BRANCH   1   8
HETATM    8  N1  UNL     1      93.567  77.576 -18.292  1.00  0.00    -0.059 N
HETATM    9  C1  UNL     1      93.482  78.914 -18.840  1.00  0.00     0.277 C
HETATM   10  C2  UNL     1      92.272  76.903 -18.457  1.00  0.00     0.277 C
HETATM   11  C3  UNL     1      94.539  76.771 -19.002  1.00  0.00     0.277 C
ENDBRANCH   1   8
TORSDOF 2
ENDMDL