MODEL 4
REMARK VINA RESULT: -4.053049549      1.552      2.401
REMARK  2 active torsions:
REMARK  status: ('A' for Active; 'I' for Inactive)
REMARK    1  A    between atoms: N1_2  and  C4_5
REMARK    2  A    between atoms: C7_8  and  N2_9
ROOT
HETATM    1  C4  UNL     1      94.123  77.278 -17.028  1.00  0.00     0.219 C
HETATM    2  C5  UNL     1      94.778  78.282 -16.068  1.00  0.00     0.037 C
HETATM    3  C6  UNL     1      93.571  78.068 -15.167  1.00  0.00     0.037 C
HETATM    4  C7  UNL     1      92.823  77.618 -16.433  1.00  0.00     0.214 C
ENDROOT
BRANCH   1   5
HETATM    5  N1  UNL     1      94.427  77.564 -18.362  1.00  0.00    -0.072 N
HETATM    6  C1  UNL     1      93.942  76.449 -19.193  1.00  0.00     0.272 C
HETATM    7  C2  UNL     1      93.625  78.721 -18.787  1.00  0.00     0.272 C
HETATM    8  C3  UNL     1      95.772  77.812 -18.719  1.00  0.00     0.272 C
ENDBRANCH   1   5
BRANCH   4   9
HETATM    9  N2  UNL     1      91.955  76.504 -16.056  1.00  0.00    -0.073 N
ATOM     10  H23 UNL     1      92.156  75.700 -16.651  1.00  0.00     0.274 HD
ATOM     11  H22 UNL     1      92.242  76.142 -15.147  1.00  0.00     0.274 HD
ATOM     12  H21 UNL     1      90.951  76.682 -16.051  1.00  0.00     0.274 HD
ENDBRANCH   4   9
TORSDOF 2
ENDMDL