MODEL 4
REMARK VINA RESULT: -3.585683471      1.594      2.488
REMARK  0 active torsions:
REMARK  status: ('A' for Active; 'I' for Inactive)
ROOT
HETATM    1  C1  UNL     1      28.690  16.284  17.612  1.00  0.00     0.031 C
HETATM    2  C2  UNL     1      28.679  15.305  18.758  1.00  0.00     0.031 C
HETATM    3  C3  UNL     1      28.081  14.057  18.171  1.00  0.00     0.260 C
HETATM    4  N1  UNL     1      28.535  14.114  16.782  1.00  0.00     0.012 N
HETATM    5  C4  UNL     1      28.265  15.458  16.420  1.00  0.00     0.260 C
HETATM    6  C5  UNL     1      29.818  13.570  16.518  1.00  0.00     0.278 C
HETATM    7  C6  UNL     1      29.216  12.715  15.442  1.00  0.00     0.172 C
HETATM    8  N2  UNL     1      27.955  13.105  16.051  1.00  0.00    -0.045 NA
ENDROOT
TORSDOF 0
ENDMDL