MODEL 2
REMARK VINA RESULT: -4.306772373      1.377      1.993
REMARK  1 active torsions:
REMARK  status: ('A' for Active; 'I' for Inactive)
REMARK    1  A    between atoms: C1_2  and  C2_4
ROOT
HETATM    1  C2  UNL     1      28.859  14.071  17.588  1.00  0.00     0.075 C
HETATM    2  C3  UNL     1      27.586  13.234  17.742  1.00  0.00     0.013 C
HETATM    3  C4  UNL     1      27.761  12.218  16.653  1.00  0.00     0.001 C
HETATM    4  C5  UNL     1      28.790  12.743  15.694  1.00  0.00     0.001 C
HETATM    5  C6  UNL     1      28.846  14.213  16.059  1.00  0.00     0.013 C
ENDROOT
BRANCH   1   6
HETATM    6  C1  UNL     1      28.771  15.355  18.267  1.00  0.00     0.235 C
HETATM    7  N1  UNL     1      29.085  16.541  17.547  1.00  0.00    -0.062 NA
HETATM    8  O1  UNL     1      28.429  15.421  19.455  1.00  0.00    -0.277 OA
ENDBRANCH   1   6
TORSDOF 1
ENDMDL