MODEL 2
REMARK VINA RESULT: -4.129526349      1.429      1.810
REMARK  1 active torsions:
REMARK  status: ('A' for Active; 'I' for Inactive)
REMARK    1  A    between atoms: C1_2  and  C2_4
ROOT
HETATM    1  C2  UNL     1      28.296  14.810  17.016  1.00  0.00     0.075 C
HETATM    2  C3  UNL     1      27.549  14.669  18.328  1.00  0.00     0.013 C
HETATM    3  C4  UNL     1      28.532  13.601  18.788  1.00  0.00     0.002 C
HETATM    4  C5  UNL     1      29.423  14.021  17.645  1.00  0.00     0.013 C
ENDROOT
BRANCH   1   5
HETATM    5  C1  UNL     1      28.718  16.181  16.687  1.00  0.00     0.235 C
HETATM    6  N1  UNL     1      28.674  16.755  15.388  1.00  0.00    -0.062 NA
HETATM    7  O1  UNL     1      29.152  16.904  17.618  1.00  0.00    -0.277 OA
ENDBRANCH   1   5
TORSDOF 1
ENDMDL