MODEL 4
REMARK VINA RESULT: -4.212739479      2.690      3.499
REMARK  1 active torsions:
REMARK  status: ('A' for Active; 'I' for Inactive)
REMARK    1  A    between atoms: C1_2  and  N1_3
ROOT
HETATM    1  N1  UNL     1      27.898  13.909  17.914  1.00  0.00    -0.359 N
HETATM    2  C2  UNL     1      28.820  13.628  16.862  1.00  0.00     0.125 C
HETATM    3  C3  UNL     1      29.595  14.819  16.397  1.00  0.00     0.020 C
HETATM    4  C4  UNL     1      28.747  16.047  16.211  1.00  0.00     0.003 C
HETATM    5  C5  UNL     1      27.686  16.227  17.230  1.00  0.00     0.020 C
HETATM    6  C6  UNL     1      27.748  15.279  18.384  1.00  0.00     0.125 C
ENDROOT
BRANCH   1   7
HETATM    7  C1  UNL     1      27.152  12.842  18.475  1.00  0.00     0.350 C
HETATM    8  O1  UNL     1      26.720  12.929  19.630  1.00  0.00    -0.284 OA
ENDBRANCH   1   7
TORSDOF 1
ENDMDL