MODEL 4
REMARK VINA RESULT: -3.780503325      1.125      2.072
REMARK  2 active torsions:
REMARK  status: ('A' for Active; 'I' for Inactive)
REMARK    1  A    between atoms: C2_2  and  N1_4
REMARK    2  A    between atoms: C2_2  and  N2_8
ROOT
HETATM    1  C1  UNL     1      29.030  14.063  19.207  1.00  0.00     0.078 C
HETATM    2  C2  UNL     1      27.892  14.178  18.184  1.00  0.00     0.281 C
HETATM    3  C3  UNL     1      27.482  15.630  18.183  1.00  0.00     0.078 C
ENDROOT
BRANCH   2   4
HETATM    4  N1  UNL     1      26.810  13.369  18.693  1.00  0.00    -0.045 N
ATOM      5  H13 UNL     1      27.081  12.774  19.475  1.00  0.00     0.277 HD
ATOM      6  H12 UNL     1      26.098  13.908  19.187  1.00  0.00     0.277 HD
ATOM      7  H11 UNL     1      26.444  12.849  17.895  1.00  0.00     0.277 HD
ENDBRANCH   2   4
BRANCH   2   8
HETATM    8  N2  UNL     1      28.412  13.732  16.930  1.00  0.00    -0.034 N
HETATM    9  C4  UNL     1      27.907  12.457  16.478  1.00  0.00     0.275 C
HETATM   10  C5  UNL     1      29.825  14.043  16.731  1.00  0.00     0.268 A
HETATM   11  C6  UNL     1      28.786  14.643  15.895  1.00  0.00     0.268 A
ENDBRANCH   2   8
TORSDOF 2
ENDMDL