MODEL 5
REMARK VINA RESULT: -3.825104491      2.557      3.422
REMARK  1 active torsions:
REMARK  status: ('A' for Active; 'I' for Inactive)
REMARK       I    between atoms: N1_2  and  C2_3
REMARK    1  A    between atoms: N1_2  and  C3_6
ROOT
HETATM    1  C1  UNL     1      28.561  13.139  16.206  1.00  0.00     0.154 C
HETATM    2  N1  UNL     1      28.106  13.504  17.521  1.00  0.00    -0.336 N
HETATM    3  C2  UNL     1      27.292  12.623  18.248  1.00  0.00     0.330 C
HETATM    4  N2  UNL     1      26.855  12.996  19.536  1.00  0.00    -0.040 NA
HETATM    5  O1  UNL     1      26.951  11.520  17.772  1.00  0.00    -0.251 OA
ENDROOT
BRANCH   2   6
HETATM    6  C3  UNL     1      28.478  14.770  18.107  1.00  0.00     0.088 A
HETATM    7  C4  UNL     1      29.121  15.813  17.274  1.00  0.00     0.027 A
HETATM    8  C5  UNL     1      27.654  15.941  17.549  1.00  0.00     0.027 A
ENDBRANCH   2   6
TORSDOF 1
ENDMDL