MODEL 2
REMARK VINA RESULT: -3.979676484      1.058      2.480
REMARK  1 active torsions:
REMARK  status: ('A' for Active; 'I' for Inactive)
REMARK    1  A    between atoms: C6_7  and  N2_8
ROOT
HETATM    1  C1  UNL     1      27.325  12.934  17.670  1.00  0.00     0.274 C
HETATM    2  N1  UNL     1      28.331  13.905  18.066  1.00  0.00    -0.046 N
HETATM    3  C2  UNL     1      28.916  13.415  19.319  1.00  0.00     0.274 C
HETATM    4  C3  UNL     1      29.318  14.102  17.045  1.00  0.00     0.239 C
HETATM    5  C4  UNL     1      29.355  15.557  16.697  1.00  0.00     0.032 C
HETATM    6  C5  UNL     1      28.007  16.069  17.140  1.00  0.00     0.064 C
HETATM    7  C6  UNL     1      27.750  15.197  18.372  1.00  0.00     0.384 C
ENDROOT
BRANCH   7   8
HETATM    8  N2  UNL     1      28.491  15.847  19.460  1.00  0.00    -0.050 N
ATOM      9  H23 UNL     1      27.903  16.003  20.279  1.00  0.00     0.276 HD
ATOM     10  H22 UNL     1      29.176  15.219  19.882  1.00  0.00     0.276 HD
ATOM     11  H21 UNL     1      28.921  16.711  19.131  1.00  0.00     0.276 HD
ENDBRANCH   7   8
TORSDOF 1
ENDMDL