MODEL 1
REMARK VINA RESULT: -3.895826271      0.000      0.000
REMARK  2 active torsions:
REMARK  status: ('A' for Active; 'I' for Inactive)
REMARK    1  A    between atoms: C4_4  and  C5_5
REMARK    2  A    between atoms: C6_6  and  C7_7
ROOT
HETATM    1  C1  UNL     1      28.880  16.697  14.630  1.00  0.00     0.027 C
HETATM    2  C2  UNL     1      28.867  16.042  15.646  1.00  0.00    -0.026 C
HETATM    3  C3  UNL     1      28.849  15.252  16.832  1.00  0.00    -0.011 C
HETATM    4  C4  UNL     1      28.837  14.565  17.825  1.00  0.00    -0.064 C
ENDROOT
BRANCH   4   5
HETATM    5  C5  UNL     1      28.815  13.734  18.989  1.00  0.00     0.068 C
HETATM    6  C6  UNL     1      28.023  12.692  19.132  1.00  0.00     0.050 C
BRANCH   6   7
HETATM    7  C7  UNL     1      28.049  11.893  20.333  1.00  0.00     0.259 C
HETATM    8  O1  UNL     1      27.145  11.892  21.182  1.00  0.00    -0.302 OA
ENDBRANCH   6   7
ENDBRANCH   4   5
TORSDOF 2
ENDMDL