MODEL 2
REMARK VINA RESULT: -3.601403165      0.046      1.430
REMARK  1 active torsions:
REMARK  status: ('A' for Active; 'I' for Inactive)
REMARK    1  A    between atoms: N1_2  and  C3_4
ROOT
HETATM    1  C1  UNL     1      29.045  16.360  14.826  1.00  0.00     0.151 C
HETATM    2  N1  UNL     1      28.904  15.709  16.093  1.00  0.00    -0.369 N
HETATM    3  C2  UNL     1      29.809  14.626  16.422  1.00  0.00     0.151 C
ENDROOT
BRANCH   2   4
HETATM    4  C3  UNL     1      27.899  16.128  16.995  1.00  0.00     0.182 C
HETATM    5  N2  UNL     1      27.141  17.270  16.669  1.00  0.00    -0.070 NA
HETATM    6  S1  UNL     1      27.677  15.263  18.360  1.00  0.00    -0.044 SA
ENDBRANCH   2   4
TORSDOF 1
ENDMDL