MODEL 3
REMARK VINA RESULT: -4.347118208      2.518      3.451
REMARK  1 active torsions:
REMARK  status: ('A' for Active; 'I' for Inactive)
REMARK    1  A    between atoms: C5_5  and  C6_6
ROOT
HETATM    1  C1  UNL     1      26.970  11.650  16.841  1.00  0.00     0.097 C
HETATM    2  C2  UNL     1      27.687  12.612  17.069  1.00  0.00    -0.182 C
HETATM    3  C3  UNL     1      28.530  13.745  17.360  1.00  0.00     0.065 A
HETATM    4  C4  UNL     1      28.824  14.135  18.779  1.00  0.00     0.032 A
HETATM    5  C5  UNL     1      27.797  14.896  18.034  1.00  0.00     0.091 A
ENDROOT
BRANCH   5   6
HETATM    6  C6  UNL     1      28.092  16.199  17.427  1.00  0.00     0.236 C
HETATM    7  N1  UNL     1      27.132  17.008  16.763  1.00  0.00    -0.062 NA
HETATM    8  O1  UNL     1      29.271  16.623  17.503  1.00  0.00    -0.276 OA
ENDBRANCH   5   6
TORSDOF 1
ENDMDL