MODEL 2
REMARK VINA RESULT: -4.167428889      1.314      1.314
REMARK  2 active torsions:
REMARK  status: ('A' for Active; 'I' for Inactive)
REMARK    1  A    between atoms: C2_2  and  C3_3
REMARK    2  A    between atoms: C5_5  and  C6_6
ROOT
HETATM    1  C3  UNL     1      45.743  19.208  51.534  1.00  0.00     0.021 A
HETATM    2  C4  UNL     1      44.488  19.132  50.762  1.00  0.00     0.023 A
HETATM    3  C5  UNL     1      45.053  20.485  51.022  1.00  0.00     0.083 A
ENDROOT
BRANCH   3   4
HETATM    4  C6  UNL     1      45.762  21.234  49.966  1.00  0.00     0.235 C
HETATM    5  N1  UNL     1      45.408  20.994  48.611  1.00  0.00    -0.062 NA
HETATM    6  O1  UNL     1      46.658  22.069  50.181  1.00  0.00    -0.276 OA
ENDBRANCH   3   4
BRANCH   1   7
HETATM    7  C2  UNL     1      45.782  19.000  52.988  1.00  0.00    -0.031 C
HETATM    8  C1  UNL     1      45.566  17.804  53.518  1.00  0.00     0.007 C
ENDBRANCH   1   7
TORSDOF 2
ENDMDL