MODEL 2
REMARK VINA RESULT: -4.530790805      0.139      1.068
REMARK  1 active torsions:
REMARK  status: ('A' for Active; 'I' for Inactive)
REMARK    1  A    between atoms: C3_4  and  C4_5
ROOT
HETATM    1  C1  UNL     1      44.668  22.561  52.132  1.00  0.00     0.273 C
HETATM    2  N1  UNL     1      45.021  22.151  50.788  1.00  0.00    -0.061 N
HETATM    3  C2  UNL     1      46.080  21.198  50.814  1.00  0.00     0.255 C
HETATM    4  C3  UNL     1      45.008  20.258  51.377  1.00  0.00     0.145 C
HETATM    5  C5  UNL     1      44.294  20.907  50.229  1.00  0.00     0.232 A
HETATM    6  C6  UNL     1      43.914  22.221  49.949  1.00  0.00     0.272 A
ENDROOT
BRANCH   4   7
HETATM    7  C4  UNL     1      45.359  18.829  51.189  1.00  0.00     0.180 C
HETATM    8  O1  UNL     1      45.241  18.063  52.177  1.00  0.00    -0.648 OA
HETATM    9  O2  UNL     1      45.799  18.308  50.006  1.00  0.00    -0.648 OA
ENDBRANCH   4   7
TORSDOF 1
ENDMDL