MODEL 5
REMARK VINA RESULT: -4.371932956      2.763      5.174
REMARK  2 active torsions:
REMARK  status: ('A' for Active; 'I' for Inactive)
REMARK    1  A    between atoms: C4_4  and  C5_5
REMARK    2  A    between atoms: C5_5  and  N1_7
REMARK       I    between atoms: N1_7  and  C7_9
ROOT
HETATM    1  C1  UNL     1      45.799  18.000  53.686  1.00  0.00     0.017 C
HETATM    2  C2  UNL     1      45.489  18.548  52.658  1.00  0.00    -0.090 C
HETATM    3  C3  UNL     1      45.133  19.196  51.402  1.00  0.00     0.061 C
HETATM    4  C4  UNL     1      45.823  20.230  50.961  1.00  0.00     0.007 C
ENDROOT
BRANCH   4   5
HETATM    5  C5  UNL     1      45.421  20.851  49.684  1.00  0.00     0.103 C
HETATM    6  C6  UNL     1      44.012  20.359  49.377  1.00  0.00     0.036 C
BRANCH   5   7
HETATM    7  N1  UNL     1      45.482  22.291  49.744  1.00  0.00    -0.354 N
HETATM    8  C7  UNL     1      45.765  23.010  48.557  1.00  0.00     0.214 C
HETATM    9  C8  UNL     1      45.827  24.497  48.617  1.00  0.00     0.117 C
HETATM   10  O1  UNL     1      45.963  22.393  47.456  1.00  0.00    -0.274 OA
ATOM     11  H1  UNL     1      45.323  22.781  50.624  1.00  0.00     0.163 HD
ENDBRANCH   5   7
ENDBRANCH   4   5
TORSDOF 2
ENDMDL