MODEL 4
REMARK VINA RESULT: -3.935889766      2.137      2.604
REMARK  4 active torsions:
REMARK  status: ('A' for Active; 'I' for Inactive)
REMARK    1  A    between atoms: C2_2  and  C3_3
REMARK    2  A    between atoms: C3_3  and  N1_4
REMARK    3  A    between atoms: N1_4  and  C4_5
REMARK    4  A    between atoms: C4_5  and  C6_7
ROOT
HETATM    1  C4  UNL     1      45.271  20.213  51.616  1.00  0.00     0.156 C
HETATM    2  C5  UNL     1      45.873  20.968  52.703  1.00  0.00     0.092 C
ENDROOT
BRANCH   1   3
HETATM    3  N1  UNL     1      44.610  20.876  50.796  1.00  0.00    -0.416 NA
BRANCH   3   4
HETATM    4  C3  UNL     1      44.019  21.589  49.929  1.00  0.00     0.182 C
BRANCH   4   5
HETATM    5  C2  UNL     1      43.533  22.833  50.426  1.00  0.00     0.021 C
HETATM    6  C1  UNL     1      42.785  23.596  49.670  1.00  0.00     0.013 C
ENDBRANCH   4   5
ENDBRANCH   3   4
ENDBRANCH   1   3
BRANCH   1   7
HETATM    7  C6  UNL     1      45.348  18.823  51.387  1.00  0.00     0.236 C
HETATM    8  O1  UNL     1      45.051  17.910  52.211  1.00  0.00    -0.642 OA
HETATM    9  O2  UNL     1      45.791  18.380  50.146  1.00  0.00    -0.642 OA
ENDBRANCH   1   7
TORSDOF 4
ENDMDL