MODEL 3
REMARK VINA RESULT: -4.463181534      1.094      1.094
REMARK  2 active torsions:
REMARK  status: ('A' for Active; 'I' for Inactive)
REMARK    1  A    between atoms: C2_2  and  C3_3
REMARK    2  A    between atoms: C5_5  and  C6_6
ROOT
HETATM    1  C3  UNL     1      45.694  18.966  51.328  1.00  0.00     0.018 A
HETATM    2  C4  UNL     1      45.884  20.273  50.693  1.00  0.00     0.012 A
HETATM    3  C5  UNL     1      44.884  21.340  50.635  1.00  0.00     0.085 A
HETATM    4  C7  UNL     1      44.594  19.795  50.562  1.00  0.00     0.012 A
ENDROOT
BRANCH   3   5
HETATM    5  C6  UNL     1      44.661  22.089  49.373  1.00  0.00     0.236 C
HETATM    6  N1  UNL     1      43.352  22.596  49.145  1.00  0.00    -0.062 NA
HETATM    7  O1  UNL     1      45.540  22.292  48.524  1.00  0.00    -0.276 OA
ENDBRANCH   3   5
BRANCH   1   8
HETATM    8  C2  UNL     1      45.606  19.012  52.812  1.00  0.00    -0.031 C
HETATM    9  C1  UNL     1      45.620  17.901  53.523  1.00  0.00     0.007 C
ENDBRANCH   1   8
TORSDOF 2
ENDMDL