MODEL 4
REMARK VINA RESULT: -4.152126744      0.872      1.029
REMARK  2 active torsions:
REMARK  status: ('A' for Active; 'I' for Inactive)
REMARK    1  A    between atoms: N1_2  and  N2_4
REMARK    2  A    between atoms: N1_2  and  C3_7
ROOT
HETATM    1  C1  UNL     1      45.721  22.127  49.593  1.00  0.00     0.302 C
HETATM    2  N1  UNL     1      44.894  20.977  49.740  1.00  0.00     0.003 N
HETATM    3  C2  UNL     1      45.185  20.001  48.696  1.00  0.00     0.302 C
ENDROOT
BRANCH   2   4
HETATM    4  N2  UNL     1      43.543  21.363  49.525  1.00  0.00    -0.261 N
ATOM      5  H22 UNL     1      42.944  21.808  50.220  1.00  0.00     0.183 HD
ATOM      6  H21 UNL     1      43.285  21.119  48.568  1.00  0.00     0.183 HD
ENDBRANCH   2   4
BRANCH   2   7
HETATM    7  C3  UNL     1      44.961  20.326  50.991  1.00  0.00     0.214 C
HETATM    8  C4  UNL     1      46.292  20.377  51.672  1.00  0.00     0.036 C
HETATM    9  C5  UNL     1      45.980  19.513  52.905  1.00  0.00     0.002 C
HETATM   10  C6  UNL     1      45.224  18.365  52.289  1.00  0.00     0.002 C
HETATM   11  C7  UNL     1      44.647  18.864  50.983  1.00  0.00     0.036 C
ENDBRANCH   2   7
TORSDOF 2
ENDMDL