MODEL 2
REMARK VINA RESULT: -3.539501998      1.138      1.491
REMARK  1 active torsions:
REMARK  status: ('A' for Active; 'I' for Inactive)
REMARK    1  A    between atoms: C2_2  and  N1_4
ROOT
HETATM    1  N1  UNL     1      45.964  21.120  51.759  1.00  0.00    -0.067 N
HETATM    2  C4  UNL     1      47.059  21.857  51.109  1.00  0.00     0.272 C
HETATM    3  C5  UNL     1      44.658  21.466  51.184  1.00  0.00     0.239 C
HETATM    4  C6  UNL     1      44.669  22.680  52.102  1.00  0.00     0.056 C
HETATM    5  C7  UNL     1      45.582  21.776  52.943  1.00  0.00     0.239 C
ENDROOT
BRANCH   1   6
HETATM    6  C2  UNL     1      46.232  19.736  51.743  1.00  0.00     0.182 C
HETATM    7  C1  UNL     1      45.581  19.152  50.480  1.00  0.00     0.040 C
HETATM    8  C3  UNL     1      45.771  18.937  52.893  1.00  0.00     0.040 C
ENDBRANCH   1   6
TORSDOF 1
ENDMDL