MODEL 5
REMARK VINA RESULT: -4.132206488      2.697      3.258
REMARK  5 active torsions:
REMARK  status: ('A' for Active; 'I' for Inactive)
REMARK    1  A    between atoms: C2_2  and  C3_3
REMARK    2  A    between atoms: C3_3  and  N1_4
REMARK    3  A    between atoms: C3_3  and  N3_8
REMARK    4  A    between atoms: N1_4  and  N2_5
REMARK    5  A    between atoms: N3_8  and  C4_10
ROOT
HETATM    1  C3  UNL     1      45.757  19.147  52.583  1.00  0.00     0.198 C
ENDROOT
BRANCH   1   2
HETATM    2  C2  UNL     1      45.050  18.734  51.391  1.00  0.00     0.055 C
HETATM    3  C1  UNL     1      45.479  19.079  50.194  1.00  0.00     0.016 C
ENDBRANCH   1   2
BRANCH   1   4
HETATM    4  N1  UNL     1      45.756  18.424  53.611  1.00  0.00    -0.315 NA
BRANCH   4   5
HETATM    5  N2  UNL     1      46.017  17.959  54.723  1.00  0.00    -0.278 N
ATOM      6  H22 UNL     1      46.164  18.866  55.166  1.00  0.00     0.191 HD
ATOM      7  H21 UNL     1      46.184  17.310  55.492  1.00  0.00     0.191 HD
ENDBRANCH   4   5
ENDBRANCH   1   4
BRANCH   1   8
HETATM    8  N3  UNL     1      46.475  20.363  52.662  1.00  0.00    -0.359 N
ATOM      9  H3  UNL     1      47.488  20.373  52.542  1.00  0.00     0.162 HD
BRANCH   8  10
HETATM   10  C4  UNL     1      45.759  21.580  52.913  1.00  0.00     0.084 A
HETATM   11  C5  UNL     1      46.033  22.724  51.977  1.00  0.00     0.027 A
HETATM   12  C6  UNL     1      46.435  22.799  53.407  1.00  0.00     0.027 A
ENDBRANCH   8  10
ENDBRANCH   1   8
TORSDOF 5
ENDMDL