MODEL 3
REMARK VINA RESULT: -3.934822955      0.949      4.089
REMARK  1 active torsions:
REMARK  status: ('A' for Active; 'I' for Inactive)
REMARK    1  A    between atoms: C2_2  and  C3_3
ROOT
HETATM    1  C3  UNL     1      44.447  22.007  49.778  1.00  0.00     0.059 C
HETATM    2  C4  UNL     1      45.688  21.110  49.635  1.00  0.00     0.247 C
HETATM    3  N1  UNL     1      45.284  20.506  50.875  1.00  0.00    -0.066 N
HETATM    4  C5  UNL     1      44.463  19.351  50.753  1.00  0.00     0.239 C
HETATM    5  C6  UNL     1      45.377  18.672  51.782  1.00  0.00     0.056 C
HETATM    6  C7  UNL     1      46.264  19.924  51.701  1.00  0.00     0.239 C
HETATM    7  C8  UNL     1      44.672  21.737  51.274  1.00  0.00     0.247 C
ENDROOT
BRANCH   1   8
HETATM    8  C2  UNL     1      44.734  23.374  49.340  1.00  0.00    -0.029 C
HETATM    9  C1  UNL     1      45.713  23.587  48.475  1.00  0.00     0.007 C
ENDBRANCH   1   8
TORSDOF 1
ENDMDL