MODEL 4
REMARK VINA RESULT: -4.027964660      1.266      2.405
REMARK  2 active torsions:
REMARK  status: ('A' for Active; 'I' for Inactive)
REMARK    1  A    between atoms: C4_4  and  N1_5
REMARK    2  A    between atoms: N1_5  and  C7_8
ROOT
HETATM    1  N1  UNL     1      45.626  21.611  51.666  1.00  0.00    -0.037 N
HETATM    2  C5  UNL     1      44.465  22.475  51.801  1.00  0.00     0.280 C
HETATM    3  C6  UNL     1      46.176  21.832  50.357  1.00  0.00     0.280 C
ENDROOT
BRANCH   1   4
HETATM    4  C4  UNL     1      45.201  20.259  51.895  1.00  0.00     0.200 A
HETATM    5  C2  UNL     1      46.093  19.209  52.400  1.00  0.00     0.015 A
HETATM    6  C1  UNL     1      45.460  18.033  53.126  1.00  0.00     0.012 C
HETATM    7  C3  UNL     1      45.765  19.250  50.924  1.00  0.00     0.040 A
ENDBRANCH   1   4
BRANCH   1   8
HETATM    8  C7  UNL     1      46.605  22.040  52.620  1.00  0.00     0.286 C
HETATM    9  N2  UNL     1      46.246  22.442  53.775  1.00  0.00    -0.389 N
ATOM     10  H22 UNL     1      45.252  22.453  54.005  1.00  0.00     0.156 HD
ATOM     11  H21 UNL     1      46.943  22.747  54.454  1.00  0.00     0.156 HD
ENDBRANCH   1   8
TORSDOF 2
ENDMDL