MODEL 3
REMARK VINA RESULT: -8.666177083      1.223      1.606
REMARK  4 active torsions:
REMARK  status: ('A' for Active; 'I' for Inactive)
REMARK    1  A    between atoms: C2_2  and  C3_3
REMARK    2  A    between atoms: N1_12  and  C10_13
REMARK    3  A    between atoms: C10_13  and  C11_14
REMARK    4  A    between atoms: C23_26  and  O1_27
ROOT
HETATM    1  C11 UNL     1       6.372  26.011 118.881  1.00  0.00    -0.027 C
HETATM    2  C12 UNL     1       5.426  25.087 118.892  1.00  0.00    -0.019 C
HETATM    3  C13 UNL     1       4.002  25.467 118.867  1.00  0.00     0.033 C
HETATM    4  C14 UNL     1       3.685  26.654 118.026  1.00  0.00     0.008 C
HETATM    5  C15 UNL     1       2.733  26.260 116.937  1.00  0.00    -0.043 C
HETATM    6  C16 UNL     1       2.125  27.397 116.186  1.00  0.00     0.015 C
HETATM    7  C17 UNL     1       1.606  25.460 117.548  1.00  0.00     0.015 C
HETATM    8  C18 UNL     1       3.504  25.363 115.998  1.00  0.00     0.009 C
HETATM    9  C19 UNL     1       4.713  26.004 115.429  1.00  0.00     0.002 C
HETATM   10  C20 UNL     1       5.538  26.843 116.340  1.00  0.00     0.012 C
HETATM   11  C21 UNL     1       4.878  27.416 117.518  1.00  0.00    -0.009 C
HETATM   12  C22 UNL     1       4.478  28.863 117.359  1.00  0.00     0.018 C
HETATM   13  C23 UNL     1       5.841  27.423 118.742  1.00  0.00     0.157 C
ENDROOT
BRANCH   1  14
HETATM   14  C10 UNL     1       7.805  25.718 118.907  1.00  0.00     0.309 C
BRANCH  14  15
HETATM   15  N1  UNL     1       8.162  24.314 119.037  1.00  0.00     0.097 N
HETATM   16  C3  UNL     1       9.142  24.180 120.075  1.00  0.00     0.223 C
HETATM   17  C4  UNL     1      10.062  23.021 120.003  1.00  0.00     0.036 C
HETATM   18  C5  UNL     1       9.402  21.675 119.934  1.00  0.00     0.008 C
HETATM   19  C6  UNL     1       9.365  21.110 118.531  1.00  0.00     0.079 C
HETATM   20  C7  UNL     1       8.031  21.297 117.895  1.00  0.00     0.245 C
HETATM   21  F1  UNL     1       7.078  20.927 118.841  1.00  0.00    -0.206 F
HETATM   22  F2  UNL     1       7.889  20.359 116.869  1.00  0.00    -0.206 F
HETATM   23  C8  UNL     1       7.755  22.647 117.317  1.00  0.00     0.109 C
HETATM   24  C9  UNL     1       8.603  23.764 117.779  1.00  0.00     0.279 C
BRANCH  16  25
HETATM   25  C2  UNL     1       9.947  25.395 120.409  1.00  0.00     0.031 C
HETATM   26  C1  UNL     1      11.363  25.379 119.899  1.00  0.00     0.007 C
ENDBRANCH  16  25
ENDBRANCH  14  15
ENDBRANCH   1  14
BRANCH  13  27
HETATM   27  O1  UNL     1       5.026  27.688 119.817  1.00  0.00    -0.390 OA
ATOM     28  H1  UNL     1       4.158  27.353 119.625  1.00  0.00     0.210 HD
ENDBRANCH  13  27
TORSDOF 4
ENDMDL