MODEL 5
REMARK VINA RESULT: -9.714547205      1.431      1.887
REMARK  3 active torsions:
REMARK  status: ('A' for Active; 'I' for Inactive)
REMARK    1  A    between atoms: O1_2  and  C2_3
REMARK    2  A    between atoms: C6_8  and  C7_9
REMARK    3  A    between atoms: N1_12  and  C10_13
ROOT
HETATM    1  C2  UNL     1      14.058  23.228 119.823  1.00  0.00     0.072 A
HETATM    2  C3  UNL     1      13.421  24.420 120.025  1.00  0.00     0.061 A
HETATM    3  C4  UNL     1      12.025  24.518 119.960  1.00  0.00     0.050 A
HETATM    4 CL1  UNL     1      11.266  26.015 120.396  1.00  0.00    -0.083 Cl
HETATM    5  C5  UNL     1      11.270  23.399 119.682  1.00  0.00     0.026 A
HETATM    6  C6  UNL     1       9.916  23.171 119.570  1.00  0.00     0.019 A
HETATM    7  C18 UNL     1       9.850  21.759 119.310  1.00  0.00     0.115 A
HETATM    8 CL2  UNL     1       8.314  20.935 119.096  1.00  0.00    -0.064 Cl
HETATM    9  N2  UNL     1      11.043  21.207 119.261  1.00  0.00    -0.345 N
ATOM     10  H2  UNL     1      11.250  20.224 119.089  1.00  0.00     0.167 HD
HETATM   11  C19 UNL     1      11.929  22.179 119.481  1.00  0.00     0.049 A
HETATM   12  C20 UNL     1      13.302  22.095 119.549  1.00  0.00     0.067 A
ENDROOT
BRANCH   6  13
HETATM   13  C7  UNL     1       8.788  24.083 119.476  1.00  0.00    -0.062 C
HETATM   14  C8  UNL     1       8.114  24.529 120.753  1.00  0.00     0.065 C
HETATM   15  C9  UNL     1       7.299  25.813 120.483  1.00  0.00     0.277 C
HETATM   16  N1  UNL     1       6.313  25.644 119.444  1.00  0.00     0.093 N
HETATM   17  C16 UNL     1       6.618  24.563 118.541  1.00  0.00     0.277 C
HETATM   18  C17 UNL     1       8.175  24.612 118.258  1.00  0.00     0.065 C
BRANCH  16  19
HETATM   19  C10 UNL     1       6.184  26.912 118.745  1.00  0.00     0.223 C
HETATM   20  C11 UNL     1       5.430  26.834 117.468  1.00  0.00     0.036 C
HETATM   21  C12 UNL     1       4.931  28.172 116.970  1.00  0.00     0.002 C
HETATM   22  C13 UNL     1       4.128  28.894 118.016  1.00  0.00     0.000 C
HETATM   23  C14 UNL     1       5.124  29.175 119.140  1.00  0.00     0.002 C
HETATM   24  C15 UNL     1       5.581  27.886 119.725  1.00  0.00     0.036 C
ENDBRANCH  16  19
ENDBRANCH   6  13
BRANCH   1  25
HETATM   25  O1  UNL     1      15.436  23.113 119.883  1.00  0.00    -0.356 OA
HETATM   26  C1  UNL     1      16.198  23.560 120.959  1.00  0.00     0.210 C
ENDBRANCH   1  25
TORSDOF 3
ENDMDL