MODEL 2
REMARK VINA RESULT: -6.217508835      3.200      6.291
REMARK  2 active torsions:
REMARK  status: ('A' for Active; 'I' for Inactive)
REMARK    1  A    between atoms: C2_2  and  C3_4
REMARK    2  A    between atoms: C5_6  and  C6_8
ROOT
HETATM    1  C3  UNL     1       3.893  26.002 115.677  1.00  0.00     0.065 C
HETATM    2  C4  UNL     1       3.355  24.798 115.053  1.00  0.00     0.043 C
HETATM    3  C5  UNL     1       2.217  24.772 114.075  1.00  0.00     0.083 C
HETATM    4 CL1  UNL     1       2.961  25.070 112.415  1.00  0.00    -0.115 Cl
HETATM    5  C7  UNL     1       1.167  25.728 114.262  1.00  0.00     0.129 C
HETATM    6  F1  UNL     1       1.788  26.863 113.601  1.00  0.00    -0.240 F
HETATM    7  C8  UNL     1      -0.129  25.840 113.616  1.00  0.00     0.047 C
HETATM    8  C9  UNL     1      -0.576  27.327 113.772  1.00  0.00     0.013 C
HETATM    9  C10 UNL     1      -1.051  27.691 115.111  1.00  0.00    -0.035 A
HETATM   10  C11 UNL     1      -2.599  27.850 115.134  1.00  0.00     0.016 C
HETATM   11  C12 UNL     1      -0.401  28.108 116.333  1.00  0.00    -0.001 A
HETATM   12  C13 UNL     1       0.911  28.728 116.597  1.00  0.00     0.006 C
HETATM   13  C14 UNL     1       1.730  28.205 117.788  1.00  0.00     0.001 C
HETATM   14  C15 UNL     1       3.149  27.782 117.371  1.00  0.00     0.010 C
HETATM   15  C16 UNL     1       3.383  26.326 117.096  1.00  0.00    -0.034 C
HETATM   16  C17 UNL     1       4.547  25.976 118.029  1.00  0.00     0.016 C
HETATM   17  C18 UNL     1       2.342  25.389 117.565  1.00  0.00     0.010 C
HETATM   18  C19 UNL     1       1.116  25.142 116.787  1.00  0.00     0.009 C
HETATM   19  C20 UNL     1       0.803  26.060 115.688  1.00  0.00     0.033 C
HETATM   20  C21 UNL     1      -0.511  26.681 115.975  1.00  0.00     0.006 A
ENDROOT
BRANCH   1  21
HETATM   21  C2  UNL     1       5.389  25.964 115.643  1.00  0.00     0.128 C
HETATM   22  C1  UNL     1       6.233  24.774 115.432  1.00  0.00     0.091 C
HETATM   23  O1  UNL     1       6.018  27.024 115.805  1.00  0.00    -0.298 OA
ENDBRANCH   1  21
BRANCH   3  24
HETATM   24  C6  UNL     1       1.879  23.290 113.916  1.00  0.00     0.115 C
HETATM   25  S1  UNL     1       2.197  22.653 112.286  1.00  0.00    -0.096 SA
ENDBRANCH   3  24
TORSDOF 2
ENDMDL