MODEL 1
REMARK VINA RESULT: -8.953404635      0.000      0.000
REMARK  4 active torsions:
REMARK  status: ('A' for Active; 'I' for Inactive)
REMARK    1  A    between atoms: C1_2  and  N1_3
REMARK    2  A    between atoms: C1_2  and  C8_14
REMARK    3  A    between atoms: N1_3  and  C2_5
REMARK    4  A    between atoms: C5_8  and  S2_9
ROOT
HETATM    1  S1  UNL     1       7.328  28.341 120.010  1.00  0.00    -0.065 SA
HETATM    2  C1  UNL     1       6.896  26.802 119.826  1.00  0.00     0.086 C
ENDROOT
BRANCH   2   3
HETATM    3  N1  UNL     1       7.551  25.765 120.506  1.00  0.00    -0.350 N
ATOM      4  H1  UNL     1       7.096  25.479 121.373  1.00  0.00     0.166 HD
BRANCH   3   5
HETATM    5  C2  UNL     1       8.715  25.056 120.206  1.00  0.00     0.034 A
HETATM    6  C3  UNL     1       8.632  23.689 119.866  1.00  0.00     0.031 A
HETATM    7  C4  UNL     1       9.755  22.954 119.592  1.00  0.00     0.024 A
HETATM    8  C5  UNL     1      11.010  23.518 119.639  1.00  0.00     0.038 A
HETATM    9  C6  UNL     1      11.137  24.847 119.967  1.00  0.00     0.054 A
HETATM   10 CL2  UNL     1      12.720  25.613 120.039  1.00  0.00    -0.083 Cl
HETATM   11  C7  UNL     1       9.973  25.582 120.244  1.00  0.00     0.054 A
BRANCH   8  12
HETATM   12  S2  UNL     1      12.496  22.606 119.292  1.00  0.00    -0.018 SA
HETATM   13 CL1  UNL     1      12.276  20.570 119.648  1.00  0.00    -0.038 Cl
ENDBRANCH   8  12
ENDBRANCH   3   5
ENDBRANCH   2   3
BRANCH   2  14
HETATM   14  C8  UNL     1       5.779  26.513 118.862  1.00  0.00     0.014 C
HETATM   15  C9  UNL     1       6.151  25.470 117.854  1.00  0.00     0.021 C
HETATM   16  C10 UNL     1       4.991  25.317 116.897  1.00  0.00    -0.013 C
HETATM   17  C11 UNL     1       3.796  24.788 117.663  1.00  0.00     0.009 C
HETATM   18  C15 UNL     1       4.595  26.614 116.254  1.00  0.00     0.009 C
HETATM   19  C12 UNL     1       3.428  25.740 118.764  1.00  0.00    -0.013 C
HETATM   20  C13 UNL     1       2.981  27.038 118.133  1.00  0.00     0.009 C
HETATM   21  C17 UNL     1       4.609  25.943 119.671  1.00  0.00     0.021 C
HETATM   22  C14 UNL     1       4.142  27.581 117.327  1.00  0.00    -0.013 C
HETATM   23  C16 UNL     1       5.286  27.803 118.261  1.00  0.00     0.021 C
ENDBRANCH   2  14
TORSDOF 4
ENDMDL