MODEL 2
REMARK VINA RESULT: -8.128664626      0.696      1.681
REMARK  6 active torsions:
REMARK  status: ('A' for Active; 'I' for Inactive)
REMARK    1  A    between atoms: N1_2  and  C3_4
REMARK    2  A    between atoms: N2_7  and  C6_8
REMARK    3  A    between atoms: C6_8  and  C7_9
REMARK    4  A    between atoms: C10_13  and  O1_14
REMARK    5  A    between atoms: C11_16  and  C12_17
REMARK    6  A    between atoms: C12_17  and  C15_20
ROOT
HETATM    1  C7  UNL     1       8.022  23.648 118.743  1.00  0.00    -0.018 A
HETATM    2  C8  UNL     1       8.162  23.145 117.468  1.00  0.00     0.039 A
HETATM    3  C9  UNL     1       7.443  23.693 116.407  1.00  0.00     0.068 A
HETATM    4 CL1  UNL     1       7.666  23.004 114.801  1.00  0.00    -0.081 Cl
HETATM    5  C10 UNL     1       6.582  24.746 116.620  1.00  0.00     0.094 A
HETATM    6  C11 UNL     1       6.416  25.279 117.897  1.00  0.00    -0.014 A
HETATM    7  C19 UNL     1       7.135  24.718 118.903  1.00  0.00     0.023 A
ENDROOT
BRANCH   1   8
HETATM    8  C6  UNL     1       8.747  23.119 119.926  1.00  0.00     0.101 C
BRANCH   8   9
HETATM    9  N2  UNL     1      10.144  23.073 119.767  1.00  0.00    -0.369 N
HETATM   10  C5  UNL     1      10.930  24.137 120.242  1.00  0.00     0.065 C
HETATM   11  C4  UNL     1      12.258  24.290 119.537  1.00  0.00     0.080 C
HETATM   12  C3  UNL     1      12.927  22.973 119.276  1.00  0.00     0.228 C
HETATM   13  C21 UNL     1      12.186  21.855 119.971  1.00  0.00     0.056 C
HETATM   14  C20 UNL     1      10.762  21.863 119.402  1.00  0.00     0.129 C
BRANCH  12  15
HETATM   15  N1  UNL     1      14.321  22.952 119.598  1.00  0.00     0.085 N
HETATM   16  C1  UNL     1      14.748  24.150 120.249  1.00  0.00     0.309 C
HETATM   17  C2  UNL     1      14.756  21.794 120.311  1.00  0.00     0.309 C
ENDBRANCH  12  15
ENDBRANCH   8   9
ENDBRANCH   1   8
BRANCH   6  18
HETATM   18  C12 UNL     1       5.480  26.394 117.996  1.00  0.00    -0.011 C
HETATM   19  C13 UNL     1       5.517  27.140 116.658  1.00  0.00     0.021 C
HETATM   20  C14 UNL     1       4.085  25.785 118.143  1.00  0.00     0.021 C
BRANCH  18  21
HETATM   21  C15 UNL     1       5.660  27.383 119.073  1.00  0.00    -0.040 C
HETATM   22  C16 UNL     1       5.435  26.872 120.469  1.00  0.00     0.015 C
HETATM   23  C17 UNL     1       6.994  28.135 118.970  1.00  0.00     0.015 C
HETATM   24  C18 UNL     1       4.588  28.463 118.849  1.00  0.00     0.015 C
ENDBRANCH  18  21
ENDBRANCH   6  18
BRANCH   5  25
HETATM   25  O1  UNL     1       5.874  25.270 115.526  1.00  0.00    -0.358 OA
ATOM     26  H1  UNL     1       5.294  24.697 115.041  1.00  0.00     0.217 HD
ENDBRANCH   5  25
TORSDOF 6
ENDMDL