MODEL 4
REMARK VINA RESULT: -6.480523798      3.867      5.787
REMARK  4 active torsions:
REMARK  status: ('A' for Active; 'I' for Inactive)
REMARK    1  A    between atoms: C2_2  and  C3_3
REMARK    2  A    between atoms: C3_3  and  O1_4
REMARK    3  A    between atoms: C3_3  and  C4_6
REMARK    4  A    between atoms: C4_6  and  C5_7
ROOT
HETATM    1  C5  UNL     1      -0.225  24.014 114.435  1.00  0.00     0.014 C
HETATM    2  C6  UNL     1      -1.157  25.172 114.308  1.00  0.00     0.087 C
HETATM    3 CL1  UNL     1      -1.833  25.682 115.890  1.00  0.00    -0.125 Cl
HETATM    4  C7  UNL     1      -0.477  26.362 113.740  1.00  0.00     0.023 C
HETATM    5  C8  UNL     1       0.830  26.700 114.403  1.00  0.00     0.041 C
HETATM    6  C9  UNL     1       1.682  25.465 114.609  1.00  0.00     0.080 C
HETATM    7  O2  UNL     1       1.705  25.089 115.966  1.00  0.00    -0.338 OA
HETATM    8  C10 UNL     1       2.925  25.481 116.533  1.00  0.00     0.078 A
HETATM    9  C11 UNL     1       3.296  25.450 117.866  1.00  0.00     0.061 A
HETATM   10  C12 UNL     1       4.543  25.877 118.246  1.00  0.00     0.036 A
HETATM   11 CL2  UNL     1       5.032  25.843 119.950  1.00  0.00    -0.084 Cl
HETATM   12  C13 UNL     1       5.405  26.331 117.274  1.00  0.00     0.024 A
HETATM   13  C14 UNL     1       5.025  26.358 115.939  1.00  0.00     0.012 A
HETATM   14  C15 UNL     1       3.772  25.932 115.543  1.00  0.00    -0.018 A
HETATM   15  C16 UNL     1       3.081  25.843 114.232  1.00  0.00     0.057 C
HETATM   16  C17 UNL     1       3.725  24.842 113.329  1.00  0.00     0.013 C
HETATM   17  C18 UNL     1       3.468  23.480 113.933  1.00  0.00     0.005 C
HETATM   18  C19 UNL     1       2.014  23.143 113.718  1.00  0.00    -0.011 C
HETATM   19  C20 UNL     1       1.924  22.459 112.363  1.00  0.00     0.010 C
HETATM   20  C21 UNL     1       1.091  24.333 113.819  1.00  0.00     0.031 C
ENDROOT
BRANCH   1  21
HETATM   21  C4  UNL     1      -0.795  22.695 114.031  1.00  0.00     0.038 C
BRANCH  21  22
HETATM   22  C3  UNL     1      -2.280  22.708 113.801  1.00  0.00     0.118 C
BRANCH  22  23
HETATM   23  C2  UNL     1      -2.949  21.742 114.781  1.00  0.00     0.027 C
HETATM   24  C1  UNL     1      -2.090  20.540 115.037  1.00  0.00     0.007 C
ENDBRANCH  22  23
BRANCH  22  25
HETATM   25  O1  UNL     1      -2.655  22.314 112.524  1.00  0.00    -0.396 OA
ATOM     26  H1  UNL     1      -2.949  23.094 112.068  1.00  0.00     0.210 HD
ENDBRANCH  22  25
ENDBRANCH  21  22
ENDBRANCH   1  21
TORSDOF 4
ENDMDL