MODEL 2
REMARK VINA RESULT: -8.251323452      1.248      1.530
REMARK  5 active torsions:
REMARK  status: ('A' for Active; 'I' for Inactive)
REMARK    1  A    between atoms: N1_4  and  C4_5
REMARK    2  A    between atoms: C4_5  and  C5_6
REMARK    3  A    between atoms: C5_6  and  C6_7
REMARK    4  A    between atoms: C8_9  and  C9_10
REMARK    5  A    between atoms: C14_17  and  O1_18
ROOT
HETATM    1  C6  UNL     1       9.852  24.075 119.931  1.00  0.00    -0.021 A
HETATM    2  C7  UNL     1       9.490  22.726 119.733  1.00  0.00     0.019 A
HETATM    3  C8  UNL     1      10.417  21.738 119.531  1.00  0.00    -0.033 A
HETATM    4  C12 UNL     1      11.768  22.128 119.536  1.00  0.00     0.035 A
HETATM    5  C13 UNL     1      12.119  23.428 119.726  1.00  0.00     0.068 A
HETATM    6 CL2  UNL     1      13.801  23.917 119.733  1.00  0.00    -0.081 Cl
HETATM    7  C14 UNL     1      11.168  24.421 119.924  1.00  0.00     0.093 A
ENDROOT
BRANCH   1   8
HETATM    8  C5  UNL     1       8.770  25.053 120.086  1.00  0.00     0.072 C
BRANCH   8   9
HETATM    9  C4  UNL     1       7.743  24.928 119.024  1.00  0.00     0.277 C
BRANCH   9  10
HETATM   10  N1  UNL     1       6.488  25.561 119.339  1.00  0.00     0.094 N
HETATM   11  C3  UNL     1       6.755  26.600 120.299  1.00  0.00     0.277 C
HETATM   12  C2  UNL     1       6.697  27.913 119.543  1.00  0.00     0.011 C
HETATM   13  C1  UNL     1       7.379  29.049 120.187  1.00  0.00     0.011 C
HETATM   14  C20 UNL     1       5.225  28.116 119.251  1.00  0.00     0.016 C
HETATM   15  C17 UNL     1       4.797  27.024 118.311  1.00  0.00    -0.017 C
HETATM   16  C15 UNL     1       5.774  25.896 118.193  1.00  0.00     0.226 C
HETATM   17  C18 UNL     1       3.392  26.557 118.662  1.00  0.00     0.017 C
HETATM   18  C19 UNL     1       4.693  27.648 116.928  1.00  0.00     0.017 C
HETATM   19  C16 UNL     1       4.914  24.656 117.828  1.00  0.00     0.043 C
ENDBRANCH   9  10
ENDBRANCH   8   9
ENDBRANCH   1   8
BRANCH   7  20
HETATM   20  O1  UNL     1      11.563  25.738 120.111  1.00  0.00    -0.358 OA
ATOM     21  H1  UNL     1      11.974  26.016 120.922  1.00  0.00     0.217 HD
ENDBRANCH   7  20
BRANCH   3  22
HETATM   22  C9  UNL     1      10.061  20.350 119.242  1.00  0.00     0.057 C
HETATM   23  C10 UNL     1       8.675  20.313 118.631  1.00  0.00     0.037 C
HETATM   24  C11 UNL     1      11.061  19.661 118.395  1.00  0.00     0.037 C
HETATM   25 CL1  UNL     1       9.996  19.461 120.821  1.00  0.00    -0.115 Cl
ENDBRANCH   3  22
TORSDOF 5
ENDMDL