MODEL 1
REMARK VINA RESULT: -8.261029941      0.000      0.000
REMARK  3 active torsions:
REMARK  status: ('A' for Active; 'I' for Inactive)
REMARK       I    between atoms: C1_2  and  N1_3
REMARK    1  A    between atoms: C1_2  and  C15_18
REMARK    2  A    between atoms: N1_3  and  C2_5
REMARK    3  A    between atoms: C2_5  and  C3_6
ROOT
HETATM    1  C2  UNL     1       5.843  25.552 118.647  1.00  0.00     0.037 C
HETATM    2  C9  UNL     1       5.108  25.990 119.880  1.00  0.00     0.031 C
HETATM    3  C10 UNL     1       5.975  26.750 120.852  1.00  0.00     0.002 C
HETATM    4  C11 UNL     1       5.785  28.256 120.666  1.00  0.00     0.000 C
HETATM    5  C12 UNL     1       6.494  28.790 119.477  1.00  0.00     0.000 C
HETATM    6  C13 UNL     1       5.945  28.067 118.243  1.00  0.00     0.002 C
HETATM    7  C14 UNL     1       6.561  26.741 118.061  1.00  0.00     0.031 C
ENDROOT
BRANCH   1   8
HETATM    8  N1  UNL     1       6.904  24.662 119.118  1.00  0.00    -0.347 N
HETATM    9  C1  UNL     1       7.841  23.963 118.355  1.00  0.00     0.257 C
HETATM   10  O1  UNL     1       7.848  24.032 117.062  1.00  0.00    -0.267 OA
ATOM     11  H1  UNL     1       6.967  24.536 120.129  1.00  0.00     0.163 HD
BRANCH   9  12
HETATM   12  C15 UNL     1       8.901  23.089 118.855  1.00  0.00     0.092 A
HETATM   13  C16 UNL     1       8.801  21.742 118.860  1.00  0.00     0.054 A
HETATM   14 CL1  UNL     1       7.346  20.834 118.416  1.00  0.00    -0.083 Cl
HETATM   15  C17 UNL     1       9.895  20.985 119.293  1.00  0.00     0.042 A
HETATM   16  C18 UNL     1      11.036  21.627 119.704  1.00  0.00     0.091 A
HETATM   17  N2  UNL     1      11.144  22.971 119.704  1.00  0.00    -0.356 N
HETATM   18  C19 UNL     1      10.098  23.692 119.288  1.00  0.00     0.120 A
ATOM     19  H2  UNL     1      12.002  23.427 120.015  1.00  0.00     0.166 HD
HETATM   20 CL2  UNL     1      10.228  25.453 119.285  1.00  0.00    -0.063 Cl
ENDBRANCH   9  12
ENDBRANCH   1   8
BRANCH   1  21
HETATM   21  C3  UNL     1       4.960  24.848 117.630  1.00  0.00     0.014 C
HETATM   22  C4  UNL     1       5.198  25.294 116.223  1.00  0.00     0.007 C
HETATM   23  C5  UNL     1       4.062  25.983 115.521  1.00  0.00     0.000 C
HETATM   24  C6  UNL     1       2.733  25.299 115.794  1.00  0.00     0.000 C
HETATM   25  C7  UNL     1       2.549  25.611 117.287  1.00  0.00     0.000 C
HETATM   26  C8  UNL     1       3.527  24.710 118.006  1.00  0.00     0.007 C
ENDBRANCH   1  21
TORSDOF 3
ENDMDL