MODEL 4
REMARK VINA RESULT: -9.080641027      0.619      1.283
REMARK  3 active torsions:
REMARK  status: ('A' for Active; 'I' for Inactive)
REMARK    1  A    between atoms: C5_5  and  C6_6
REMARK    2  A    between atoms: C6_6  and  C9_9
REMARK    3  A    between atoms: C9_9  and  N1_10
ROOT
HETATM    1  N1  UNL     1      10.385  22.848 119.074  1.00  0.00    -0.350 N
HETATM    2  C10 UNL     1       9.766  21.504 119.348  1.00  0.00     0.204 C
HETATM    3  C11 UNL     1      10.702  20.388 119.319  1.00  0.00     0.095 C
HETATM    4  N2  UNL     1      10.262  19.269 118.846  1.00  0.00    -0.387 N
ATOM      5  H21 UNL     1      10.918  18.488 118.825  1.00  0.00     0.157 HD
ATOM      6  H22 UNL     1       9.300  19.197 118.517  1.00  0.00     0.157 HD
HETATM    7  N3  UNL     1      12.037  20.488 119.774  1.00  0.00    -0.338 N
HETATM    8  C12 UNL     1      12.836  19.361 120.146  1.00  0.00     0.158 C
HETATM    9  C13 UNL     1      12.519  21.825 119.852  1.00  0.00     0.066 A
HETATM   10  C14 UNL     1      13.855  21.958 120.263  1.00  0.00     0.056 A
HETATM   11  C15 UNL     1      14.446  23.199 120.347  1.00  0.00     0.037 A
HETATM   12 CL1  UNL     1      16.094  23.358 120.855  1.00  0.00    -0.084 Cl
HETATM   13  C16 UNL     1      13.658  24.257 120.009  1.00  0.00     0.050 A
HETATM   14  C17 UNL     1      12.331  24.132 119.601  1.00  0.00     0.064 A
HETATM   15 CL2  UNL     1      11.553  25.570 119.166  1.00  0.00    -0.082 Cl
HETATM   16  C18 UNL     1      11.738  22.911 119.519  1.00  0.00     0.083 A
ENDROOT
BRANCH   1  17
HETATM   17  C9  UNL     1       9.625  23.819 118.397  1.00  0.00     0.074 C
BRANCH  17  18
HETATM   18  C6  UNL     1       8.178  23.594 118.075  1.00  0.00    -0.012 C
HETATM   19  C7  UNL     1       7.487  22.371 118.515  1.00  0.00     0.021 C
HETATM   20  C8  UNL     1       7.963  23.464 116.521  1.00  0.00     0.021 C
BRANCH  18  21
HETATM   21  C5  UNL     1       7.427  24.886 118.286  1.00  0.00    -0.001 C
HETATM   22  C4  UNL     1       7.218  25.434 119.612  1.00  0.00     0.006 C
HETATM   23  C3  UNL     1       6.245  26.577 119.372  1.00  0.00     0.005 C
HETATM   24  C2  UNL     1       5.286  26.001 118.386  1.00  0.00    -0.018 C
HETATM   25  C1  UNL     1       4.027  25.514 119.097  1.00  0.00     0.010 C
HETATM   26  C19 UNL     1       6.006  24.838 117.746  1.00  0.00     0.010 C
ENDBRANCH  18  21
ENDBRANCH  17  18
ENDBRANCH   1  17
TORSDOF 3
ENDMDL