MODEL 1
REMARK VINA RESULT: -8.658822949      0.000      0.000
REMARK  3 active torsions:
REMARK  status: ('A' for Active; 'I' for Inactive)
REMARK    1  A    between atoms: O1_2  and  C2_3
REMARK    2  A    between atoms: C8_13  and  C9_14
REMARK    3  A    between atoms: C9_14  and  C10_15
ROOT
HETATM    1  C2  UNL     1       8.419  25.379 120.025  1.00  0.00     0.104 A
HETATM    2  C3  UNL     1       9.738  25.505 120.413  1.00  0.00     0.090 A
HETATM    3 CL1  UNL     1      10.183  26.504 121.786  1.00  0.00    -0.080 Cl
HETATM    4  C4  UNL     1      10.714  24.845 119.723  1.00  0.00     0.060 A
HETATM    5 CL2  UNL     1      12.395  24.978 120.180  1.00  0.00    -0.082 Cl
HETATM    6  C5  UNL     1      10.403  24.050 118.639  1.00  0.00     0.056 A
HETATM    7  C6  UNL     1       9.061  23.952 118.282  1.00  0.00     0.047 A
HETATM    8  N1  UNL     1       8.539  23.248 117.275  1.00  0.00    -0.365 N
ATOM      9  H1  UNL     1       9.054  22.670 116.611  1.00  0.00     0.165 HD
HETATM   10  C7  UNL     1       7.214  23.440 117.300  1.00  0.00     0.096 A
HETATM   11  C8  UNL     1       6.847  24.277 118.327  1.00  0.00    -0.027 A
HETATM   12  C20 UNL     1       8.060  24.601 118.956  1.00  0.00     0.033 A
ENDROOT
BRANCH  11  13
HETATM   13  C9  UNL     1       5.560  24.771 118.784  1.00  0.00     0.051 C
BRANCH  13  14
HETATM   14  C10 UNL     1       4.727  25.539 117.812  1.00  0.00    -0.032 C
HETATM   15  C11 UNL     1       3.836  26.572 118.411  1.00  0.00     0.015 C
HETATM   16  C12 UNL     1       3.722  27.559 117.236  1.00  0.00    -0.013 C
HETATM   17  C13 UNL     1       5.227  27.806 117.050  1.00  0.00     0.010 C
HETATM   18  C18 UNL     1       3.127  26.863 116.057  1.00  0.00     0.014 C
HETATM   19  C14 UNL     1       5.695  26.374 116.939  1.00  0.00    -0.005 C
HETATM   20  C15 UNL     1       5.417  25.959 115.510  1.00  0.00     0.014 C
HETATM   21  C16 UNL     1       3.938  25.677 115.614  1.00  0.00    -0.043 C
HETATM   22  C17 UNL     1       3.373  24.960 114.452  1.00  0.00     0.015 C
HETATM   23  C19 UNL     1       3.952  24.726 116.829  1.00  0.00     0.019 C
ENDBRANCH  13  14
ENDBRANCH  11  13
BRANCH   1  24
HETATM   24  O1  UNL     1       7.481  26.077 120.768  1.00  0.00    -0.353 OA
HETATM   25  C1  UNL     1       7.026  27.367 120.379  1.00  0.00     0.210 C
ENDBRANCH   1  24
TORSDOF 3
ENDMDL