MODEL 3
REMARK VINA RESULT: -5.581540235      1.105      1.223
REMARK  4 active torsions:
REMARK  status: ('A' for Active; 'I' for Inactive)
REMARK    1  A    between atoms: C2_2  and  C3_3
REMARK    2  A    between atoms: C3_3  and  C4_4
REMARK    3  A    between atoms: C4_4  and  C5_5
REMARK    4  A    between atoms: C5_5  and  N1_6
ROOT
HETATM    1  N1  UNL     1     137.187 122.294  85.673  1.00  0.00    -0.326 N
ATOM      2  H1  UNL     1     136.851 121.696  86.426  1.00  0.00     0.169 HD
HETATM    3  C6  UNL     1     136.988 122.014  84.405  1.00  0.00     0.219 C
HETATM    4  N2  UNL     1     137.419 122.789  83.284  1.00  0.00    -0.354 N
ATOM      5  H2  UNL     1     137.580 123.797  83.287  1.00  0.00     0.163 HD
HETATM    6  C7  UNL     1     137.596 121.896  82.120  1.00  0.00     0.150 C
HETATM    7  C8  UNL     1     136.617 120.806  82.461  1.00  0.00     0.198 C
HETATM    8  O1  UNL     1     136.327 120.922  83.845  1.00  0.00    -0.321 OA
ENDROOT
BRANCH   1   9
HETATM    9  C5  UNL     1     137.932 123.537  85.923  1.00  0.00     0.147 C
BRANCH   9  10
HETATM   10  C4  UNL     1     137.695 124.217  87.078  1.00  0.00    -0.111 C
BRANCH  10  11
HETATM   11  C3  UNL     1     137.469 124.870  88.188  1.00  0.00     0.056 C
BRANCH  11  12
HETATM   12  C2  UNL     1     138.581 125.138  89.077  1.00  0.00    -0.002 C
HETATM   13  C1  UNL     1     139.741 124.491  88.829  1.00  0.00     0.012 C
ENDBRANCH  11  12
ENDBRANCH  10  11
ENDBRANCH   9  10
ENDBRANCH   1   9
TORSDOF 4
ENDMDL