MODEL 3
REMARK VINA RESULT: -5.265739404      0.053      1.401
REMARK  4 active torsions:
REMARK  status: ('A' for Active; 'I' for Inactive)
REMARK    1  A    between atoms: C2_2  and  C3_3
REMARK    2  A    between atoms: C3_3  and  O1_4
REMARK    3  A    between atoms: C3_3  and  C4_6
REMARK    4  A    between atoms: C4_6  and  N1_7
ROOT
HETATM    1  N1  UNL     1     138.222 123.194  84.856  1.00  0.00    -0.361 N
HETATM    2  C5  UNL     1     137.464 122.112  84.561  1.00  0.00     0.107 A
HETATM    3  C6  UNL     1     137.230 121.761  83.239  1.00  0.00     0.104 A
HETATM    4  N2  UNL     1     137.756 122.496  82.249  1.00  0.00    -0.373 N
ATOM      5  H2  UNL     1     137.578 122.230  81.281  1.00  0.00     0.164 HD
HETATM    6  C7  UNL     1     138.511 123.575  82.504  1.00  0.00     0.104 A
HETATM    7  C8  UNL     1     138.725 123.895  83.829  1.00  0.00     0.107 A
ENDROOT
BRANCH   1   8
HETATM    8  C4  UNL     1     138.489 123.591  86.225  1.00  0.00     0.163 C
BRANCH   8   9
HETATM    9  C3  UNL     1     138.844 125.085  86.246  1.00  0.00     0.158 C
BRANCH   9  10
HETATM   10  C2  UNL     1     139.667 125.388  87.455  1.00  0.00    -0.004 C
HETATM   11  C1  UNL     1     139.556 124.686  88.573  1.00  0.00     0.009 C
ENDBRANCH   9  10
BRANCH   9  12
HETATM   12  O1  UNL     1     137.695 125.858  86.250  1.00  0.00    -0.390 OA
ATOM     13  H1  UNL     1     137.577 126.270  85.403  1.00  0.00     0.210 HD
ENDBRANCH   9  12
ENDBRANCH   8   9
ENDBRANCH   1   8
TORSDOF 4
ENDMDL