MODEL 5
REMARK VINA RESULT: -5.176106285      3.190      5.744
REMARK  3 active torsions:
REMARK  status: ('A' for Active; 'I' for Inactive)
REMARK    1  A    between atoms: N1_6  and  N2_8
REMARK    2  A    between atoms: C6_10  and  C7_11
REMARK    3  A    between atoms: N3_12  and  O1_14
ROOT
HETATM    1  N2  UNL     1     137.365 123.205  85.871  1.00  0.00    -0.310 N
ATOM      2  H2  UNL     1     136.561 123.578  86.376  1.00  0.00     0.186 HD
HETATM    3  C6  UNL     1     138.501 123.728  86.109  1.00  0.00     0.126 C
ENDROOT
BRANCH   1   4
HETATM    4  N1  UNL     1     137.138 122.171  84.981  1.00  0.00    -0.305 N
HETATM    5  C5  UNL     1     137.363 122.355  83.728  1.00  0.00     0.031 C
HETATM    6  C2  UNL     1     137.230 121.496  82.569  1.00  0.00    -0.043 C
HETATM    7  C4  UNL     1     137.839 123.429  82.820  1.00  0.00     0.064 C
HETATM    8  C1  UNL     1     136.474 120.460  82.303  1.00  0.00     0.021 C
HETATM    9  C3  UNL     1     138.274 122.289  81.891  1.00  0.00     0.045 C
ATOM     10  H1  UNL     1     136.795 121.271  85.315  1.00  0.00     0.186 HD
ENDBRANCH   1   4
BRANCH   3  11
HETATM   11  C7  UNL     1     138.659 124.816  87.061  1.00  0.00     0.132 C
HETATM   12  N3  UNL     1     138.061 125.927  86.812  1.00  0.00    -0.279 N
ATOM     13  H3  UNL     1     137.505 125.995  85.961  1.00  0.00     0.193 HD
BRANCH  12  14
HETATM   14  O1  UNL     1     138.131 127.021  87.629  1.00  0.00    -0.290 OA
ATOM     15  H1  UNL     1     137.913 127.901  87.345  1.00  0.00     0.244 HD
ENDBRANCH  12  14
ENDBRANCH   3  11
TORSDOF 3
ENDMDL