MODEL 5
REMARK VINA RESULT: -5.298843156      2.100      4.959
REMARK  4 active torsions:
REMARK  status: ('A' for Active; 'I' for Inactive)
REMARK    1  A    between atoms: N1_1  and  N2_4
REMARK    2  A    between atoms: N2_4  and  N3_5
REMARK    3  A    between atoms: N3_5  and  C1_7
REMARK    4  A    between atoms: C1_7  and  C2_8
ROOT
HETATM    1  C2  UNL     1     138.465 123.552  85.644  1.00  0.00    -0.008 A
HETATM    2  C3  UNL     1     138.015 124.161  86.728  1.00  0.00     0.067 A
HETATM    3  N4  UNL     1     137.344 124.356  87.878  1.00  0.00    -0.300 N
ATOM      4  H4  UNL     1     136.748 123.665  88.335  1.00  0.00     0.187 HD
HETATM    5  N5  UNL     1     137.577 125.587  88.329  1.00  0.00    -0.311 N
ATOM      6  H5  UNL     1     137.182 125.976  89.185  1.00  0.00     0.186 HD
HETATM    7  C4  UNL     1     138.399 126.241  87.507  1.00  0.00     0.120 A
HETATM    8  C5  UNL     1     138.681 125.354  86.495  1.00  0.00     0.010 A
HETATM    9  C6  UNL     1     139.167 124.800  85.392  1.00  0.00     0.026 A
ENDROOT
BRANCH   1  10
HETATM   10  C1  UNL     1     138.312 122.206  84.996  1.00  0.00     0.196 C
BRANCH  10  11
HETATM   11  N3  UNL     1     137.088 122.202  84.229  1.00  0.00    -0.248 N
ATOM     12  H3  UNL     1     136.361 122.887  84.439  1.00  0.00     0.197 HD
BRANCH  11  13
HETATM   13  N2  UNL     1     136.909 121.392  83.335  1.00  0.00    -0.248 NA
BRANCH  13  14
HETATM   14  N1  UNL     1     137.006 120.647  82.341  1.00  0.00    -0.261 N
ATOM     15  H12 UNL     1     138.023 120.616  82.412  1.00  0.00     0.193 HD
ATOM     16  H11 UNL     1     136.839 120.055  81.527  1.00  0.00     0.193 HD
ENDBRANCH  13  14
ENDBRANCH  11  13
ENDBRANCH  10  11
ENDBRANCH   1  10
TORSDOF 4
ENDMDL