MODEL 4
REMARK VINA RESULT: -4.461640212      2.151      4.819
REMARK  3 active torsions:
REMARK  status: ('A' for Active; 'I' for Inactive)
REMARK    1  A    between atoms: C1_2  and  N1_3
REMARK    2  A    between atoms: N1_3  and  C2_5
REMARK    3  A    between atoms: N2_8  and  C5_9
ROOT
HETATM    1  C2  UNL     1     138.590 123.102  85.173  1.00  0.00     0.103 C
HETATM    2  C3  UNL     1     137.275 123.070  85.959  1.00  0.00     0.046 C
HETATM    3  C4  UNL     1     137.679 123.836  87.201  1.00  0.00     0.127 C
HETATM    4  N2  UNL     1     138.437 124.936  86.640  1.00  0.00    -0.357 N
HETATM    5  C6  UNL     1     139.037 124.517  85.388  1.00  0.00     0.150 C
ENDROOT
BRANCH   1   6
HETATM    6  N1  UNL     1     138.412 122.758  83.798  1.00  0.00    -0.362 N
ATOM      7  H1  UNL     1     138.334 121.781  83.517  1.00  0.00     0.162 HD
BRANCH   6   8
HETATM    8  C1  UNL     1     138.344 123.792  82.825  1.00  0.00     0.348 C
HETATM    9  O1  UNL     1     139.089 123.844  81.834  1.00  0.00    -0.284 OA
ENDBRANCH   6   8
ENDBRANCH   1   6
BRANCH   4  10
HETATM   10  C5  UNL     1     138.563 126.210  87.231  1.00  0.00     0.350 C
HETATM   11  O2  UNL     1     137.589 127.026  87.214  1.00  0.00    -0.284 OA
ENDBRANCH   4  10
TORSDOF 3
ENDMDL