MODEL 4
REMARK VINA RESULT: -5.777265978      1.383      1.515
REMARK  3 active torsions:
REMARK  status: ('A' for Active; 'I' for Inactive)
REMARK    1  A    between atoms: N1_2  and  C2_3
REMARK    2  A    between atoms: C2_3  and  N2_4
REMARK    3  A    between atoms: N2_4  and  C3_6
ROOT
HETATM    1  N2  UNL     1     138.404 123.518  85.631  1.00  0.00    -0.379 N
ATOM      2  H2  UNL     1     138.403 122.653  86.171  1.00  0.00     0.160 HD
ENDROOT
BRANCH   1   3
HETATM    3  C2  UNL     1     138.672 123.452  84.224  1.00  0.00     0.270 C
BRANCH   3   4
HETATM    4  N1  UNL     1     137.732 122.426  83.708  1.00  0.00    -0.268 N
HETATM    5  C1  UNL     1     136.757 121.632  83.907  1.00  0.00     0.219 A
HETATM    6  N3  UNL     1     137.331 121.659  82.574  1.00  0.00    -0.290 N
ATOM      7  H3  UNL     1     137.397 121.364  81.600  1.00  0.00     0.188 HD
ENDBRANCH   3   4
ENDBRANCH   1   3
BRANCH   1   8
HETATM    8  C3  UNL     1     138.144 124.719  86.285  1.00  0.00    -0.017 C
HETATM    9  C4  UNL     1     139.163 125.742  86.598  1.00  0.00     0.052 C
HETATM   10  C5  UNL     1     139.975 125.373  87.791  1.00  0.00     0.006 C
HETATM   11  C6  UNL     1     139.292 124.653  88.882  1.00  0.00     0.001 C
HETATM   12  C7  UNL     1     137.852 124.416  88.790  1.00  0.00     0.006 C
HETATM   13  C8  UNL     1     137.229 124.398  87.463  1.00  0.00     0.052 C
ENDBRANCH   1   8
TORSDOF 3
ENDMDL