MODEL 3
REMARK VINA RESULT: -4.198809752      2.636      4.131
REMARK  2 active torsions:
REMARK  status: ('A' for Active; 'I' for Inactive)
REMARK    1  A    between atoms: C2_2  and  C3_3
REMARK    2  A    between atoms: C3_3  and  C4_4
ROOT
HETATM    1  C4  UNL     1     138.167 124.621  86.003  1.00  0.00     0.281 C
HETATM    2  N1  UNL     1     137.289 123.573  86.392  1.00  0.00    -0.059 N
ATOM      3  H11 UNL     1     136.342 123.919  86.550  1.00  0.00     0.278 HD
ATOM      4  H12 UNL     1     137.496 123.244  87.334  1.00  0.00     0.278 HD
HETATM    5  C5  UNL     1     137.300 122.512  85.462  1.00  0.00     0.246 C
HETATM    6  C6  UNL     1     138.733 122.241  85.055  1.00  0.00     0.138 C
HETATM    7  S1  UNL     1     139.157 123.948  84.650  1.00  0.00     0.048 S
HETATM    8  O1  UNL     1     138.322 124.273  83.204  1.00  0.00    -0.256 OA
ENDROOT
BRANCH   1   9
HETATM    9  C3  UNL     1     139.164 124.804  87.150  1.00  0.00     0.072 C
BRANCH   9  10
HETATM   10  C2  UNL     1     138.585 124.465  88.451  1.00  0.00    -0.034 C
HETATM   11  C1  UNL     1     138.416 125.433  89.334  1.00  0.00     0.007 C
ENDBRANCH   9  10
ENDBRANCH   1   9
TORSDOF 2
ENDMDL