MODEL 3
REMARK VINA RESULT: -4.728100467      2.096      2.419
REMARK  3 active torsions:
REMARK  status: ('A' for Active; 'I' for Inactive)
REMARK    1  A    between atoms: C2_2  and  C3_3
REMARK    2  A    between atoms: C4_4  and  C5_5
REMARK    3  A    between atoms: C7_10  and  C8_11
ROOT
HETATM    1  C5  UNL     1     137.716 122.404  85.260  1.00  0.00     0.036 C
HETATM    2  C6  UNL     1     139.204 122.657  85.015  1.00  0.00     0.241 C
HETATM    3  N1  UNL     1     139.172 123.885  84.240  1.00  0.00    -0.064 N
ATOM      4  H11 UNL     1     140.047 124.092  83.760  1.00  0.00     0.278 HD
ATOM      5  H12 UNL     1     139.146 124.731  84.808  1.00  0.00     0.278 HD
HETATM    6  C7  UNL     1     138.021 123.736  83.341  1.00  0.00     0.247 C
HETATM    7  C9  UNL     1     137.150 122.663  83.895  1.00  0.00     0.050 C
ENDROOT
BRANCH   1   8
HETATM    8  C4  UNL     1     137.237 123.298  86.312  1.00  0.00    -0.020 C
HETATM    9  C3  UNL     1     137.960 123.902  87.230  1.00  0.00    -0.004 C
BRANCH   9  10
HETATM   10  C2  UNL     1     137.419 124.774  88.243  1.00  0.00    -0.011 C
HETATM   11  C1  UNL     1     138.230 125.388  89.069  1.00  0.00     0.011 C
ENDBRANCH   9  10
ENDBRANCH   1   8
BRANCH   6  12
HETATM   12  C8  UNL     1     138.492 123.451  81.966  1.00  0.00     0.264 C
HETATM   13  O1  UNL     1     139.438 124.028  81.485  1.00  0.00    -0.305 OA
ENDBRANCH   6  12
TORSDOF 3
ENDMDL