MODEL 4
REMARK VINA RESULT: -5.170330540      1.346      5.009
REMARK  5 active torsions:
REMARK  status: ('A' for Active; 'I' for Inactive)
REMARK    1  A    between atoms: N1_1  and  N2_4
REMARK    2  A    between atoms: N2_4  and  C1_5
REMARK    3  A    between atoms: C1_5  and  C2_6
REMARK    4  A    between atoms: C2_6  and  N3_7
REMARK    5  A    between atoms: C3_9  and  C4_10
ROOT
HETATM    1  N3  UNL     1     137.640 122.734  84.720  1.00  0.00    -0.391 N
ATOM      2  H3  UNL     1     136.725 123.153  84.890  1.00  0.00     0.159 HD
HETATM    3  C3  UNL     1     138.606 123.186  85.407  1.00  0.00     0.114 C
ENDROOT
BRANCH   1   4
HETATM    4  C2  UNL     1     137.694 121.704  83.737  1.00  0.00     0.180 C
BRANCH   4   5
HETATM    5  C1  UNL     1     137.468 122.345  82.397  1.00  0.00     0.200 C
BRANCH   5   6
HETATM    6  N2  UNL     1     138.244 123.237  82.049  1.00  0.00    -0.348 NA
BRANCH   6   7
HETATM    7  N1  UNL     1     138.846 124.265  81.705  1.00  0.00    -0.281 N
ATOM      8  H12 UNL     1     138.735 124.623  82.654  1.00  0.00     0.191 HD
ATOM      9  H11 UNL     1     139.351 125.031  81.259  1.00  0.00     0.191 HD
ENDBRANCH   6   7
ENDBRANCH   5   6
ENDBRANCH   4   5
ENDBRANCH   1   4
BRANCH   3  10
HETATM   10  C4  UNL     1     138.343 124.250  86.371  1.00  0.00     0.063 A
HETATM   11  C5  UNL     1     139.101 125.404  86.575  1.00  0.00     0.119 A
HETATM   12  N4  UNL     1     138.504 126.106  87.553  1.00  0.00    -0.360 N
HETATM   13  C6  UNL     1     137.404 125.459  87.983  1.00  0.00     0.180 A
ATOM     14  H4  UNL     1     138.836 126.999  87.916  1.00  0.00     0.166 HD
HETATM   15  N5  UNL     1     137.320 124.334  87.255  1.00  0.00    -0.350 N
ATOM     16  H5  UNL     1     136.583 123.636  87.354  1.00  0.00     0.166 HD
ENDBRANCH   3  10
TORSDOF 5
ENDMDL