MODEL 2
REMARK VINA RESULT: -7.598681159      2.364      3.353
REMARK  11 active torsions:
REMARK  status: ('A' for Active; 'I' for Inactive)
REMARK    1  A    between atoms: C2_2  and  C3_3
REMARK    2  A    between atoms: C3_3  and  N1_4
REMARK    3  A    between atoms: N1_4  and  C4_5
REMARK    4  A    between atoms: N1_4  and  C11_13
REMARK    5  A    between atoms: C4_5  and  C5_6
REMARK    6  A    between atoms: C11_13  and  S1_17
REMARK    7  A    between atoms: S1_17  and  C12_18
REMARK    8  A    between atoms: C12_18  and  C13_19
REMARK    9  A    between atoms: C13_19  and  O2_20
REMARK   10  A    between atoms: C13_19  and  C14_22
REMARK   11  A    between atoms: C14_22  and  N3_23
ROOT
HETATM    1  C11 UNL     1      51.466  58.601  44.052  1.00  0.00     0.136 C
HETATM    2  N2  UNL     1      51.237  57.378  44.384  1.00  0.00    -0.380 N
ATOM      3  H21 UNL     1      50.856  56.727  43.698  1.00  0.00     0.158 HD
ATOM      4  H22 UNL     1      51.425  57.019  45.321  1.00  0.00     0.158 HD
ENDROOT
BRANCH   1   5
HETATM    5  N1  UNL     1      52.002  59.514  45.014  1.00  0.00    -0.354 N
BRANCH   5   6
HETATM    6  C3  UNL     1      52.325  60.849  44.580  1.00  0.00     0.151 C
BRANCH   6   7
HETATM    7  C2  UNL     1      53.572  61.348  45.251  1.00  0.00    -0.017 C
HETATM    8  C1  UNL     1      54.335  62.211  44.636  1.00  0.00     0.008 C
ENDBRANCH   6   7
ENDBRANCH   5   6
BRANCH   5   9
HETATM    9  C4  UNL     1      52.197  59.061  46.362  1.00  0.00     0.166 C
BRANCH   9  10
HETATM   10  C5  UNL     1      51.158  59.511  47.325  1.00  0.00    -0.009 A
HETATM   11  C6  UNL     1      50.920  60.784  47.796  1.00  0.00     0.043 A
HETATM   12  C7  UNL     1      49.832  60.697  48.661  1.00  0.00     0.050 A
HETATM   13  C8  UNL     1      49.243  61.876  49.397  1.00  0.00     0.076 C
HETATM   14  O1  UNL     1      49.467  59.463  48.685  1.00  0.00    -0.320 OA
HETATM   15  C9  UNL     1      50.197  58.709  47.928  1.00  0.00     0.057 A
HETATM   16  C10 UNL     1      50.089  57.234  47.691  1.00  0.00     0.077 C
ENDBRANCH   9  10
ENDBRANCH   5   9
ENDBRANCH   1   5
BRANCH   1  17
HETATM   17  S1  UNL     1      51.142  59.220  42.432  1.00  0.00    -0.092 SA
BRANCH  17  18
HETATM   18  C12 UNL     1      50.071  58.101  41.494  1.00  0.00     0.119 C
BRANCH  18  19
HETATM   19  C13 UNL     1      50.898  57.282  40.495  1.00  0.00     0.166 C
BRANCH  19  20
HETATM   20  O2  UNL     1      50.666  57.907  39.256  1.00  0.00    -0.390 OA
ATOM     21  H2  UNL     1      51.100  57.346  38.625  1.00  0.00     0.210 HD
ENDBRANCH  19  20
BRANCH  19  22
HETATM   22  C14 UNL     1      50.401  55.882  40.437  1.00  0.00     0.100 C
BRANCH  22  23
HETATM   23  N3  UNL     1      51.050  54.917  41.182  1.00  0.00    -0.352 N
HETATM   24  C15 UNL     1      50.488  54.294  42.293  1.00  0.00     0.068 C
HETATM   25  C16 UNL     1      51.520  53.919  43.327  1.00  0.00     0.045 C
HETATM   26  C17 UNL     1      52.378  52.766  42.971  1.00  0.00     0.005 C
HETATM   27  C18 UNL     1      52.215  52.221  41.584  1.00  0.00     0.005 C
HETATM   28  C19 UNL     1      52.578  53.217  40.514  1.00  0.00     0.045 C
HETATM   29  C20 UNL     1      52.419  54.645  40.988  1.00  0.00     0.068 C
ENDBRANCH  22  23
ENDBRANCH  19  22
ENDBRANCH  18  19
ENDBRANCH  17  18
ENDBRANCH   1  17
TORSDOF 11
ENDMDL