MODEL 3
REMARK VINA RESULT: -7.437824286      1.802      6.511
REMARK  10 active torsions:
REMARK  status: ('A' for Active; 'I' for Inactive)
REMARK    1  A    between atoms: C2_2  and  C3_4
REMARK    2  A    between atoms: C3_4  and  N1_5
REMARK    3  A    between atoms: C3_4  and  C10_13
REMARK    4  A    between atoms: N1_5  and  C4_7
REMARK    5  A    between atoms: C10_13  and  C11_14
REMARK    6  A    between atoms: C10_13  and  N2_21
REMARK    7  A    between atoms: C11_14  and  O2_15
REMARK    8  A    between atoms: O2_15  and  C12_16
REMARK       I    between atoms: N2_21  and  C17_23
REMARK    9  A    between atoms: C17_23  and  O4_25
REMARK   10  A    between atoms: O4_25  and  C18_26
ROOT
HETATM    1  C10 UNL     1      50.662  57.592  41.340  1.00  0.00     0.045 C
ENDROOT
BRANCH   1   2
HETATM    2  C3  UNL     1      51.691  58.551  41.898  1.00  0.00     0.195 C
BRANCH   2   3
HETATM    3  C2  UNL     1      53.073  58.324  41.505  1.00  0.00     0.150 C
HETATM    4  C1  UNL     1      53.897  59.264  40.705  1.00  0.00     0.093 C
HETATM    5  O1  UNL     1      53.697  57.285  41.829  1.00  0.00    -0.296 OA
ENDBRANCH   2   3
BRANCH   2   6
HETATM    6  N1  UNL     1      51.513  58.498  43.341  1.00  0.00    -0.402 N
ATOM      7  H1  UNL     1      50.792  57.907  43.755  1.00  0.00     0.154 HD
BRANCH   6   8
HETATM    8  C4  UNL     1      52.349  59.274  44.150  1.00  0.00     0.077 C
HETATM    9  C5  UNL     1      52.104  60.750  43.951  1.00  0.00     0.024 C
HETATM   10  C6  UNL     1      53.298  61.477  44.573  1.00  0.00     0.002 C
HETATM   11  C7  UNL     1      53.438  61.028  45.984  1.00  0.00     0.000 C
HETATM   12  C8  UNL     1      52.352  60.141  46.498  1.00  0.00     0.002 C
HETATM   13  C9  UNL     1      52.108  58.935  45.638  1.00  0.00     0.024 C
ENDBRANCH   6   8
ENDBRANCH   2   6
ENDBRANCH   1   2
BRANCH   1  14
HETATM   14  C11 UNL     1      49.454  58.122  40.714  1.00  0.00     0.223 C
BRANCH  14  15
HETATM   15  O2  UNL     1      49.061  57.644  39.493  1.00  0.00    -0.380 OA
BRANCH  15  16
HETATM   16  C12 UNL     1      47.691  57.402  39.575  1.00  0.00     0.121 C
HETATM   17  C13 UNL     1      47.289  56.453  40.656  1.00  0.00     0.032 C
HETATM   18  C14 UNL     1      45.761  56.606  40.614  1.00  0.00     0.002 C
HETATM   19  C15 UNL     1      45.609  58.105  40.534  1.00  0.00     0.002 C
HETATM   20  C16 UNL     1      46.906  58.649  39.938  1.00  0.00     0.032 C
ENDBRANCH  15  16
ENDBRANCH  14  15
ENDBRANCH   1  14
BRANCH   1  21
HETATM   21  N2  UNL     1      51.283  56.477  40.651  1.00  0.00    -0.305 N
HETATM   22  C17 UNL     1      50.990  55.105  40.932  1.00  0.00     0.365 C
HETATM   23  O3  UNL     1      50.149  54.773  41.812  1.00  0.00    -0.238 OA
ATOM     24  H2  UNL     1      51.969  56.683  39.925  1.00  0.00     0.170 HD
BRANCH  22  25
HETATM   25  O4  UNL     1      51.598  54.051  40.271  1.00  0.00    -0.294 OA
BRANCH  25  26
HETATM   26  C18 UNL     1      52.575  53.224  40.863  1.00  0.00     0.061 C
HETATM   27  C19 UNL     1      53.886  53.895  41.106  1.00  0.00     0.046 C
HETATM   28  C20 UNL     1      52.837  52.085  39.871  1.00  0.00     0.046 C
HETATM   29  C21 UNL     1      52.063  52.578  42.140  1.00  0.00     0.046 C
ENDBRANCH  25  26
ENDBRANCH  22  25
ENDBRANCH   1  21
TORSDOF 10
ENDMDL