MODEL 2
REMARK VINA RESULT: -7.475508913      1.091      1.326
REMARK  10 active torsions:
REMARK  status: ('A' for Active; 'I' for Inactive)
REMARK    1  A    between atoms: C2_2  and  C3_3
REMARK    2  A    between atoms: C3_3  and  C4_4
REMARK    3  A    between atoms: C4_4  and  C5_5
REMARK    4  A    between atoms: C5_5  and  C6_6
REMARK    5  A    between atoms: C6_6  and  N1_7
REMARK    6  A    between atoms: N1_7  and  C7_9
REMARK    7  A    between atoms: C9_13  and  C10_14
REMARK    8  A    between atoms: C10_14  and  N3_15
REMARK    9  A    between atoms: C13_18  and  C14_19
REMARK   10  A    between atoms: C16_23  and  N5_24
ROOT
HETATM    1  C10 UNL     1      51.416  59.516  42.156  1.00  0.00     0.320 C
ENDROOT
BRANCH   1   2
HETATM    2  C9  UNL     1      51.855  59.604  43.591  1.00  0.00     0.029 A
HETATM    3  C8  UNL     1      52.321  60.675  44.308  1.00  0.00     0.106 A
HETATM    4  N2  UNL     1      52.635  60.481  45.557  1.00  0.00    -0.346 N
HETATM    5  C7  UNL     1      52.489  59.257  46.069  1.00  0.00     0.144 A
ATOM      6  H2  UNL     1      52.986  61.248  46.131  1.00  0.00     0.167 HD
HETATM    7  S2  UNL     1      51.889  58.354  44.753  1.00  0.00    -0.056 SA
BRANCH   5   8
HETATM    8  N1  UNL     1      52.753  58.869  47.302  1.00  0.00    -0.370 N
ATOM      9  H1  UNL     1      53.421  58.125  47.502  1.00  0.00     0.161 HD
BRANCH   8  10
HETATM   10  C6  UNL     1      52.038  59.563  48.358  1.00  0.00     0.121 C
BRANCH  10  11
HETATM   11  C5  UNL     1      50.528  59.298  48.148  1.00  0.00     0.020 C
BRANCH  11  12
HETATM   12  C4  UNL     1      49.874  59.616  49.439  1.00  0.00     0.002 C
BRANCH  12  13
HETATM   13  C3  UNL     1      48.971  60.769  49.414  1.00  0.00    -0.000 C
BRANCH  13  14
HETATM   14  C2  UNL     1      49.505  62.116  49.162  1.00  0.00    -0.005 C
HETATM   15  C1  UNL     1      50.668  62.564  49.978  1.00  0.00     0.005 C
ENDBRANCH  13  14
ENDBRANCH  12  13
ENDBRANCH  11  12
ENDBRANCH  10  11
ENDBRANCH   8  10
ENDBRANCH   5   8
ENDBRANCH   1   2
BRANCH   1  16
HETATM   16  N3  UNL     1      51.371  58.122  41.811  1.00  0.00     0.093 N
HETATM   17  C11 UNL     1      51.742  57.874  40.458  1.00  0.00     0.273 C
HETATM   18  C12 UNL     1      50.459  57.480  39.780  1.00  0.00     0.042 C
HETATM   19  C13 UNL     1      49.729  56.716  40.865  1.00  0.00     0.057 C
HETATM   20  C18 UNL     1      50.073  57.591  42.076  1.00  0.00     0.282 C
BRANCH  19  21
HETATM   21  C14 UNL     1      48.257  56.800  40.551  1.00  0.00     0.007 A
HETATM   22  C15 UNL     1      47.333  55.788  40.564  1.00  0.00     0.105 A
HETATM   23  N4  UNL     1      46.104  56.083  40.257  1.00  0.00    -0.346 N
HETATM   24  C16 UNL     1      45.808  57.346  39.948  1.00  0.00     0.144 A
ATOM     25  H4  UNL     1      45.382  55.363  40.252  1.00  0.00     0.167 HD
HETATM   26  S1  UNL     1      47.309  58.142  40.094  1.00  0.00    -0.057 SA
BRANCH  24  27
HETATM   27  N5  UNL     1      44.633  57.836  39.614  1.00  0.00    -0.375 N
HETATM   28  C17 UNL     1      44.491  59.282  39.715  1.00  0.00     0.148 C
ATOM     29  H5  UNL     1      43.867  57.238  39.302  1.00  0.00     0.161 HD
ENDBRANCH  24  27
ENDBRANCH  19  21
ENDBRANCH   1  16
TORSDOF 10
ENDMDL