MODEL 1
REMARK VINA RESULT: -8.204067104      0.000      0.000
REMARK  11 active torsions:
REMARK  status: ('A' for Active; 'I' for Inactive)
REMARK    1  A    between atoms: C2_2  and  C4_4
REMARK    2  A    between atoms: C4_4  and  C5_5
REMARK    3  A    between atoms: C5_5  and  C6_6
REMARK    4  A    between atoms: C12_15  and  O4_16
REMARK    5  A    between atoms: C12_15  and  C13_18
REMARK    6  A    between atoms: C13_18  and  C14_19
REMARK    7  A    between atoms: C14_19  and  C15_20
REMARK    8  A    between atoms: C17_22  and  C18_23
REMARK    9  A    between atoms: C19_24  and  C20_25
REMARK   10  A    between atoms: C21_26  and  C23_28
REMARK   11  A    between atoms: C23_28  and  O5_29
ROOT
HETATM    1  C6  UNL     1      51.670  59.298  47.144  1.00  0.00     0.074 C
HETATM    2  C7  UNL     1      52.349  58.569  48.289  1.00  0.00     0.029 C
HETATM    3  C8  UNL     1      52.485  60.507  46.810  1.00  0.00     0.153 C
HETATM    4  O1  UNL     1      53.133  61.010  47.703  1.00  0.00    -0.296 OA
HETATM    5  C9  UNL     1      52.543  61.118  45.460  1.00  0.00     0.152 C
HETATM    6  C10 UNL     1      53.951  61.320  44.947  1.00  0.00     0.029 C
HETATM    7  C11 UNL     1      51.769  60.329  44.474  1.00  0.00     0.272 C
HETATM    8  O2  UNL     1      51.835  60.624  43.270  1.00  0.00    -0.264 OA
HETATM    9  O3  UNL     1      50.994  59.286  44.912  1.00  0.00    -0.282 OA
HETATM   10  C12 UNL     1      51.496  58.417  45.982  1.00  0.00     0.185 C
ENDROOT
BRANCH  10  11
HETATM   11  O4  UNL     1      50.372  57.555  46.189  1.00  0.00    -0.364 OA
ATOM     12  H4  UNL     1      50.288  56.954  45.459  1.00  0.00     0.213 HD
ENDBRANCH  10  11
BRANCH  10  13
HETATM   13  C13 UNL     1      52.579  57.623  45.405  1.00  0.00     0.074 C
BRANCH  13  14
HETATM   14  C14 UNL     1      52.317  56.278  44.817  1.00  0.00     0.039 C
BRANCH  14  15
HETATM   15  C15 UNL     1      52.540  56.349  43.331  1.00  0.00    -0.084 C
HETATM   16  C16 UNL     1      53.777  55.848  42.684  1.00  0.00     0.043 C
HETATM   17  C17 UNL     1      51.571  56.885  42.600  1.00  0.00     0.002 C
BRANCH  17  18
HETATM   18  C18 UNL     1      51.685  57.002  41.152  1.00  0.00     0.000 C
HETATM   19  C19 UNL     1      50.701  56.768  40.322  1.00  0.00     0.000 C
BRANCH  19  20
HETATM   20  C20 UNL     1      49.357  56.364  40.669  1.00  0.00     0.004 C
HETATM   21  C21 UNL     1      48.250  56.854  40.185  1.00  0.00    -0.061 C
HETATM   22  C22 UNL     1      48.145  57.933  39.175  1.00  0.00     0.045 C
BRANCH  21  23
HETATM   23  C23 UNL     1      46.927  56.301  40.671  1.00  0.00     0.198 C
BRANCH  23  24
HETATM   24  O5  UNL     1      46.892  54.958  40.281  1.00  0.00    -0.397 OA
ATOM     25  H5  UNL     1      46.893  54.445  41.080  1.00  0.00     0.209 HD
ENDBRANCH  23  24
ENDBRANCH  21  23
ENDBRANCH  19  20
ENDBRANCH  17  18
ENDBRANCH  14  15
ENDBRANCH  13  14
ENDBRANCH  10  13
BRANCH   1  26
HETATM   26  C5  UNL     1      50.334  59.710  47.758  1.00  0.00     0.027 C
BRANCH  26  27
HETATM   27  C4  UNL     1      50.266  59.817  49.223  1.00  0.00     0.034 C
BRANCH  27  28
HETATM   28  C2  UNL     1      50.079  61.275  49.619  1.00  0.00    -0.093 C
HETATM   29  C1  UNL     1      48.989  61.948  49.286  1.00  0.00     0.014 C
HETATM   30  C3  UNL     1      51.133  61.979  50.401  1.00  0.00     0.042 C
ENDBRANCH  27  28
ENDBRANCH  26  27
ENDBRANCH   1  26
TORSDOF 11
ENDMDL