MODEL 4
REMARK VINA RESULT: -7.611860316      2.612      6.021
REMARK  8 active torsions:
REMARK  status: ('A' for Active; 'I' for Inactive)
REMARK    1  A    between atoms: C2_2  and  C4_4
REMARK    2  A    between atoms: C4_4  and  C5_5
REMARK    3  A    between atoms: C5_5  and  S1_6
REMARK    4  A    between atoms: C5_5  and  C9_18
REMARK    5  A    between atoms: S1_6  and  C6_7
REMARK    6  A    between atoms: C6_7  and  C7_8
REMARK    7  A    between atoms: C7_8  and  C8_9
REMARK       I    between atoms: C9_18  and  N5_20
REMARK    8  A    between atoms: N5_20  and  C10_22
ROOT
HETATM    1  C10 UNL     1      53.483  53.511  42.064  1.00  0.00     0.128 C
HETATM    2  C11 UNL     1      53.024  52.788  40.851  1.00  0.00     0.091 C
HETATM    3  N6  UNL     1      52.664  52.237  39.887  1.00  0.00    -0.195 NA
HETATM    4  C12 UNL     1      54.930  53.317  42.245  1.00  0.00     0.025 C
HETATM    5  C13 UNL     1      55.858  54.210  41.472  1.00  0.00     0.014 C
HETATM    6  C14 UNL     1      55.249  51.891  41.783  1.00  0.00     0.008 C
HETATM    7  C15 UNL     1      54.485  50.871  42.558  1.00  0.00     0.001 C
HETATM    8  C16 UNL     1      53.079  51.238  42.872  1.00  0.00     0.008 C
HETATM    9  C17 UNL     1      52.843  52.666  43.221  1.00  0.00     0.025 C
HETATM   10  C18 UNL     1      53.464  53.016  44.532  1.00  0.00     0.014 C
ENDROOT
BRANCH   1  11
HETATM   11  N5  UNL     1      52.941  54.816  42.103  1.00  0.00    -0.337 N
HETATM   12  C9  UNL     1      51.586  55.217  42.104  1.00  0.00     0.233 C
HETATM   13  O1  UNL     1      50.628  54.420  42.076  1.00  0.00    -0.272 OA
ATOM     14  H5  UNL     1      53.622  55.573  42.134  1.00  0.00     0.164 HD
BRANCH  12  15
HETATM   15  C5  UNL     1      51.232  56.683  42.142  1.00  0.00     0.139 C
BRANCH  15  16
HETATM   16  C4  UNL     1      52.128  57.405  43.084  1.00  0.00     0.028 C
BRANCH  16  17
HETATM   17  C2  UNL     1      51.434  58.519  43.820  1.00  0.00    -0.021 C
HETATM   18  C1  UNL     1      51.761  58.510  45.298  1.00  0.00     0.009 C
HETATM   19  C3  UNL     1      51.854  59.885  43.259  1.00  0.00     0.009 C
ENDBRANCH  16  17
ENDBRANCH  15  16
BRANCH  15  20
HETATM   20  S1  UNL     1      51.463  57.243  40.425  1.00  0.00    -0.154 SA
BRANCH  20  21
HETATM   21  C6  UNL     1      49.940  57.951  39.749  1.00  0.00     0.082 C
BRANCH  21  22
HETATM   22  C7  UNL     1      48.925  57.977  40.869  1.00  0.00     0.089 C
BRANCH  22  23
HETATM   23  C8  UNL     1      47.863  56.959  40.659  1.00  0.00     0.113 A
HETATM   24  N1  UNL     1      47.889  55.643  40.865  1.00  0.00    -0.272 N
HETATM   25  N2  UNL     1      46.679  55.196  40.521  1.00  0.00    -0.227 N
ATOM     26  H1  UNL     1      48.673  55.091  41.215  1.00  0.00     0.190 HD
HETATM   27  N3  UNL     1      45.917  56.178  40.115  1.00  0.00    -0.227 N
ATOM     28  H2  UNL     1      46.387  54.220  40.569  1.00  0.00     0.210 HD
HETATM   29  N4  UNL     1      46.641  57.279  40.195  1.00  0.00    -0.272 N
ATOM     30  H3  UNL     1      44.951  56.107  39.796  1.00  0.00     0.210 HD
ATOM     31  H4  UNL     1      46.327  58.217  39.947  1.00  0.00     0.190 HD
ENDBRANCH  22  23
ENDBRANCH  21  22
ENDBRANCH  20  21
ENDBRANCH  15  20
ENDBRANCH  12  15
ENDBRANCH   1  11
TORSDOF 8
ENDMDL