MODEL 4
REMARK VINA RESULT: -7.335330133      1.542      2.534
REMARK  9 active torsions:
REMARK  status: ('A' for Active; 'I' for Inactive)
REMARK    1  A    between atoms: C2_2  and  C3_3
REMARK    2  A    between atoms: C3_3  and  O1_4
REMARK    3  A    between atoms: O1_4  and  C4_5
REMARK    4  A    between atoms: C4_5  and  C5_6
REMARK    5  A    between atoms: C5_6  and  O2_7
REMARK    6  A    between atoms: O2_7  and  C6_8
REMARK    7  A    between atoms: C6_8  and  O3_9
REMARK    8  A    between atoms: O3_9  and  C7_10
REMARK    9  A    between atoms: C19_22  and  O4_24
ROOT
HETATM    1  C7  UNL     1      51.968  57.997  42.857  1.00  0.00     0.133 C
HETATM    2  C8  UNL     1      53.046  57.795  41.846  1.00  0.00     0.071 C
HETATM    3  C9  UNL     1      52.093  59.453  43.322  1.00  0.00     0.065 C
HETATM    4  C10 UNL     1      51.300  59.696  44.565  1.00  0.00     0.041 C
HETATM    5  C11 UNL     1      51.716  58.762  45.611  1.00  0.00    -0.052 C
HETATM    6  C12 UNL     1      52.181  57.568  45.289  1.00  0.00     0.010 C
HETATM    7  C13 UNL     1      52.572  56.715  46.478  1.00  0.00     0.058 C
HETATM    8  C14 UNL     1      51.370  56.628  47.392  1.00  0.00     0.016 C
HETATM    9  C15 UNL     1      50.834  58.000  47.737  1.00  0.00    -0.036 C
HETATM   10  C16 UNL     1      49.382  58.046  47.406  1.00  0.00     0.016 C
HETATM   11  C17 UNL     1      51.007  58.217  49.237  1.00  0.00     0.012 C
HETATM   12  C18 UNL     1      50.466  59.560  49.597  1.00  0.00     0.038 C
HETATM   13  C19 UNL     1      51.026  60.693  48.808  1.00  0.00     0.055 C
HETATM   14  C20 UNL     1      52.390  61.079  49.373  1.00  0.00     0.045 C
HETATM   15  C21 UNL     1      51.124  60.435  47.333  1.00  0.00     0.047 C
HETATM   16  C22 UNL     1      51.657  59.060  47.062  1.00  0.00     0.027 C
HETATM   17  N1  UNL     1      52.309  57.117  43.983  1.00  0.00    -0.362 N
ATOM     18  H1  UNL     1      52.640  56.169  43.804  1.00  0.00     0.162 HD
ENDROOT
BRANCH   1  19
HETATM   19  O3  UNL     1      50.703  57.714  42.488  1.00  0.00    -0.337 OA
BRANCH  19  20
HETATM   20  C6  UNL     1      50.102  58.400  41.497  1.00  0.00     0.341 C
BRANCH  20  21
HETATM   21  O2  UNL     1      49.449  57.677  40.534  1.00  0.00    -0.365 OA
BRANCH  21  22
HETATM   22  C5  UNL     1      49.223  56.379  40.951  1.00  0.00     0.196 C
BRANCH  22  23
HETATM   23  C4  UNL     1      47.796  56.022  40.569  1.00  0.00     0.193 C
BRANCH  23  24
HETATM   24  O1  UNL     1      47.180  57.008  39.845  1.00  0.00    -0.389 OA
BRANCH  24  25
HETATM   25  C3  UNL     1      45.922  57.334  40.302  1.00  0.00     0.167 C
BRANCH  25  26
HETATM   26  C2  UNL     1      45.788  58.854  40.298  1.00  0.00     0.022 C
HETATM   27  C1  UNL     1      44.498  59.210  39.577  1.00  0.00     0.007 C
ENDBRANCH  25  26
ENDBRANCH  24  25
ENDBRANCH  23  24
ENDBRANCH  22  23
ENDBRANCH  21  22
ENDBRANCH  20  21
ENDBRANCH  19  20
ENDBRANCH   1  19
BRANCH  13  28
HETATM   28  O4  UNL     1      50.191  61.796  48.984  1.00  0.00    -0.390 OA
ATOM     29  H4  UNL     1      50.396  62.432  48.307  1.00  0.00     0.210 HD
ENDBRANCH  13  28
TORSDOF 9
ENDMDL