MODEL 4
REMARK VINA RESULT: -7.835260686      1.581      1.744
REMARK  9 active torsions:
REMARK  status: ('A' for Active; 'I' for Inactive)
REMARK    1  A    between atoms: C2_2  and  C3_3
REMARK    2  A    between atoms: C3_3  and  C4_4
REMARK    3  A    between atoms: C4_4  and  N1_5
REMARK    4  A    between atoms: C6_7  and  C7_8
REMARK    5  A    between atoms: C8_11  and  N2_12
REMARK       I    between atoms: N2_12  and  C9_14
REMARK    6  A    between atoms: C9_14  and  C10_16
REMARK    7  A    between atoms: C10_16  and  C11_17
REMARK    8  A    between atoms: C11_17  and  C12_18
REMARK    9  A    between atoms: N3_21  and  C15_22
ROOT
HETATM    1  N2  UNL     1      51.591  56.839  43.111  1.00  0.00    -0.311 N
ATOM      2  H2  UNL     1      52.217  56.036  43.171  1.00  0.00     0.170 HD
HETATM    3  C9  UNL     1      51.499  57.721  44.220  1.00  0.00     0.223 C
HETATM    4  O3  UNL     1      50.744  58.708  44.173  1.00  0.00    -0.273 OA
ENDROOT
BRANCH   1   5
HETATM    5  C8  UNL     1      50.842  57.033  41.920  1.00  0.00     0.141 A
HETATM    6  C6  UNL     1      51.234  57.534  40.714  1.00  0.00     0.103 A
HETATM    7  C5  UNL     1      50.115  57.503  39.912  1.00  0.00     0.132 A
HETATM    8  N1  UNL     1      49.065  56.991  40.625  1.00  0.00    -0.301 N
HETATM    9  N4  UNL     1      49.522  56.715  41.831  1.00  0.00    -0.283 N
ATOM     10  H4  UNL     1      48.965  56.319  42.589  1.00  0.00     0.189 HD
BRANCH   6  11
HETATM   11  C7  UNL     1      52.541  58.009  40.318  1.00  0.00     0.214 C
HETATM   12  O1  UNL     1      52.859  58.198  39.123  1.00  0.00    -0.644 OA
HETATM   13  O2  UNL     1      53.540  58.292  41.252  1.00  0.00    -0.644 OA
ENDBRANCH   6  11
BRANCH   8  14
HETATM   14  C4  UNL     1      47.727  56.826  40.090  1.00  0.00     0.148 C
BRANCH  14  15
HETATM   15  C3  UNL     1      47.011  58.135  40.032  1.00  0.00     0.021 C
BRANCH  15  16
HETATM   16  C2  UNL     1      45.542  57.919  40.286  1.00  0.00    -0.003 C
HETATM   17  C1  UNL     1      44.819  59.195  39.849  1.00  0.00     0.005 C
ENDBRANCH  15  16
ENDBRANCH  14  15
ENDBRANCH   8  14
ENDBRANCH   1   5
BRANCH   3  18
HETATM   18  C10 UNL     1      52.303  57.465  45.430  1.00  0.00     0.103 C
BRANCH  18  19
HETATM   19  C11 UNL     1      51.520  56.739  46.479  1.00  0.00     0.014 C
BRANCH  19  20
HETATM   20  C12 UNL     1      51.414  57.604  47.707  1.00  0.00    -0.011 C
HETATM   21  C13 UNL     1      50.018  58.198  47.730  1.00  0.00     0.024 C
HETATM   22  C14 UNL     1      50.109  59.707  47.993  1.00  0.00     0.118 C
HETATM   23  N3  UNL     1      50.982  59.984  49.088  1.00  0.00    -0.405 N
HETATM   24  C19 UNL     1      52.302  59.475  48.993  1.00  0.00     0.118 C
HETATM   25  C20 UNL     1      52.448  58.724  47.689  1.00  0.00     0.024 C
BRANCH  23  26
HETATM   26  C15 UNL     1      50.847  61.279  49.653  1.00  0.00     0.017 C
HETATM   27  C16 UNL     1      49.576  61.933  49.169  1.00  0.00     0.037 C
HETATM   28  C17 UNL     1      51.989  62.205  49.350  1.00  0.00     0.037 C
HETATM   29  C18 UNL     1      50.755  61.140  51.156  1.00  0.00     0.037 C
ENDBRANCH  23  26
ENDBRANCH  19  20
ENDBRANCH  18  19
ENDBRANCH   3  18
TORSDOF 9
ENDMDL