MODEL 1
REMARK VINA RESULT: -5.777885652      0.000      0.000
REMARK  8 active torsions:
REMARK  status: ('A' for Active; 'I' for Inactive)
REMARK    1  A    between atoms: C2_2  and  C3_3
REMARK    2  A    between atoms: C3_3  and  O1_4
REMARK    3  A    between atoms: O1_4  and  C4_5
REMARK    4  A    between atoms: C5_7  and  C6_8
REMARK    5  A    between atoms: C6_8  and  O3_9
REMARK    6  A    between atoms: C8_11  and  C9_12
REMARK    7  A    between atoms: C9_12  and  C10_13
REMARK    8  A    between atoms: C17_21  and  O5_23
ROOT
HETATM    1  C4  UNL     1      52.696  55.218  42.723  1.00  0.00     0.182 C
HETATM    2  O2  UNL     1      51.814  54.431  43.284  1.00  0.00    -0.342 OA
HETATM    3  C5  UNL     1      51.664  54.248  44.631  1.00  0.00     0.178 C
HETATM    4  C8  UNL     1      52.252  55.250  45.500  1.00  0.00    -0.049 C
HETATM    5  C12 UNL     1      52.460  56.563  45.211  1.00  0.00     0.013 C
HETATM    6  C13 UNL     1      52.097  57.179  43.920  1.00  0.00    -0.037 C
HETATM    7  C14 UNL     1      51.691  58.453  44.108  1.00  0.00     0.058 C
HETATM    8  C15 UNL     1      51.293  59.133  42.885  1.00  0.00     0.152 C
HETATM    9  O4  UNL     1      51.729  60.233  42.581  1.00  0.00    -0.293 OA
HETATM   10  C16 UNL     1      50.310  58.296  42.117  1.00  0.00     0.121 C
HETATM   11  C17 UNL     1      50.888  56.883  41.823  1.00  0.00     0.078 C
HETATM   12  C18 UNL     1      50.956  57.010  40.298  1.00  0.00     0.047 C
HETATM   13  C19 UNL     1      52.132  56.641  42.534  1.00  0.00     0.075 C
HETATM   14  C20 UNL     1      53.339  57.163  41.714  1.00  0.00     0.024 C
HETATM   15  C21 UNL     1      53.585  56.045  40.706  1.00  0.00     0.011 C
HETATM   16  C22 UNL     1      52.880  54.861  41.243  1.00  0.00     0.045 C
HETATM   17  C23 UNL     1      53.656  53.591  41.004  1.00  0.00     0.015 C
ENDROOT
BRANCH   1  18
HETATM   18  O1  UNL     1      53.904  55.505  43.294  1.00  0.00    -0.353 OA
BRANCH  18  19
HETATM   19  C3  UNL     1      54.865  54.730  43.663  1.00  0.00     0.171 C
BRANCH  19  20
HETATM   20  C2  UNL     1      56.209  55.265  43.078  1.00  0.00     0.022 C
HETATM   21  C1  UNL     1      57.312  55.048  44.060  1.00  0.00     0.007 C
ENDBRANCH  19  20
ENDBRANCH  18  19
ENDBRANCH   1  18
BRANCH   3  22
HETATM   22  C6  UNL     1      51.959  52.811  44.919  1.00  0.00     0.203 C
BRANCH  22  23
HETATM   23  O3  UNL     1      51.941  52.036  43.741  1.00  0.00    -0.393 OA
HETATM   24  C7  UNL     1      53.075  51.197  43.855  1.00  0.00     0.201 C
ENDBRANCH  22  23
ENDBRANCH   3  22
BRANCH  11  25
HETATM   25  O5  UNL     1      49.834  56.025  42.153  1.00  0.00    -0.388 OA
ATOM     26  H5  UNL     1      50.247  55.170  42.185  1.00  0.00     0.210 HD
ENDBRANCH  11  25
BRANCH   4  27
HETATM   27  C9  UNL     1      52.692  54.923  46.844  1.00  0.00     0.036 C
BRANCH  27  28
HETATM   28  C10 UNL     1      53.787  55.768  47.412  1.00  0.00    -0.000 C
HETATM   29  C11 UNL     1      55.132  55.027  47.360  1.00  0.00     0.005 C
ENDBRANCH  27  28
ENDBRANCH   4  27
TORSDOF 8
ENDMDL