MODEL 1
REMARK VINA RESULT: -7.712672467      0.000      0.000
REMARK  10 active torsions:
REMARK  status: ('A' for Active; 'I' for Inactive)
REMARK    1  A    between atoms: C3_3  and  C4_4
REMARK    2  A    between atoms: C4_4  and  C5_5
REMARK    3  A    between atoms: C11_14  and  O4_15
REMARK    4  A    between atoms: C11_14  and  C12_17
REMARK    5  A    between atoms: C12_17  and  C13_18
REMARK    6  A    between atoms: C13_18  and  C14_19
REMARK    7  A    between atoms: C17_22  and  C18_23
REMARK    8  A    between atoms: C18_23  and  O5_24
REMARK    9  A    between atoms: C18_23  and  C19_26
REMARK   10  A    between atoms: C19_26  and  C20_27
ROOT
HETATM    1  C1  UNL     1      53.975  59.177  40.679  1.00  0.00     0.015 C
HETATM    2  C2  UNL     1      53.069  58.841  41.388  1.00  0.00    -0.071 C
HETATM    3  C3  UNL     1      51.990  58.422  42.259  1.00  0.00     0.189 C
HETATM    4  O2  UNL     1      50.944  59.341  42.187  1.00  0.00    -0.208 OA
HETATM    5  O3  UNL     1      50.417  59.246  41.036  1.00  0.00    -0.189 OA
HETATM    6  C11 UNL     1      50.506  57.935  40.531  1.00  0.00     0.242 C
HETATM    7  C16 UNL     1      51.259  57.250  41.629  1.00  0.00     0.036 C
HETATM    8  C17 UNL     1      51.373  56.043  42.040  1.00  0.00     0.017 C
ENDROOT
BRANCH   3   9
HETATM    9  C4  UNL     1      52.373  58.172  43.672  1.00  0.00     0.092 C
BRANCH   9  10
HETATM   10  C5  UNL     1      51.577  59.052  44.596  1.00  0.00     0.130 C
HETATM   11  O1  UNL     1      50.416  58.483  45.059  1.00  0.00    -0.380 OA
HETATM   12  C6  UNL     1      50.444  58.496  46.451  1.00  0.00     0.122 C
HETATM   13  C7  UNL     1      51.517  57.540  46.890  1.00  0.00     0.032 C
HETATM   14  C10 UNL     1      51.160  59.836  46.713  1.00  0.00     0.039 C
HETATM   15  C8  UNL     1      52.840  58.244  46.545  1.00  0.00     0.010 C
HETATM   16  C9  UNL     1      52.363  59.465  45.821  1.00  0.00     0.017 C
ENDBRANCH   9  10
ENDBRANCH   3   9
BRANCH   6  17
HETATM   17  O4  UNL     1      51.364  57.953  39.449  1.00  0.00    -0.357 OA
ATOM     18  H4  UNL     1      51.753  57.090  39.369  1.00  0.00     0.214 HD
ENDBRANCH   6  17
BRANCH   6  19
HETATM   19  C12 UNL     1      49.179  57.356  40.287  1.00  0.00     0.044 C
BRANCH  19  20
HETATM   20  C13 UNL     1      48.139  57.978  39.479  1.00  0.00    -0.025 C
BRANCH  20  21
HETATM   21  C14 UNL     1      46.786  58.249  39.980  1.00  0.00     0.022 C
HETATM   22  C15 UNL     1      45.907  57.096  40.236  1.00  0.00     0.009 C
ENDBRANCH  20  21
ENDBRANCH  19  20
ENDBRANCH   6  19
BRANCH   8  23
HETATM   23  C18 UNL     1      50.794  54.769  41.618  1.00  0.00     0.142 C
BRANCH  23  24
HETATM   24  O5  UNL     1      49.591  54.582  42.379  1.00  0.00    -0.392 OA
ATOM     25  H5  UNL     1      48.905  54.350  41.763  1.00  0.00     0.210 HD
ENDBRANCH  23  24
BRANCH  23  26
HETATM   26  C19 UNL     1      51.692  53.583  41.921  1.00  0.00     0.039 C
BRANCH  26  27
HETATM   27  C20 UNL     1      52.670  53.394  40.766  1.00  0.00    -0.020 C
HETATM   28  C21 UNL     1      52.696  51.977  40.290  1.00  0.00     0.009 C
HETATM   29  C22 UNL     1      54.078  53.760  41.201  1.00  0.00     0.009 C
ENDBRANCH  26  27
ENDBRANCH  23  26
ENDBRANCH   8  23
TORSDOF 10
ENDMDL