MODEL 3
REMARK VINA RESULT: -6.682491952      2.907      8.053
REMARK  12 active torsions:
REMARK  status: ('A' for Active; 'I' for Inactive)
REMARK    1  A    between atoms: C2_2  and  O1_5
REMARK    2  A    between atoms: O1_5  and  C5_6
REMARK    3  A    between atoms: C5_6  and  C6_8
REMARK    4  A    between atoms: C10_12  and  C11_13
REMARK    5  A    between atoms: C11_13  and  C12_14
REMARK    6  A    between atoms: C12_14  and  C13_15
REMARK    7  A    between atoms: C13_15  and  C14_16
REMARK    8  A    between atoms: C14_16  and  C15_17
REMARK    9  A    between atoms: C15_17  and  C16_18
REMARK   10  A    between atoms: C16_18  and  C17_19
REMARK   11  A    between atoms: C17_19  and  O3_20
REMARK   12  A    between atoms: N1_22  and  O4_24
ROOT
HETATM    1  C6  UNL     1      51.565  58.853  42.977  1.00  0.00     0.155 A
HETATM    2  C7  UNL     1      52.547  57.747  43.083  1.00  0.00     0.043 A
HETATM    3  C8  UNL     1      51.325  57.873  44.003  1.00  0.00     0.022 A
HETATM    4  C9  UNL     1      51.517  58.323  45.369  1.00  0.00     0.027 C
HETATM    5  C10 UNL     1      51.663  59.784  45.491  1.00  0.00     0.110 C
HETATM    6  S1  UNL     1      51.989  60.349  43.831  1.00  0.00     0.167 S
HETATM    7  O5  UNL     1      53.468  60.608  43.701  1.00  0.00    -0.226 OA
HETATM    8  O6  UNL     1      51.156  61.504  43.441  1.00  0.00    -0.226 OA
ENDROOT
BRANCH   5   9
HETATM    9  C11 UNL     1      52.813  60.198  46.398  1.00  0.00     0.020 C
BRANCH   9  10
HETATM   10  C12 UNL     1      52.356  61.176  47.447  1.00  0.00     0.001 C
BRANCH  10  11
HETATM   11  C13 UNL     1      51.351  60.524  48.346  1.00  0.00     0.000 C
BRANCH  11  12
HETATM   12  C14 UNL     1      50.133  61.376  48.558  1.00  0.00     0.000 C
BRANCH  12  13
HETATM   13  C15 UNL     1      50.317  62.255  49.754  1.00  0.00     0.008 C
BRANCH  13  14
HETATM   14  C16 UNL     1      51.487  61.961  50.621  1.00  0.00     0.086 C
BRANCH  14  15
HETATM   15  C17 UNL     1      52.382  63.121  50.787  1.00  0.00     0.135 C
HETATM   16  N1  UNL     1      53.621  62.968  51.204  1.00  0.00    -0.251 N
ATOM     17  H1  UNL     1      54.235  63.774  51.316  1.00  0.00     0.196 HD
BRANCH  15  18
HETATM   18  O3  UNL     1      51.923  64.394  50.503  1.00  0.00    -0.348 OA
ATOM     19  H3  UNL     1      51.170  64.740  50.968  1.00  0.00     0.219 HD
ENDBRANCH  15  18
BRANCH  16  20
HETATM   20  O4  UNL     1      54.066  61.706  51.481  1.00  0.00    -0.288 OA
ATOM     21  H4  UNL     1      53.442  60.991  51.472  1.00  0.00     0.244 HD
ENDBRANCH  16  20
ENDBRANCH  14  15
ENDBRANCH  13  14
ENDBRANCH  12  13
ENDBRANCH  11  12
ENDBRANCH  10  11
ENDBRANCH   9  10
ENDBRANCH   5   9
BRANCH   1  22
HETATM   22  C5  UNL     1      50.624  58.921  41.841  1.00  0.00     0.283 C
HETATM   23  O2  UNL     1      50.789  59.796  40.967  1.00  0.00    -0.263 OA
BRANCH  22  24
HETATM   24  O1  UNL     1      49.594  58.037  41.759  1.00  0.00    -0.310 OA
BRANCH  24  25
HETATM   25  C2  UNL     1      49.385  57.132  40.698  1.00  0.00     0.060 C
HETATM   26  C1  UNL     1      50.615  56.402  40.274  1.00  0.00     0.045 C
HETATM   27  C3  UNL     1      48.742  57.811  39.499  1.00  0.00     0.045 C
HETATM   28  C4  UNL     1      48.380  56.100  41.190  1.00  0.00     0.045 C
ENDBRANCH  24  25
ENDBRANCH  22  24
ENDBRANCH   1  22
TORSDOF 12
ENDMDL