MODEL 5
REMARK VINA RESULT: -6.130410918      1.300      1.588
REMARK  8 active torsions:
REMARK  status: ('A' for Active; 'I' for Inactive)
REMARK       I    between atoms: N2_3  and  C2_5
REMARK    1  A    between atoms: C2_5  and  C3_7
REMARK    2  A    between atoms: C5_9  and  N3_10
REMARK    3  A    between atoms: N3_10  and  C6_12
REMARK    4  A    between atoms: C6_12  and  C7_13
REMARK    5  A    between atoms: N4_15  and  C9_16
REMARK    6  A    between atoms: C10_17  and  N5_18
REMARK    7  A    between atoms: C15_26  and  N7_27
REMARK    8  A    between atoms: C16_32  and  N9_33
ROOT
HETATM    1  N1  UNL     1       2.831  48.054  -2.641  1.00  0.00    -0.172 NA
HETATM    2  C1  UNL     1       3.695  47.443  -2.176  1.00  0.00     0.184 C
HETATM    3  N2  UNL     1       4.742  46.724  -1.597  1.00  0.00    -0.258 N
ATOM      4  H2  UNL     1       5.695  46.888  -1.922  1.00  0.00     0.181 HD
HETATM    5  C2  UNL     1       4.517  45.775  -0.575  1.00  0.00     0.283 C
HETATM    6  O1  UNL     1       3.348  45.553  -0.160  1.00  0.00    -0.265 OA
ENDROOT
BRANCH   5   7
HETATM    7  C3  UNL     1       5.643  45.056  -0.007  1.00  0.00     0.127 A
HETATM    8  C4  UNL     1       6.943  45.125  -0.459  1.00  0.00     0.095 A
HETATM    9  C5  UNL     1       7.667  44.270   0.374  1.00  0.00     0.168 A
HETATM   10  O3  UNL     1       6.825  43.749   1.245  1.00  0.00    -0.220 OA
HETATM   11  N12 UNL     1       5.641  44.208   1.024  1.00  0.00    -0.254 N
ATOM     12  H12 UNL     1       4.813  43.957   1.564  1.00  0.00     0.195 HD
BRANCH   9  13
HETATM   13  N3  UNL     1       9.049  44.009   0.301  1.00  0.00    -0.363 N
ATOM     14  H3  UNL     1       9.639  44.252   1.097  1.00  0.00     0.162 HD
BRANCH  13  15
HETATM   15  C6  UNL     1       9.651  43.415  -0.850  1.00  0.00     0.181 C
BRANCH  15  16
HETATM   16  C7  UNL     1      10.398  44.414  -1.647  1.00  0.00     0.062 A
HETATM   17  C8  UNL     1      10.717  45.700  -1.276  1.00  0.00     0.146 A
HETATM   18  N4  UNL     1      11.409  46.276  -2.299  1.00  0.00    -0.244 N
HETATM   19  N10 UNL     1      11.494  45.361  -3.242  1.00  0.00    -0.236 N
HETATM   20  N11 UNL     1      10.891  44.231  -2.870  1.00  0.00    -0.287 N
ATOM     21  H10 UNL     1      11.960  45.497  -4.140  1.00  0.00     0.209 HD
ATOM     22  H11 UNL     1      10.820  43.378  -3.424  1.00  0.00     0.188 HD
BRANCH  18  23
HETATM   23  C9  UNL     1      11.901  47.613  -2.235  1.00  0.00     0.145 A
HETATM   24  C10 UNL     1      11.136  48.678  -2.651  1.00  0.00     0.152 A
HETATM   25  N6  UNL     1      11.670  49.930  -2.544  1.00  0.00    -0.174 N
HETATM   26  C15 UNL     1      12.887  50.192  -2.063  1.00  0.00     0.679 A
ATOM     27  H6  UNL     1      11.101  50.718  -2.853  1.00  0.00     0.186 HD
HETATM   28  N8  UNL     1      13.640  49.147  -1.655  1.00  0.00    -0.175 N
HETATM   29  C16 UNL     1      13.161  47.896  -1.739  1.00  0.00     0.147 A
ATOM     30  H8  UNL     1      14.576  49.309  -1.282  1.00  0.00     0.186 HD
BRANCH  24  31
HETATM   31  N5  UNL     1       9.846  48.484  -3.178  1.00  0.00    -0.361 N
HETATM   32  C11 UNL     1       9.698  48.114  -4.567  1.00  0.00     0.150 C
HETATM   33  C12 UNL     1       8.614  47.021  -4.563  1.00  0.00     0.187 C
HETATM   34  O2  UNL     1       7.453  47.672  -4.223  1.00  0.00    -0.388 OA
HETATM   35  C13 UNL     1       7.420  48.081  -2.916  1.00  0.00     0.187 C
HETATM   36  C14 UNL     1       8.690  48.622  -2.357  1.00  0.00     0.150 C
ENDBRANCH  24  31
BRANCH  26  37
HETATM   37  N7  UNL     1      13.375  51.384  -1.971  1.00  0.00    -0.234 N
ATOM     38  H72 UNL     1      12.924  52.140  -2.484  1.00  0.00     0.174 HD
ATOM     39  H71 UNL     1      14.194  51.615  -1.409  1.00  0.00     0.174 HD
ENDBRANCH  26  37
BRANCH  29  40
HETATM   40  N9  UNL     1      13.906  46.926  -1.343  1.00  0.00    -0.383 N
ATOM     41  H92 UNL     1      13.518  46.254  -0.681  1.00  0.00     0.157 HD
ATOM     42  H91 UNL     1      14.859  46.859  -1.700  1.00  0.00     0.157 HD
ENDBRANCH  29  40
ENDBRANCH  18  23
ENDBRANCH  15  16
ENDBRANCH  13  15
ENDBRANCH   9  13
ENDBRANCH   5   7
TORSDOF 8
ENDMDL