MODEL 1
REMARK VINA RESULT: -6.625744297      0.000      0.000
REMARK  10 active torsions:
REMARK  status: ('A' for Active; 'I' for Inactive)
REMARK    1  A    between atoms: C2_2  and  S1_4
REMARK    2  A    between atoms: S1_4  and  C3_5
REMARK    3  A    between atoms: C3_5  and  C4_7
REMARK    4  A    between atoms: C4_7  and  O3_8
REMARK    5  A    between atoms: C6_13  and  N2_14
REMARK    6  A    between atoms: C10_22  and  C11_23
REMARK    7  A    between atoms: C11_23  and  N4_24
REMARK    8  A    between atoms: N4_24  and  C12_26
REMARK    9  A    between atoms: C13_27  and  N5_28
REMARK   10  A    between atoms: N5_28  and  N6_30
ROOT
HETATM    1  C4  UNL     1       8.828  47.334  -2.872  1.00  0.00     0.375 C
HETATM    2  C5  UNL     1       7.430  47.048  -2.357  1.00  0.00     0.111 A
HETATM    3  N1  UNL     1       6.286  47.645  -2.723  1.00  0.00    -0.190 N
ATOM      4  H1  UNL     1       6.296  48.376  -3.433  1.00  0.00     0.184 HD
HETATM    5  C6  UNL     1       5.137  47.280  -2.157  1.00  0.00     0.676 A
HETATM    6  N3  UNL     1       5.124  46.317  -1.222  1.00  0.00    -0.196 N
ATOM      7  H3  UNL     1       4.241  46.044  -0.791  1.00  0.00     0.184 HD
HETATM    8  C7  UNL     1       6.284  45.701  -0.841  1.00  0.00     0.033 A
HETATM    9  C8  UNL     1       6.204  44.678   0.183  1.00  0.00     0.069 C
HETATM   10  C9  UNL     1       7.480  46.056  -1.407  1.00  0.00     0.028 A
HETATM   11  C10 UNL     1       8.853  45.671  -1.298  1.00  0.00     0.282 C
HETATM   12  N7  UNL     1       9.517  46.145  -2.453  1.00  0.00     0.145 N
HETATM   13  C16 UNL     1       9.595  45.268  -3.586  1.00  0.00     0.316 C
ENDROOT
BRANCH  11  14
HETATM   14  C11 UNL     1       9.186  44.273  -0.915  1.00  0.00     0.161 C
BRANCH  14  15
HETATM   15  N4  UNL     1       9.903  44.060   0.285  1.00  0.00    -0.382 N
ATOM     16  H4  UNL     1      10.815  44.485   0.454  1.00  0.00     0.160 HD
BRANCH  15  17
HETATM   17  C12 UNL     1       9.264  43.201   1.257  1.00  0.00     0.115 A
HETATM   18  C13 UNL     1       8.994  43.301   2.613  1.00  0.00     0.132 A
HETATM   19  C14 UNL     1       8.394  42.052   2.616  1.00  0.00     0.254 A
HETATM   20  O4  UNL     1       7.839  41.306   3.460  1.00  0.00    -0.281 OA
HETATM   21  C15 UNL     1       8.668  41.963   1.267  1.00  0.00     0.252 A
HETATM   22  O5  UNL     1       8.461  41.092   0.371  1.00  0.00    -0.281 OA
BRANCH  18  23
HETATM   23  N5  UNL     1       9.240  44.295   3.595  1.00  0.00    -0.301 N
ATOM     24  H5  UNL     1       9.879  45.054   3.357  1.00  0.00     0.186 HD
BRANCH  23  25
HETATM   25  N6  UNL     1       8.665  44.299   4.864  1.00  0.00    -0.344 N
ATOM     26  H62 UNL     1       8.618  43.404   5.352  1.00  0.00     0.176 HD
ATOM     27  H61 UNL     1       8.296  45.132   5.322  1.00  0.00     0.176 HD
ENDBRANCH  23  25
ENDBRANCH  18  23
ENDBRANCH  15  17
ENDBRANCH  14  15
ENDBRANCH  11  14
BRANCH   1  28
HETATM   28  C3  UNL     1       9.362  48.561  -2.289  1.00  0.00     0.266 C
HETATM   29  O2  UNL     1       8.554  49.535  -2.334  1.00  0.00    -0.279 OA
BRANCH  28  30
HETATM   30  S1  UNL     1      10.891  48.874  -1.561  1.00  0.00    -0.010 SA
BRANCH  30  31
HETATM   31  C2  UNL     1      11.531  47.921  -0.286  1.00  0.00     0.189 C
HETATM   32  C1  UNL     1      12.480  46.785  -0.655  1.00  0.00     0.105 C
HETATM   33  O1  UNL     1      11.336  48.021   0.898  1.00  0.00    -0.285 OA
ENDBRANCH  30  31
ENDBRANCH  28  30
ENDBRANCH   1  28
BRANCH   1  34
HETATM   34  O3  UNL     1       8.743  47.392  -4.268  1.00  0.00    -0.352 OA
ATOM     35  H3  UNL     1       9.250  46.712  -4.695  1.00  0.00     0.213 HD
ENDBRANCH   1  34
BRANCH   5  36
HETATM   36  N2  UNL     1       4.020  47.864  -2.515  1.00  0.00    -0.234 N
ATOM     37  H22 UNL     1       3.988  48.875  -2.636  1.00  0.00     0.174 HD
ATOM     38  H21 UNL     1       3.183  47.303  -2.671  1.00  0.00     0.174 HD
ENDBRANCH   5  36
TORSDOF 10
ENDMDL