MODEL 2
REMARK VINA RESULT: -7.207618157      2.862      7.055
REMARK  8 active torsions:
REMARK  status: ('A' for Active; 'I' for Inactive)
REMARK    1  A    between atoms: N2_3  and  S1_5
REMARK    2  A    between atoms: S1_5  and  C2_8
REMARK    3  A    between atoms: C4_10  and  N3_11
REMARK    4  A    between atoms: C7_16  and  N4_17
REMARK    5  A    between atoms: N4_17  and  N5_19
REMARK    6  A    between atoms: N5_19  and  N6_21
REMARK    7  A    between atoms: N6_21  and  C8_23
REMARK    8  A    between atoms: C9_24  and  C10_25
REMARK       I    between atoms: C10_25  and  N7_27
REMARK       I    between atoms: N7_27  and  C11_29
ROOT
HETATM    1  N1  UNL     1       9.335  49.013  -1.942  1.00  0.00    -0.171 NA
HETATM    2  C1  UNL     1       9.447  47.885  -2.170  1.00  0.00     0.192 C
HETATM    3  N2  UNL     1       9.572  46.483  -2.428  1.00  0.00    -0.216 N
ATOM      4  H2  UNL     1       9.924  46.133  -3.320  1.00  0.00     0.191 HD
ENDROOT
BRANCH   3   5
HETATM    5  S1  UNL     1       9.108  45.433  -1.182  1.00  0.00     0.273 S
HETATM    6  O1  UNL     1       9.492  44.012  -1.507  1.00  0.00    -0.200 OA
HETATM    7  O2  UNL     1       9.885  45.834   0.065  1.00  0.00    -0.200 OA
BRANCH   5   8
HETATM    8  C2  UNL     1       7.395  45.480  -0.851  1.00  0.00     0.110 A
HETATM    9  C3  UNL     1       6.545  46.274  -1.564  1.00  0.00     0.063 A
HETATM   10  C4  UNL     1       5.177  46.277  -1.252  1.00  0.00     0.104 A
HETATM   11  C5  UNL     1       4.664  45.492  -0.239  1.00  0.00     0.038 A
HETATM   12  C6  UNL     1       5.516  44.691   0.479  1.00  0.00     0.035 A
HETATM   13  C7  UNL     1       6.892  44.671   0.188  1.00  0.00     0.073 A
BRANCH  10  14
HETATM   14  N3  UNL     1       4.291  47.127  -1.968  1.00  0.00    -0.116 N
HETATM   15  O3  UNL     1       3.093  47.238  -1.631  1.00  0.00    -0.532 OA
HETATM   16  O4  UNL     1       4.741  47.852  -3.034  1.00  0.00    -0.532 OA
ENDBRANCH  10  14
BRANCH  13  17
HETATM   17  N4  UNL     1       7.728  43.820   0.935  1.00  0.00    -0.285 N
ATOM     18  H4  UNL     1       7.920  42.881   0.586  1.00  0.00     0.188 HD
BRANCH  17  19
HETATM   19  N5  UNL     1       8.297  44.225   2.133  1.00  0.00    -0.242 N
ATOM     20  H5  UNL     1       7.777  44.870   2.729  1.00  0.00     0.208 HD
BRANCH  19  21
HETATM   21  N6  UNL     1       9.456  43.818   2.523  1.00  0.00    -0.278 N
ATOM     22  H6  UNL     1      10.256  44.445   2.434  1.00  0.00     0.189 HD
BRANCH  21  23
HETATM   23  C8  UNL     1       9.653  42.515   3.076  1.00  0.00     0.161 A
HETATM   24  C9  UNL     1       8.941  42.054   4.190  1.00  0.00     0.157 A
HETATM   25  N10 UNL     1       9.375  40.769   4.373  1.00  0.00    -0.249 N
HETATM   26  O6  UNL     1      10.248  40.470   3.478  1.00  0.00    -0.193 OA
ATOM     27  H10 UNL     1       9.054  40.142   5.110  1.00  0.00     0.195 HD
HETATM   28  C12 UNL     1      10.459  41.474   2.674  1.00  0.00     0.335 A
HETATM   29  O7  UNL     1      11.266  41.515   1.681  1.00  0.00    -0.255 OA
BRANCH  24  30
HETATM   30  C10 UNL     1       8.014  42.776   5.070  1.00  0.00     0.279 C
HETATM   31  O5  UNL     1       7.690  43.920   5.032  1.00  0.00    -0.265 OA
HETATM   32  N7  UNL     1       7.413  41.894   6.158  1.00  0.00    -0.296 N
HETATM   33  C11 UNL     1       6.593  42.391   7.004  1.00  0.00     0.188 C
ATOM     34  H7  UNL     1       7.665  40.908   6.211  1.00  0.00     0.171 HD
HETATM   35  N8  UNL     1       5.736  42.909   7.889  1.00  0.00    -0.373 N
HETATM   36  N9  UNL     1       6.164  40.848   7.705  1.00  0.00    -0.064 NA
ATOM     37  H82 UNL     1       5.986  43.809   7.480  1.00  0.00     0.158 HD
ATOM     38  H81 UNL     1       5.082  43.305   8.564  1.00  0.00     0.158 HD
ENDBRANCH  24  30
ENDBRANCH  21  23
ENDBRANCH  19  21
ENDBRANCH  17  19
ENDBRANCH  13  17
ENDBRANCH   5   8
ENDBRANCH   3   5
TORSDOF 8
ENDMDL