MODEL 3
REMARK VINA RESULT: -4.739639480      2.676      4.408
REMARK  9 active torsions:
REMARK  status: ('A' for Active; 'I' for Inactive)
REMARK    1  A    between atoms: C2_2  and  N1_3
REMARK    2  A    between atoms: C2_2  and  C10_27
REMARK    3  A    between atoms: C4_8  and  N3_9
REMARK    4  A    between atoms: C5_14  and  N5_15
REMARK    5  A    between atoms: N5_15  and  N6_16
REMARK    6  A    between atoms: N8_29  and  C12_30
REMARK    7  A    between atoms: C12_30  and  C13_31
REMARK    8  A    between atoms: C13_31  and  S1_32
REMARK    9  A    between atoms: S1_32  and  C14_33
ROOT
HETATM    1  C14 UNL     1      11.972  50.350  -3.334  1.00  0.00     0.197 C
HETATM    2  C15 UNL     1      11.693  48.940  -3.470  1.00  0.00     0.069 C
HETATM    3  N9  UNL     1      11.460  47.823  -3.556  1.00  0.00    -0.197 NA
ENDROOT
BRANCH   1   4
HETATM    4  S1  UNL     1      11.406  51.388  -4.673  1.00  0.00    -0.153 SA
BRANCH   4   5
HETATM    5  C13 UNL     1       9.668  51.776  -4.628  1.00  0.00     0.096 C
BRANCH   5   6
HETATM    6  C12 UNL     1       8.914  51.097  -5.742  1.00  0.00     0.160 C
BRANCH   6   7
HETATM    7  N8  UNL     1       8.730  49.688  -5.371  1.00  0.00    -0.286 N
HETATM    8  C11 UNL     1       8.120  49.296  -4.210  1.00  0.00     0.140 A
HETATM    9  C10 UNL     1       8.132  47.916  -4.200  1.00  0.00     0.066 A
HETATM   10  N11 UNL     1       8.724  47.519  -5.308  1.00  0.00    -0.287 N
HETATM   11  N10 UNL     1       9.071  48.593  -5.987  1.00  0.00    -0.241 N
ATOM     12  H11 UNL     1       8.883  46.552  -5.591  1.00  0.00     0.188 HD
ATOM     13  H10 UNL     1       9.551  48.570  -6.887  1.00  0.00     0.208 HD
BRANCH   9  14
HETATM   14  C2  UNL     1       7.563  47.063  -3.079  1.00  0.00     0.132 C
HETATM   15  C1  UNL     1       6.485  47.862  -2.389  1.00  0.00     0.039 C
BRANCH  14  16
HETATM   16  N1  UNL     1       8.575  46.584  -2.305  1.00  0.00    -0.364 N
HETATM   17  C3  UNL     1       9.141  45.943  -1.487  1.00  0.00     0.153 C
HETATM   18  N2  UNL     1      10.488  46.154  -1.337  1.00  0.00    -0.174 N
HETATM   19  C7  UNL     1       8.485  45.009  -0.710  1.00  0.00     0.147 C
HETATM   20  C4  UNL     1      11.439  45.307  -0.875  1.00  0.00     0.680 C
ATOM     21  H2  UNL     1      10.820  47.078  -1.611  1.00  0.00     0.186 HD
HETATM   22  N4  UNL     1      11.343  44.060  -0.407  1.00  0.00    -0.160 N
HETATM   23  C5  UNL     1      10.229  43.264  -0.231  1.00  0.00     0.246 C
ATOM     24  H4  UNL     1      12.228  43.630  -0.139  1.00  0.00     0.187 HD
HETATM   25  C6  UNL     1       8.966  43.855  -0.112  1.00  0.00     0.129 C
HETATM   26  N7  UNL     1       8.324  42.954   0.786  1.00  0.00    -0.362 N
HETATM   27  C9  UNL     1       6.892  42.998   1.060  1.00  0.00     0.293 C
ATOM     28  H7  UNL     1       8.890  42.247   1.257  1.00  0.00     0.162 HD
HETATM   29  O2  UNL     1       6.474  44.345   1.159  1.00  0.00    -0.348 OA
HETATM   30  C8  UNL     1       6.067  44.863  -0.064  1.00  0.00     0.347 C
HETATM   31  O1  UNL     1       7.194  45.497  -0.656  1.00  0.00    -0.320 OA
ATOM     32  H1  UNL     1       9.352  47.138  -2.666  1.00  0.00     0.162 HD
BRANCH  20  33
HETATM   33  N3  UNL     1      12.654  45.812  -0.898  1.00  0.00    -0.234 N
ATOM     34  H32 UNL     1      12.828  46.569  -0.236  1.00  0.00     0.174 HD
ATOM     35  H31 UNL     1      13.269  45.375  -1.584  1.00  0.00     0.174 HD
ENDBRANCH  20  33
BRANCH  23  36
HETATM   36  N5  UNL     1      10.301  42.091  -0.193  1.00  0.00    -0.311 NA
BRANCH  36  37
HETATM   37  N6  UNL     1      10.371  40.817  -0.158  1.00  0.00    -0.278 N
ATOM     38  H62 UNL     1      10.262  41.768   0.194  1.00  0.00     0.191 HD
ATOM     39  H61 UNL     1      10.429  39.799  -0.139  1.00  0.00     0.191 HD
ENDBRANCH  36  37
ENDBRANCH  23  36
ENDBRANCH  14  16
ENDBRANCH   9  14
ENDBRANCH   6   7
ENDBRANCH   5   6
ENDBRANCH   4   5
ENDBRANCH   1   4
TORSDOF 9
ENDMDL