MODEL 5
REMARK VINA RESULT: -6.565167224      3.245      6.157
REMARK  10 active torsions:
REMARK  status: ('A' for Active; 'I' for Inactive)
REMARK    1  A    between atoms: O1_3  and  N2_4
REMARK    2  A    between atoms: N2_4  and  N3_5
REMARK    3  A    between atoms: N3_5  and  C2_7
REMARK    4  A    between atoms: C2_7  and  C3_11
REMARK    5  A    between atoms: C4_14  and  N6_15
REMARK    6  A    between atoms: N6_15  and  S1_17
REMARK    7  A    between atoms: S1_17  and  C5_20
REMARK    8  A    between atoms: C7_22  and  N7_23
REMARK    9  A    between atoms: C9_27  and  N8_28
REMARK   10  A    between atoms: C11_34  and  N10_35
ROOT
HETATM    1  N1  UNL     1      11.841  47.788   1.112  1.00  0.00    -0.162 NA
HETATM    2  C1  UNL     1      11.509  46.821   0.564  1.00  0.00     0.250 C
HETATM    3  O1  UNL     1      11.140  45.698  -0.087  1.00  0.00    -0.144 OA
ENDROOT
BRANCH   3   4
HETATM    4  N2  UNL     1      11.625  45.275  -1.276  1.00  0.00     0.039 NA
BRANCH   4   5
HETATM    5  N3  UNL     1      11.156  44.018  -1.662  1.00  0.00    -0.260 N
ATOM      6  H3  UNL     1      10.755  43.375  -0.980  1.00  0.00     0.186 HD
BRANCH   5   7
HETATM    7  C2  UNL     1      11.256  43.663  -3.027  1.00  0.00     0.158 C
HETATM    8  N4  UNL     1      12.011  42.676  -3.352  1.00  0.00    -0.382 N
ATOM      9  H42 UNL     1      12.514  42.183  -2.613  1.00  0.00     0.157 HD
ATOM     10  H41 UNL     1      12.083  42.420  -4.336  1.00  0.00     0.157 HD
BRANCH   7  11
HETATM   11  C3  UNL     1      10.539  44.366  -4.079  1.00  0.00     0.181 A
HETATM   12  N5  UNL     1      10.113  45.633  -3.935  1.00  0.00    -0.171 N
HETATM   13  C4  UNL     1       9.449  46.292  -4.903  1.00  0.00     0.708 A
ATOM     14  H5  UNL     1      10.300  46.116  -3.056  1.00  0.00     0.186 HD
HETATM   15  N9  UNL     1       9.229  45.609  -6.045  1.00  0.00    -0.022 N
HETATM   16  C11 UNL     1       9.651  44.336  -6.205  1.00  0.00     0.692 A
ATOM     17  H9  UNL     1       8.730  46.066  -6.809  1.00  0.00     0.203 HD
HETATM   18  N11 UNL     1      10.313  43.695  -5.225  1.00  0.00    -0.172 N
ATOM     19  H11 UNL     1      10.632  42.733  -5.345  1.00  0.00     0.186 HD
BRANCH  13  20
HETATM   20  N6  UNL     1       9.040  47.508  -4.763  1.00  0.00    -0.112 N
ATOM     21  H6  UNL     1       8.853  48.099  -5.574  1.00  0.00     0.197 HD
BRANCH  20  22
HETATM   22  S1  UNL     1       8.820  48.101  -3.163  1.00  0.00     0.276 S
HETATM   23  O2  UNL     1      10.130  48.017  -2.403  1.00  0.00    -0.200 OA
HETATM   24  O3  UNL     1       8.499  49.580  -3.279  1.00  0.00    -0.200 OA
BRANCH  22  25
HETATM   25  C5  UNL     1       7.557  47.255  -2.320  1.00  0.00     0.085 A
HETATM   26  C6  UNL     1       6.230  47.599  -2.477  1.00  0.00     0.061 A
HETATM   27  C7  UNL     1       5.218  46.927  -1.806  1.00  0.00     0.106 A
HETATM   28  C8  UNL     1       5.551  45.889  -0.962  1.00  0.00     0.072 A
HETATM   29  C9  UNL     1       6.873  45.518  -0.784  1.00  0.00     0.106 A
HETATM   30  C10 UNL     1       7.856  46.212  -1.469  1.00  0.00     0.061 A
BRANCH  27  31
HETATM   31  N7  UNL     1       3.857  47.288  -1.973  1.00  0.00    -0.116 N
HETATM   32  O4  UNL     1       3.553  48.283  -2.640  1.00  0.00    -0.532 OA
HETATM   33  O5  UNL     1       2.878  46.531  -1.393  1.00  0.00    -0.532 OA
ENDBRANCH  27  31
BRANCH  29  34
HETATM   34  N8  UNL     1       7.224  44.447   0.086  1.00  0.00    -0.116 N
HETATM   35  O6  UNL     1       6.400  44.044   0.925  1.00  0.00    -0.532 OA
HETATM   36  O7  UNL     1       8.443  43.827   0.045  1.00  0.00    -0.532 OA
ENDBRANCH  29  34
ENDBRANCH  22  25
ENDBRANCH  20  22
ENDBRANCH  13  20
BRANCH  16  37
HETATM   37  N10 UNL     1       9.447  43.669  -7.291  1.00  0.00    -0.234 N
ATOM     38 2H10 UNL     1       8.996  44.173  -8.055  1.00  0.00     0.174 HD
ATOM     39 1H10 UNL     1       9.718  42.691  -7.393  1.00  0.00     0.174 HD
ENDBRANCH  16  37
ENDBRANCH   7  11
ENDBRANCH   5   7
ENDBRANCH   4   5
ENDBRANCH   3   4
TORSDOF 10
ENDMDL