MODEL 4
REMARK VINA RESULT: -5.256353834      2.792      9.143
REMARK  11 active torsions:
REMARK  status: ('A' for Active; 'I' for Inactive)
REMARK    1  A    between atoms: O1_2  and  C2_3
REMARK    2  A    between atoms: C2_3  and  C3_5
REMARK    3  A    between atoms: C4_9  and  O3_10
REMARK    4  A    between atoms: C5_12  and  C6_13
REMARK    5  A    between atoms: C6_13  and  O4_14
REMARK    6  A    between atoms: C6_13  and  N3_16
REMARK    7  A    between atoms: N3_16  and  N4_17
REMARK    8  A    between atoms: N4_17  and  C7_19
REMARK    9  A    between atoms: C7_19  and  C8_20
REMARK   10  A    between atoms: C9_23  and  N6_24
REMARK   11  A    between atoms: C11_31  and  N8_32
ROOT
HETATM    1  C6  UNL     1       8.352  48.524  -4.723  1.00  0.00     0.269 C
ENDROOT
BRANCH   1   2
HETATM    2  C5  UNL     1       8.049  47.683  -3.561  1.00  0.00     0.155 A
HETATM    3  C4  UNL     1       6.917  47.338  -2.881  1.00  0.00     0.197 A
HETATM    4  N2  UNL     1       7.194  46.422  -1.877  1.00  0.00    -0.207 N
HETATM    5  N1  UNL     1       6.533  45.793  -0.987  1.00  0.00    -0.278 N
HETATM    6  C14 UNL     1       8.499  46.220  -1.958  1.00  0.00     0.175 A
HETATM    7  C3  UNL     1       7.094  44.961  -0.164  1.00  0.00     0.169 A
ATOM      8  H1  UNL     1       5.528  45.949  -0.919  1.00  0.00     0.188 HD
HETATM    9  S1  UNL     1       8.758  45.071  -0.686  1.00  0.00    -0.027 SA
HETATM   10  N9  UNL     1       9.059  46.944  -2.940  1.00  0.00    -0.327 N
ATOM     11  H9  UNL     1      10.048  46.954  -3.188  1.00  0.00     0.168 HD
BRANCH   3  12
HETATM   12  O3  UNL     1       5.674  47.876  -3.204  1.00  0.00    -0.343 OA
ATOM     13  H3  UNL     1       5.438  48.331  -4.005  1.00  0.00     0.219 HD
ENDBRANCH   3  12
BRANCH   7  14
HETATM   14  C2  UNL     1       6.631  44.100   0.927  1.00  0.00     0.318 C
HETATM   15  O2  UNL     1       5.513  43.535   0.854  1.00  0.00    -0.257 OA
BRANCH  14  16
HETATM   16  O1  UNL     1       7.429  43.927   2.024  1.00  0.00    -0.321 OA
HETATM   17  C1  UNL     1       8.062  42.650   2.162  1.00  0.00     0.213 C
ENDBRANCH  14  16
ENDBRANCH   7  14
ENDBRANCH   1   2
BRANCH   1  18
HETATM   18  O4  UNL     1       8.594  47.718  -5.817  1.00  0.00    -0.332 OA
ATOM     19  H4  UNL     1       7.960  47.011  -5.831  1.00  0.00     0.220 HD
ENDBRANCH   1  18
BRANCH   1  20
HETATM   20  N3  UNL     1       8.429  49.832  -4.899  1.00  0.00    -0.302 NA
BRANCH  20  21
HETATM   21  N4  UNL     1       8.508  51.120  -5.075  1.00  0.00    -0.264 N
ATOM     22  H4  UNL     1       8.004  51.725  -4.426  1.00  0.00     0.195 HD
BRANCH  21  23
HETATM   23  C7  UNL     1       9.262  51.739  -6.129  1.00  0.00     0.213 C
BRANCH  23  24
HETATM   24  C8  UNL     1       8.672  51.251  -7.459  1.00  0.00     0.078 A
HETATM   25  N5  UNL     1       7.359  51.519  -7.679  1.00  0.00    -0.192 N
HETATM   26  C9  UNL     1       6.835  51.263  -8.934  1.00  0.00     0.679 A
ATOM     27  H5  UNL     1       6.773  51.900  -6.936  1.00  0.00     0.184 HD
HETATM   28  N7  UNL     1       7.577  50.773  -9.881  1.00  0.00    -0.154 N
HETATM   29  C10 UNL     1       8.893  50.501  -9.665  1.00  0.00     0.288 A
ATOM     30  H7  UNL     1       7.168  50.590 -10.797  1.00  0.00     0.187 HD
HETATM   31  O5  UNL     1       9.631  50.028 -10.556  1.00  0.00    -0.265 OA
HETATM   32  C11 UNL     1       9.474  50.746  -8.401  1.00  0.00     0.124 A
BRANCH  26  33
HETATM   33  N6  UNL     1       5.539  51.579  -9.058  1.00  0.00    -0.234 N
ATOM     34  H62 UNL     1       5.135  52.091  -9.842  1.00  0.00     0.174 HD
ATOM     35  H61 UNL     1       4.959  51.269  -8.279  1.00  0.00     0.174 HD
ENDBRANCH  26  33
BRANCH  32  36
HETATM   36  N8  UNL     1      10.828  50.381  -8.230  1.00  0.00    -0.384 N
HETATM   37  C12 UNL     1      11.094  49.010  -7.768  1.00  0.00     0.149 C
HETATM   38  C13 UNL     1      11.957  51.262  -8.491  1.00  0.00     0.149 C
ENDBRANCH  32  36
ENDBRANCH  23  24
ENDBRANCH  21  23
ENDBRANCH  20  21
ENDBRANCH   1  20
TORSDOF 11
ENDMDL