MODEL 1
REMARK VINA RESULT: -6.221485344      0.000      0.000
REMARK  11 active torsions:
REMARK  status: ('A' for Active; 'I' for Inactive)
REMARK    1  A    between atoms: N1_2  and  C2_4
REMARK    2  A    between atoms: C3_7  and  C4_8
REMARK    3  A    between atoms: C4_8  and  N3_9
REMARK    4  A    between atoms: C7_13  and  C8_14
REMARK    5  A    between atoms: C11_24  and  C12_25
REMARK    6  A    between atoms: C12_25  and  N8_26
REMARK    7  A    between atoms: C12_25  and  N9_29
REMARK    8  A    between atoms: N9_29  and  O1_31
REMARK    9  A    between atoms: N11_35  and  C13_36
REMARK   10  A    between atoms: C13_36  and  C14_37
REMARK   11  A    between atoms: C14_37  and  N12_38
ROOT
HETATM    1  N3  UNL     1       8.872  44.965  -0.591  1.00  0.00    -0.382 N
ATOM      2  H3  UNL     1       9.874  44.778  -0.579  1.00  0.00     0.160 HD
HETATM    3  C5  UNL     1       8.457  45.887  -1.410  1.00  0.00     0.045 A
HETATM    4  C6  UNL     1       7.111  46.129  -1.415  1.00  0.00     0.053 A
HETATM    5  C7  UNL     1       6.412  47.029  -2.164  1.00  0.00     0.055 A
HETATM    6  S1  UNL     1       7.419  47.928  -3.201  1.00  0.00    -0.066 SA
HETATM    7  C9  UNL     1       9.061  47.525  -3.090  1.00  0.00     0.107 A
HETATM    8  C10 UNL     1       9.416  46.521  -2.182  1.00  0.00     0.058 A
HETATM    9  C11 UNL     1      10.791  46.404  -2.303  1.00  0.00     0.108 A
HETATM   10  N10 UNL     1      11.191  47.344  -3.276  1.00  0.00    -0.293 N
ATOM     11  H10 UNL     1      12.152  47.492  -3.581  1.00  0.00     0.187 HD
HETATM   12  N11 UNL     1      10.166  47.990  -3.725  1.00  0.00    -0.282 N
ENDROOT
BRANCH   1  13
HETATM   13  C4  UNL     1       8.061  44.192   0.291  1.00  0.00     0.198 C
BRANCH  13  14
HETATM   14  C3  UNL     1       8.648  44.034   1.652  1.00  0.00     0.130 A
HETATM   15  N2  UNL     1       8.135  43.526   2.776  1.00  0.00    -0.176 N
HETATM   16  C2  UNL     1       9.049  43.593   3.774  1.00  0.00     0.693 A
ATOM     17  H2  UNL     1       7.194  43.144   2.869  1.00  0.00     0.185 HD
HETATM   18  N14 UNL     1      10.141  44.157   3.229  1.00  0.00    -0.131 N
HETATM   19  N13 UNL     1       9.898  44.421   1.958  1.00  0.00    -0.273 N
ATOM     20  H14 UNL     1      11.014  44.351   3.719  1.00  0.00     0.205 HD
ATOM     21  H13 UNL     1      10.558  44.852   1.309  1.00  0.00     0.189 HD
BRANCH  16  22
HETATM   22  N1  UNL     1       8.977  43.226   4.992  1.00  0.00    -0.229 N
HETATM   23  C1  UNL     1       7.781  43.278   5.795  1.00  0.00     0.165 C
ATOM     24  H1  UNL     1       9.826  42.870   5.430  1.00  0.00     0.177 HD
ENDBRANCH  16  22
ENDBRANCH  13  14
ENDBRANCH   1  13
BRANCH   5  25
HETATM   25  C8  UNL     1       4.971  47.173  -2.059  1.00  0.00     0.148 A
HETATM   26  N4  UNL     1       4.233  48.080  -2.712  1.00  0.00    -0.269 N
HETATM   27  N5  UNL     1       2.945  47.927  -2.379  1.00  0.00    -0.007 NA
ATOM     28  H4  UNL     1       4.595  48.780  -3.360  1.00  0.00     0.185 HD
HETATM   29  N6  UNL     1       2.871  46.927  -1.521  1.00  0.00    -0.007 NA
HETATM   30  N7  UNL     1       4.109  46.464  -1.323  1.00  0.00    -0.269 N
ATOM     31  H7  UNL     1       4.358  45.690  -0.707  1.00  0.00     0.185 HD
ENDBRANCH   5  25
BRANCH   9  32
HETATM   32  C12 UNL     1      11.756  45.567  -1.659  1.00  0.00     0.148 C
BRANCH  32  33
HETATM   33  N8  UNL     1      12.306  44.364  -2.043  1.00  0.00    -0.382 N
ATOM     34  H82 UNL     1      11.788  43.933  -2.809  1.00  0.00     0.157 HD
ATOM     35  H81 UNL     1      13.119  43.858  -1.691  1.00  0.00     0.157 HD
ENDBRANCH  32  33
BRANCH  32  36
HETATM   36  N9  UNL     1      12.235  45.986  -0.479  1.00  0.00    -0.251 N
ATOM     37  H9  UNL     1      13.247  46.036  -0.363  1.00  0.00     0.196 HD
BRANCH  36  38
HETATM   38  O1  UNL     1      11.463  46.343   0.560  1.00  0.00    -0.288 OA
ATOM     39  H1  UNL     1      11.751  46.327   1.465  1.00  0.00     0.244 HD
ENDBRANCH  36  38
ENDBRANCH  32  36
ENDBRANCH   9  32
BRANCH  12  40
HETATM   40  C13 UNL     1      10.085  49.039  -4.723  1.00  0.00     0.177 C
BRANCH  40  41
HETATM   41  C14 UNL     1      10.204  50.403  -4.060  1.00  0.00     0.251 C
BRANCH  41  42
HETATM   42  N12 UNL     1       9.016  51.178  -4.248  1.00  0.00    -0.078 N
ATOM     43 3H12 UNL     1       8.944  51.525  -5.204  1.00  0.00     0.274 HD
ATOM     44 2H12 UNL     1       8.181  50.593  -4.229  1.00  0.00     0.274 HD
ATOM     45 1H12 UNL     1       8.957  51.937  -3.569  1.00  0.00     0.274 HD
ENDBRANCH  41  42
ENDBRANCH  40  41
ENDBRANCH  12  40
TORSDOF 11
ENDMDL