MODEL 5
REMARK VINA RESULT: -5.332687522      1.831      2.462
REMARK  10 active torsions:
REMARK  status: ('A' for Active; 'I' for Inactive)
REMARK    1  A    between atoms: C2_3  and  N2_4
REMARK    2  A    between atoms: C3_6  and  O1_7
REMARK    3  A    between atoms: C3_6  and  C4_9
REMARK    4  A    between atoms: C4_9  and  S1_10
REMARK    5  A    between atoms: S1_10  and  C5_11
REMARK    6  A    between atoms: N4_19  and  C9_20
REMARK    7  A    between atoms: C10_26  and  N7_27
REMARK    8  A    between atoms: C12_31  and  N8_32
REMARK    9  A    between atoms: C13_35  and  C14_36
REMARK   10  A    between atoms: C14_36  and  N9_37
ROOT
HETATM    1  C4  UNL     1      11.880  45.483  -0.663  1.00  0.00     0.165 C
ENDROOT
BRANCH   1   2
HETATM    2  C3  UNL     1      11.310  46.649   0.088  1.00  0.00     0.126 C
HETATM    3  N2  UNL     1      10.747  47.786  -0.258  1.00  0.00    -0.326 N
ATOM      4  H2  UNL     1      10.446  48.349   0.537  1.00  0.00     0.169 HD
BRANCH   3   5
HETATM    5  C2  UNL     1      10.468  48.399  -1.537  1.00  0.00     0.111 A
HETATM    6  N1  UNL     1      11.324  49.149  -2.293  1.00  0.00    -0.337 N
HETATM    7  C1  UNL     1      12.538  49.750  -1.718  1.00  0.00     0.158 C
HETATM    8  C13 UNL     1      10.797  49.425  -3.500  1.00  0.00     0.071 A
HETATM    9  C12 UNL     1       9.486  48.816  -3.433  1.00  0.00     0.130 A
HETATM   10  C11 UNL     1       9.356  48.211  -2.289  1.00  0.00     0.086 A
BRANCH   8  11
HETATM   11  C14 UNL     1      11.282  50.246  -4.594  1.00  0.00     0.289 C
BRANCH  11  12
HETATM   12  N9  UNL     1      10.672  51.625  -4.449  1.00  0.00    -0.074 N
ATOM     13  H93 UNL     1       9.679  51.595  -4.220  1.00  0.00     0.274 HD
ATOM     14  H92 UNL     1      10.991  52.111  -3.611  1.00  0.00     0.274 HD
ATOM     15  H91 UNL     1      10.865  52.145  -5.306  1.00  0.00     0.274 HD
ENDBRANCH  11  12
ENDBRANCH   8  11
BRANCH   9  16
HETATM   16  N8  UNL     1       8.632  48.870  -4.563  1.00  0.00    -0.113 N
HETATM   17  O5  UNL     1       8.044  49.881  -4.937  1.00  0.00    -0.532 OA
HETATM   18  O6  UNL     1       8.440  47.712  -5.317  1.00  0.00    -0.532 OA
ENDBRANCH   9  16
ENDBRANCH   3   5
BRANCH   2  19
HETATM   19  O1  UNL     1      11.458  46.410   1.396  1.00  0.00    -0.349 OA
ATOM     20  H1  UNL     1      11.577  45.506   1.664  1.00  0.00     0.219 HD
ENDBRANCH   2  19
ENDBRANCH   1   2
BRANCH   1  21
HETATM   21  S1  UNL     1      10.871  44.038  -0.586  1.00  0.00    -0.103 SA
BRANCH  21  22
HETATM   22  C5  UNL     1       9.193  44.222  -0.183  1.00  0.00     0.088 A
HETATM   23  C6  UNL     1       8.257  45.022  -0.741  1.00  0.00     0.112 A
HETATM   24  C7  UNL     1       6.967  44.991  -0.321  1.00  0.00     0.251 A
HETATM   25  O2  UNL     1       6.146  45.786  -0.892  1.00  0.00    -0.268 OA
HETATM   26  N3  UNL     1       6.547  44.175   0.665  1.00  0.00    -0.275 N
HETATM   27  C8  UNL     1       7.459  43.384   1.253  1.00  0.00     0.336 A
ATOM     28  H3  UNL     1       5.569  44.159   0.955  1.00  0.00     0.173 HD
HETATM   29  O3  UNL     1       7.105  42.605   2.177  1.00  0.00    -0.246 OA
HETATM   30  N4  UNL     1       8.731  43.410   0.849  1.00  0.00    -0.238 N
BRANCH  30  31
HETATM   31  C9  UNL     1       9.735  42.636   1.505  1.00  0.00     0.185 A
HETATM   32  N5  UNL     1      10.159  41.415   1.259  1.00  0.00    -0.221 N
HETATM   33  O4  UNL     1      11.124  41.146   2.076  1.00  0.00    -0.153 OA
ATOM     34  H5  UNL     1       9.789  40.787   0.545  1.00  0.00     0.198 HD
HETATM   35  N6  UNL     1      11.370  42.133   2.827  1.00  0.00    -0.222 N
HETATM   36  C10 UNL     1      10.513  43.150   2.539  1.00  0.00     0.168 A
ATOM     37  H6  UNL     1      12.099  42.162   3.539  1.00  0.00     0.198 HD
BRANCH  36  38
HETATM   38  N7  UNL     1      10.356  44.303   3.111  1.00  0.00    -0.381 N
ATOM     39  H72 UNL     1      10.874  45.174   2.994  1.00  0.00     0.157 HD
ATOM     40  H71 UNL     1       9.698  44.516   3.859  1.00  0.00     0.157 HD
ENDBRANCH  36  38
ENDBRANCH  30  31
ENDBRANCH  21  22
ENDBRANCH   1  21
TORSDOF 10
ENDMDL