MODEL 5
REMARK VINA RESULT: -6.528187752      3.160      4.844
REMARK  6 active torsions:
REMARK  status: ('A' for Active; 'I' for Inactive)
REMARK       I    between atoms: N1_2  and  C2_4
REMARK    1  A    between atoms: C2_4  and  C3_6
REMARK    2  A    between atoms: C4_10  and  C5_11
REMARK    3  A    between atoms: C5_11  and  S1_12
REMARK    4  A    between atoms: S1_12  and  C6_13
REMARK    5  A    between atoms: C10_21  and  N5_22
REMARK    6  A    between atoms: C11_27  and  N7_28
ROOT
HETATM    1  C6  UNL     1       8.023  43.065   0.886  1.00  0.00     0.161 A
HETATM    2  N3  UNL     1       6.714  43.130   1.210  1.00  0.00    -0.278 N
ATOM      3  H3  UNL     1       6.231  42.530   1.879  1.00  0.00     0.189 HD
HETATM    4  N4  UNL     1       6.172  44.102   0.512  1.00  0.00    -0.282 N
ATOM      5  H4  UNL     1       5.189  44.371   0.564  1.00  0.00     0.188 HD
HETATM    6  C7  UNL     1       7.095  44.704  -0.289  1.00  0.00     0.149 A
HETATM    7  C8  UNL     1       6.812  45.810  -1.173  1.00  0.00     0.098 A
HETATM    8  C9  UNL     1       5.537  46.333  -1.238  1.00  0.00     0.082 A
HETATM    9  C10 UNL     1       5.222  47.388  -2.065  1.00  0.00     0.117 A
HETATM   10  N6  UNL     1       6.178  47.929  -2.833  1.00  0.00    -0.177 N
ATOM     11  H6  UNL     1       5.966  48.711  -3.452  1.00  0.00     0.185 HD
HETATM   12  C11 UNL     1       7.423  47.420  -2.771  1.00  0.00     0.682 A
HETATM   13  N9  UNL     1       7.736  46.376  -1.954  1.00  0.00    -0.188 N
ATOM     14  H9  UNL     1       8.692  46.021  -1.937  1.00  0.00     0.184 HD
HETATM   15  N10 UNL     1       8.224  44.031  -0.025  1.00  0.00    -0.319 N
ATOM     16  H10 UNL     1       9.124  44.228  -0.462  1.00  0.00     0.169 HD
ENDROOT
BRANCH   1  17
HETATM   17  S1  UNL     1       9.223  41.904   1.586  1.00  0.00    -0.084 SA
BRANCH  17  18
HETATM   18  C5  UNL     1      10.464  42.907   2.466  1.00  0.00     0.169 C
BRANCH  18  19
HETATM   19  C4  UNL     1      10.936  43.959   1.547  1.00  0.00     0.158 A
HETATM   20  O2  UNL     1      11.461  43.650   0.363  1.00  0.00    -0.222 OA
HETATM   21  N2  UNL     1      11.795  44.723  -0.258  1.00  0.00    -0.238 N
HETATM   22  C3  UNL     1      11.496  45.779   0.509  1.00  0.00     0.196 A
ATOM     23  H2  UNL     1      12.218  44.764  -1.185  1.00  0.00     0.196 HD
HETATM   24  N11 UNL     1      10.956  45.275   1.637  1.00  0.00    -0.318 N
ATOM     25  H11 UNL     1      10.620  45.822   2.430  1.00  0.00     0.169 HD
BRANCH  22  26
HETATM   26  C2  UNL     1      11.696  47.182   0.215  1.00  0.00     0.287 C
HETATM   27  N1  UNL     1      11.814  47.658  -1.118  1.00  0.00    -0.359 N
HETATM   28  C1  UNL     1      12.015  49.060  -1.427  1.00  0.00     0.149 C
ATOM     29  H1  UNL     1      11.754  46.990  -1.886  1.00  0.00     0.162 HD
HETATM   30  O1  UNL     1      11.765  47.984   1.204  1.00  0.00    -0.264 OA
ENDBRANCH  22  26
ENDBRANCH  18  19
ENDBRANCH  17  18
ENDBRANCH   1  17
BRANCH   9  31
HETATM   31  N5  UNL     1       4.031  47.874  -2.118  1.00  0.00    -0.385 N
ATOM     32  H52 UNL     1       3.288  47.316  -2.542  1.00  0.00     0.157 HD
ATOM     33  H51 UNL     1       3.813  48.800  -1.752  1.00  0.00     0.157 HD
ENDBRANCH   9  31
BRANCH  12  34
HETATM   34  N7  UNL     1       8.390  48.023  -3.627  1.00  0.00    -0.214 N
HETATM   35  C12 UNL     1       8.664  49.429  -3.454  1.00  0.00     0.160 C
HETATM   36  C13 UNL     1       9.830  49.952  -4.219  1.00  0.00     0.134 C
HETATM   37  N8  UNL     1      10.281  49.178  -5.321  1.00  0.00    -0.418 N
HETATM   38  C14 UNL     1       9.416  48.142  -5.779  1.00  0.00     0.134 C
ATOM     39  H8  UNL     1      11.182  49.355  -5.764  1.00  0.00     0.153 HD
HETATM   40  C15 UNL     1       9.048  47.205  -4.617  1.00  0.00     0.160 C
ENDBRANCH  12  34
TORSDOF 6
ENDMDL