MODEL 5
REMARK VINA RESULT: -7.150353417      1.530      2.459
REMARK  11 active torsions:
REMARK  status: ('A' for Active; 'I' for Inactive)
REMARK    1  A    between atoms: C2_5  and  O2_6
REMARK    2  A    between atoms: C4_9  and  N2_10
REMARK    3  A    between atoms: C7_13  and  C8_14
REMARK    4  A    between atoms: C8_14  and  N3_15
REMARK    5  A    between atoms: N3_15  and  N4_17
REMARK       I    between atoms: N4_17  and  C9_19
REMARK       I    between atoms: C9_19  and  N6_24
REMARK    6  A    between atoms: N5_20  and  O3_22
REMARK    7  A    between atoms: N6_24  and  N7_26
REMARK    8  A    between atoms: C10_28  and  C11_29
REMARK    9  A    between atoms: C13_31  and  N8_32
REMARK   10  A    between atoms: C15_36  and  O6_37
REMARK   11  A    between atoms: C16_39  and  O7_40
ROOT
HETATM    1  N4  UNL     1      11.288  46.571  -0.310  1.00  0.00    -0.129 N
ATOM      2  H4  UNL     1      10.703  47.396  -0.177  1.00  0.00     0.205 HD
HETATM    3  C9  UNL     1      10.882  45.389   0.340  1.00  0.00     0.731 C
HETATM    4  N5  UNL     1      11.309  45.055   1.513  1.00  0.00    -0.096 N
ATOM      5  H5  UNL     1      11.967  45.664   1.999  1.00  0.00     0.213 HD
HETATM    6  N6  UNL     1       9.965  44.529  -0.325  1.00  0.00    -0.129 N
ATOM      7  H6  UNL     1      10.222  43.568  -0.551  1.00  0.00     0.205 HD
ENDROOT
BRANCH   1   8
HETATM    8  N3  UNL     1      12.397  46.717  -1.107  1.00  0.00    -0.296 N
ATOM      9  H3  UNL     1      13.327  46.670  -0.691  1.00  0.00     0.186 HD
BRANCH   8  10
HETATM   10  C8  UNL     1      12.277  46.913  -2.371  1.00  0.00     0.127 C
BRANCH  10  11
HETATM   11  C7  UNL     1      11.118  47.636  -2.890  1.00  0.00     0.075 A
HETATM   12  C1  UNL     1       9.987  46.949  -3.264  1.00  0.00     0.261 A
HETATM   13  O1  UNL     1       9.992  45.694  -3.142  1.00  0.00    -0.267 OA
HETATM   14  N1  UNL     1       8.930  47.624  -3.739  1.00  0.00    -0.303 N
HETATM   15  C2  UNL     1       8.997  48.948  -3.839  1.00  0.00     0.144 A
ATOM     16  H1  UNL     1       8.084  47.128  -4.019  1.00  0.00     0.171 HD
HETATM   17  C3  UNL     1      10.101  49.679  -3.479  1.00  0.00     0.086 A
HETATM   18  C4  UNL     1      11.197  49.030  -2.992  1.00  0.00     0.051 A
BRANCH  15  19
HETATM   19  O2  UNL     1       7.890  49.645  -4.335  1.00  0.00    -0.346 OA
ATOM     20  H2  UNL     1       8.020  50.513  -4.699  1.00  0.00     0.219 HD
ENDBRANCH  15  19
BRANCH  18  21
HETATM   21  N2  UNL     1      12.389  49.714  -2.595  1.00  0.00    -0.377 N
HETATM   22  C5  UNL     1      13.321  50.368  -1.719  1.00  0.00     0.143 A
HETATM   23  C6  UNL     1      13.695  50.259  -3.140  1.00  0.00     0.143 A
ENDBRANCH  18  21
ENDBRANCH  10  11
ENDBRANCH   8  10
ENDBRANCH   1   8
BRANCH   4  24
HETATM   24  O3  UNL     1      10.891  43.896   2.117  1.00  0.00    -0.276 OA
ATOM     25  H3  UNL     1      11.454  43.426   2.721  1.00  0.00     0.245 HD
ENDBRANCH   4  24
BRANCH   6  26
HETATM   26  N7  UNL     1       8.702  45.032  -0.661  1.00  0.00    -0.297 N
HETATM   27  C10 UNL     1       7.708  44.651   0.038  1.00  0.00     0.122 C
ATOM     28  H7  UNL     1       8.583  45.680  -1.439  1.00  0.00     0.186 HD
BRANCH  27  29
HETATM   29  C11 UNL     1       6.368  45.157  -0.285  1.00  0.00     0.019 A
HETATM   30  C12 UNL     1       6.153  46.147  -1.210  1.00  0.00     0.052 A
HETATM   31  C13 UNL     1       4.902  46.644  -1.535  1.00  0.00     0.106 A
HETATM   32  C14 UNL     1       3.799  46.122  -0.900  1.00  0.00     0.075 A
HETATM   33  C15 UNL     1       3.988  45.128   0.032  1.00  0.00     0.102 A
HETATM   34  C16 UNL     1       5.232  44.640   0.349  1.00  0.00     0.110 A
BRANCH  31  35
HETATM   35  N8  UNL     1       4.744  47.670  -2.500  1.00  0.00    -0.116 N
HETATM   36  O4  UNL     1       5.753  48.009  -3.181  1.00  0.00    -0.532 OA
HETATM   37  O5  UNL     1       3.532  48.251  -2.662  1.00  0.00    -0.532 OA
ENDBRANCH  31  35
BRANCH  33  38
HETATM   38  O6  UNL     1       2.888  44.595   0.676  1.00  0.00    -0.358 OA
ATOM     39  H6  UNL     1       2.768  44.768   1.602  1.00  0.00     0.217 HD
ENDBRANCH  33  38
BRANCH  34  40
HETATM   40  O7  UNL     1       5.484  43.642   1.275  1.00  0.00    -0.357 OA
ATOM     41  H7  UNL     1       4.861  42.924   1.270  1.00  0.00     0.217 HD
ENDBRANCH  34  40
ENDBRANCH  27  29
ENDBRANCH   6  26
TORSDOF 11
ENDMDL