MODEL 3
REMARK VINA RESULT: -2.073379181      1.436      3.831
REMARK  1 active torsions:
REMARK  status: ('A' for Active; 'I' for Inactive)
REMARK    1  A    between atoms: C3_3  and  N1_4
REMARK       I    between atoms: N1_4  and  C6_7
REMARK       I    between atoms: C6_7  and  N3_11
ROOT
HETATM    1  C1  UNL     1      82.204  69.112  -8.789  1.00  0.00     0.113 C
HETATM    2  C2  UNL     1      83.153  68.954  -9.897  1.00  0.00    -0.080 C
HETATM    3  C3  UNL     1      83.939  68.830 -10.805  1.00  0.00     0.124 C
ENDROOT
BRANCH   3   4
HETATM    4  N1  UNL     1      84.875  68.663 -11.865  1.00  0.00     0.050 N
HETATM    5  C4  UNL     1      84.619  69.628 -12.910  1.00  0.00     0.300 C
HETATM    6  C5  UNL     1      84.600  67.336 -12.443  1.00  0.00     0.300 C
HETATM    7  C6  UNL     1      86.188  68.694 -11.361  1.00  0.00     0.289 C
HETATM    8  N2  UNL     1      86.789  69.755 -10.999  1.00  0.00    -0.359 N
HETATM    9  N3  UNL     1      86.895  67.466 -11.245  1.00  0.00    -0.359 N
HETATM   10  C7  UNL     1      86.317  71.097 -11.010  1.00  0.00     0.149 C
ATOM     11  H2  UNL     1      87.739  69.626 -10.653  1.00  0.00     0.162 HD
HETATM   12  C8  UNL     1      87.107  66.841  -9.969  1.00  0.00     0.149 C
ATOM     13  H3  UNL     1      87.260  67.019 -12.086  1.00  0.00     0.162 HD
ENDBRANCH   3   4
TORSDOF 1
ENDMDL