MODEL 2
REMARK VINA RESULT: -4.947440466      1.030      1.084
REMARK  1 active torsions:
REMARK  status: ('A' for Active; 'I' for Inactive)
REMARK    1  A    between atoms: C2_2  and  N1_3
REMARK       I    between atoms: C3_5  and  N2_6
REMARK       I    between atoms: C3_5  and  N4_11
ROOT
HETATM    1  N1  UNL     1      84.894  69.086  -9.748  1.00  0.00    -0.227 N
ATOM      2  H1  UNL     1      84.544  69.133  -8.791  1.00  0.00     0.177 HD
HETATM    3  C3  UNL     1      84.016  69.007 -10.638  1.00  0.00     0.676 C
HETATM    4  N2  UNL     1      82.651  68.985 -10.311  1.00  0.00    -0.183 N
ATOM      5  H2  UNL     1      82.019  68.549 -10.982  1.00  0.00     0.185 HD
HETATM    6  C4  UNL     1      82.132  69.462  -9.247  1.00  0.00     0.105 C
HETATM    7  C5  UNL     1      80.675  69.375  -9.021  1.00  0.00     0.086 C
HETATM    8  N3  UNL     1      82.917  70.093  -8.241  1.00  0.00    -0.087 NA
HETATM    9  N4  UNL     1      84.382  68.936 -11.994  1.00  0.00    -0.227 N
HETATM   10  C6  UNL     1      84.429  67.657 -12.672  1.00  0.00     0.168 C
HETATM   11  C7  UNL     1      84.718  70.120 -12.750  1.00  0.00     0.168 C
ENDROOT
BRANCH   1  12
HETATM   12  C2  UNL     1      86.313  69.121  -9.883  1.00  0.00     0.133 C
HETATM   13  C1  UNL     1      86.949  67.826 -10.245  1.00  0.00     0.027 C
ENDBRANCH   1  12
TORSDOF 1
ENDMDL