MODEL 2
REMARK VINA RESULT: -6.109535689      0.160      1.017
REMARK  5 active torsions:
REMARK  status: ('A' for Active; 'I' for Inactive)
REMARK    1  A    between atoms: C2_2  and  C4_4
REMARK    2  A    between atoms: C4_4  and  N1_5
REMARK    3  A    between atoms: C4_4  and  C5_9
REMARK    4  A    between atoms: C6_10  and  C7_11
REMARK    5  A    between atoms: C8_12  and  C9_13
ROOT
HETATM    1  C9  UNL     1      81.377  69.249  -8.756  1.00  0.00    -0.015 C
HETATM    2  C10 UNL     1      80.729  69.551  -7.774  1.00  0.00    -0.097 C
HETATM    3  C11 UNL     1      79.957  69.938  -6.580  1.00  0.00     0.113 C
ENDROOT
BRANCH   1   4
HETATM    4  C8  UNL     1      82.152  68.910  -9.890  1.00  0.00    -0.011 C
HETATM    5  C7  UNL     1      82.821  68.639 -10.857  1.00  0.00    -0.065 C
BRANCH   5   6
HETATM    6  C6  UNL     1      83.645  68.331 -12.020  1.00  0.00     0.064 C
HETATM    7  C5  UNL     1      84.772  68.997 -12.225  1.00  0.00     0.019 C
BRANCH   7   8
HETATM    8  C4  UNL     1      85.212  70.067 -11.270  1.00  0.00     0.234 C
BRANCH   8   9
HETATM    9  C2  UNL     1      86.557  69.701 -10.750  1.00  0.00    -0.059 C
HETATM   10  C1  UNL     1      86.674  69.361  -9.474  1.00  0.00     0.016 C
HETATM   11  C3  UNL     1      87.738  69.724 -11.670  1.00  0.00     0.045 C
ENDBRANCH   8   9
BRANCH   8  12
HETATM   12  N1  UNL     1      85.307  71.347 -11.975  1.00  0.00    -0.068 N
ATOM     13  H13 UNL     1      84.760  72.080 -11.524  1.00  0.00     0.275 HD
ATOM     14  H12 UNL     1      86.227  71.776 -11.880  1.00  0.00     0.275 HD
ATOM     15  H11 UNL     1      85.041  71.209 -12.950  1.00  0.00     0.275 HD
ENDBRANCH   8  12
ENDBRANCH   7   8
ENDBRANCH   5   6
ENDBRANCH   1   4
TORSDOF 5
ENDMDL