MODEL 2
REMARK VINA RESULT: -5.277093005      1.254      2.142
REMARK  3 active torsions:
REMARK  status: ('A' for Active; 'I' for Inactive)
REMARK    1  A    between atoms: N2_3  and  C2_4
REMARK    2  A    between atoms: N2_3  and  C5_7
REMARK    3  A    between atoms: C5_7  and  N3_9
ROOT
HETATM    1  C1  UNL     1      84.347  68.304 -12.464  1.00  0.00     0.258 C
HETATM    2  N1  UNL     1      84.234  68.704 -11.373  1.00  0.00    -0.345 NA
HETATM    3  N2  UNL     1      84.073  69.159 -10.117  1.00  0.00    -0.190 N
ENDROOT
BRANCH   3   4
HETATM    4  C2  UNL     1      85.236  69.436  -9.282  1.00  0.00     0.259 C
HETATM    5  C3  UNL     1      86.357  69.797 -10.179  1.00  0.00    -0.095 C
HETATM    6  C4  UNL     1      87.248  70.095 -10.928  1.00  0.00     0.014 C
ENDBRANCH   3   4
BRANCH   3   7
HETATM    7  C5  UNL     1      82.763  69.328  -9.605  1.00  0.00     0.211 C
HETATM    8  S1  UNL     1      81.526  68.378 -10.142  1.00  0.00    -0.038 SA
BRANCH   7   9
HETATM    9  N3  UNL     1      82.420  70.300  -8.617  1.00  0.00    -0.291 N
HETATM   10  C6  UNL     1      81.382  70.110  -7.697  1.00  0.00     0.001 C
HETATM   11  C7  UNL     1      80.467  69.974  -6.914  1.00  0.00     0.037 C
ATOM     12  H3  UNL     1      82.954  71.168  -8.579  1.00  0.00     0.178 HD
ENDBRANCH   7   9
ENDBRANCH   3   7
TORSDOF 3
ENDMDL