MODEL 1
REMARK VINA RESULT: -5.029245540      0.000      0.000
REMARK  4 active torsions:
REMARK  status: ('A' for Active; 'I' for Inactive)
REMARK    1  A    between atoms: C3_3  and  C4_4
REMARK    2  A    between atoms: C4_4  and  N1_5
REMARK    3  A    between atoms: N1_5  and  C5_7
REMARK    4  A    between atoms: C5_7  and  N2_9
ROOT
HETATM    1  C1  UNL     1      87.382  69.648 -11.711  1.00  0.00     0.112 C
HETATM    2  C2  UNL     1      86.384  69.616 -10.621  1.00  0.00    -0.109 C
HETATM    3  C3  UNL     1      85.544  69.595  -9.737  1.00  0.00    -0.087 C
ENDROOT
BRANCH   3   4
HETATM    4  C4  UNL     1      84.511  69.572  -8.700  1.00  0.00     0.216 C
BRANCH   4   5
HETATM    5  N1  UNL     1      83.329  70.215  -9.204  1.00  0.00    -0.357 N
ATOM      6  H1  UNL     1      83.418  71.091  -9.720  1.00  0.00     0.162 HD
BRANCH   5   7
HETATM    7  C5  UNL     1      82.046  69.660  -9.000  1.00  0.00     0.169 C
HETATM    8  S1  UNL     1      81.518  68.475 -10.025  1.00  0.00    -0.041 SA
BRANCH   7   9
HETATM    9  N2  UNL     1      81.170  70.054  -7.970  1.00  0.00    -0.367 N
HETATM   10  C6  UNL     1      79.750  69.678  -7.994  1.00  0.00     0.151 C
HETATM   11  C7  UNL     1      81.550  70.857  -6.822  1.00  0.00     0.151 C
ENDBRANCH   7   9
ENDBRANCH   5   7
ENDBRANCH   4   5
ENDBRANCH   3   4
TORSDOF 4
ENDMDL