MODEL 5
REMARK VINA RESULT: -5.281473975      1.478      2.635
REMARK  4 active torsions:
REMARK  status: ('A' for Active; 'I' for Inactive)
REMARK    1  A    between atoms: C1_2  and  C2_4
REMARK    2  A    between atoms: C3_5  and  C7_9
REMARK    3  A    between atoms: C4_6  and  C9_11
REMARK    4  A    between atoms: C5_7  and  C6_8
ROOT
HETATM    1  C2  UNL     1      83.544  69.271 -11.062  1.00  0.00     0.084 C
HETATM    2  C3  UNL     1      84.851  68.514 -11.116  1.00  0.00     0.008 C
HETATM    3  C4  UNL     1      84.398  67.977 -12.469  1.00  0.00     0.001 C
HETATM    4  C5  UNL     1      83.769  69.369 -12.548  1.00  0.00     0.008 C
ENDROOT
BRANCH   1   5
HETATM    5  C1  UNL     1      82.363  68.664 -10.543  1.00  0.00     0.236 C
HETATM    6  N1  UNL     1      81.039  68.755 -11.042  1.00  0.00    -0.062 NA
HETATM    7  O1  UNL     1      82.429  67.924  -9.493  1.00  0.00    -0.276 OA
ENDBRANCH   1   5
BRANCH   2   8
HETATM    8  C7  UNL     1      85.904  69.496 -11.632  1.00  0.00     0.001 A
HETATM    9  C6  UNL     1      87.160  68.696 -11.246  1.00  0.00     0.001 A
HETATM   10  C10 UNL     1      87.368  69.609 -10.134  1.00  0.00     0.000 A
HETATM   11  C8  UNL     1      86.189  70.402 -10.515  1.00  0.00     0.000 A
HETATM   12  C9  UNL     1      86.141  69.539  -9.320  1.00  0.00     0.000 A
ENDBRANCH   2   8
TORSDOF 4
ENDMDL