MODEL 5
REMARK VINA RESULT: -4.351928312      1.279      1.684
REMARK  4 active torsions:
REMARK  status: ('A' for Active; 'I' for Inactive)
REMARK    1  A    between atoms: C3_3  and  C4_4
REMARK    2  A    between atoms: C5_5  and  C6_6
REMARK       I    between atoms: C6_6  and  N1_8
REMARK    3  A    between atoms: N1_8  and  C7_10
REMARK    4  A    between atoms: C7_10  and  C8_11
ROOT
HETATM    1  C1  UNL     1      77.640  63.602 -11.444  1.00  0.00     0.113 C
HETATM    2  C2  UNL     1      78.431  64.785 -11.063  1.00  0.00    -0.097 C
HETATM    3  C3  UNL     1      79.096  65.748 -10.738  1.00  0.00    -0.015 C
ENDROOT
BRANCH   3   4
HETATM    4  C4  UNL     1      79.892  66.860 -10.351  1.00  0.00    -0.005 C
HETATM    5  C5  UNL     1      80.578  67.795 -10.008  1.00  0.00     0.009 C
BRANCH   5   6
HETATM    6  C6  UNL     1      81.407  68.889  -9.587  1.00  0.00     0.298 C
HETATM    7  O1  UNL     1      80.868  69.977  -9.267  1.00  0.00    -0.258 OA
HETATM    8  N1  UNL     1      82.823  68.796  -9.516  1.00  0.00    -0.340 N
ATOM      9  H1  UNL     1      83.275  67.919  -9.772  1.00  0.00     0.164 HD
BRANCH   8  10
HETATM   10  C7  UNL     1      83.634  69.900  -9.094  1.00  0.00     0.218 C
BRANCH  10  11
HETATM   11  C8  UNL     1      84.920  69.947  -9.825  1.00  0.00    -0.087 C
HETATM   12  C9  UNL     1      85.964  70.000 -10.422  1.00  0.00    -0.109 C
HETATM   13  C10 UNL     1      87.231  70.049 -11.147  1.00  0.00     0.112 C
ENDBRANCH  10  11
ENDBRANCH   8  10
ENDBRANCH   5   6
ENDBRANCH   3   4
TORSDOF 4
ENDMDL