MODEL 1
REMARK VINA RESULT: -4.489543939      0.000      0.000
REMARK  2 active torsions:
REMARK  status: ('A' for Active; 'I' for Inactive)
REMARK    1  A    between atoms: C2_2  and  N1_3
REMARK       I    between atoms: N1_3  and  C4_5
REMARK    2  A    between atoms: N3_7  and  C5_9
ROOT
HETATM    1  N1  UNL     1      81.433  69.374  -9.104  1.00  0.00    -0.360 N
HETATM    2  C3  UNL     1      82.271  70.541  -8.819  1.00  0.00     0.152 C
HETATM    3  C4  UNL     1      81.288  68.963 -10.437  1.00  0.00     0.191 C
HETATM    4  N2  UNL     1      79.947  68.767 -10.934  1.00  0.00    -0.063 NA
HETATM    5  N3  UNL     1      82.219  68.739 -11.268  1.00  0.00    -0.325 N
ATOM      6  H3  UNL     1      81.918  68.445 -12.197  1.00  0.00     0.169 HD
ENDROOT
BRANCH   1   7
HETATM    7  C2  UNL     1      80.825  68.751  -7.953  1.00  0.00     0.120 C
HETATM    8  C1  UNL     1      80.302  69.774  -6.960  1.00  0.00     0.026 C
ENDBRANCH   1   7
BRANCH   5   9
HETATM    9  C5  UNL     1      83.601  68.838 -11.088  1.00  0.00     0.075 C
HETATM   10  C6  UNL     1      84.348  68.482  -9.861  1.00  0.00     0.082 C
HETATM   11  S1  UNL     1      84.485  69.401 -12.340  1.00  0.00    -0.066 SA
ENDBRANCH   5   9
TORSDOF 2
ENDMDL