MODEL 3
REMARK VINA RESULT: -6.114230439      1.433      2.560
REMARK  2 active torsions:
REMARK  status: ('A' for Active; 'I' for Inactive)
REMARK    1  A    between atoms: C7_9  and  C8_10
REMARK    2  A    between atoms: C8_10  and  N2_11
ROOT
HETATM    1  C1  UNL     1      84.608  69.707  -8.806  1.00  0.00     0.026 C
HETATM    2  C2  UNL     1      83.669  69.282  -9.618  1.00  0.00    -0.010 A
HETATM    3  C3  UNL     1      82.309  69.310  -9.271  1.00  0.00    -0.028 A
HETATM    4  C4  UNL     1      81.743  69.800  -7.993  1.00  0.00     0.051 C
HETATM    5  C5  UNL     1      81.601  68.804 -10.325  1.00  0.00     0.012 A
HETATM    6  C6  UNL     1      80.101  68.636 -10.416  1.00  0.00     0.068 C
HETATM    7  N1  UNL     1      82.486  68.487 -11.258  1.00  0.00    -0.358 N
ATOM      8  H1  UNL     1      82.232  68.084 -12.160  1.00  0.00     0.166 HD
HETATM    9  C7  UNL     1      83.774  68.754 -10.890  1.00  0.00     0.058 A
ENDROOT
BRANCH   9  10
HETATM   10  C8  UNL     1      84.835  68.532 -11.632  1.00  0.00     0.115 C
BRANCH  10  11
HETATM   11  N2  UNL     1      86.173  68.605 -11.294  1.00  0.00    -0.397 N
HETATM   12  C9  UNL     1      86.822  67.517 -10.569  1.00  0.00     0.148 C
HETATM   13  C10 UNL     1      86.969  69.777 -11.708  1.00  0.00     0.148 C
ENDBRANCH  10  11
ENDBRANCH   9  10
TORSDOF 2
ENDMDL