MODEL 1
REMARK VINA RESULT: -6.386749455      0.000      0.000
REMARK  6 active torsions:
REMARK  status: ('A' for Active; 'I' for Inactive)
REMARK    1  A    between atoms: N1_1  and  N2_4
REMARK       I    between atoms: C1_6  and  N3_7
REMARK       I    between atoms: C1_6  and  N5_12
REMARK    2  A    between atoms: N3_7  and  N4_9
REMARK    3  A    between atoms: N5_12  and  O1_14
REMARK    4  A    between atoms: O1_14  and  C2_15
REMARK    5  A    between atoms: C2_15  and  C3_16
REMARK    6  A    between atoms: C8_21  and  N6_22
ROOT
HETATM    1  N2  UNL     1       5.164  14.570  39.794  1.00  0.00    -0.136 N
ATOM      2  H2  UNL     1       5.982  15.131  40.034  1.00  0.00     0.205 HD
HETATM    3  C1  UNL     1       5.080  14.112  38.636  1.00  0.00     0.730 C
HETATM    4  N3  UNL     1       3.873  13.329  38.388  1.00  0.00    -0.136 N
ATOM      5  H3  UNL     1       3.867  12.314  38.481  1.00  0.00     0.205 HD
HETATM    6  N5  UNL     1       5.948  14.259  37.576  1.00  0.00    -0.093 N
ATOM      7  H5  UNL     1       5.831  13.556  36.847  1.00  0.00     0.213 HD
ENDROOT
BRANCH   6   8
HETATM    8  O1  UNL     1       6.890  15.124  37.329  1.00  0.00    -0.262 OA
BRANCH   8   9
HETATM    9  C2  UNL     1       7.304  15.285  36.039  1.00  0.00     0.243 C
BRANCH   9  10
HETATM   10  C3  UNL     1       8.647  14.567  35.828  1.00  0.00     0.001 A
HETATM   11  C4  UNL     1       9.699  14.889  36.624  1.00  0.00     0.012 A
HETATM   12  C5  UNL     1      10.967  14.322  36.443  1.00  0.00     0.001 A
HETATM   13  C6  UNL     1      11.086  13.414  35.392  1.00  0.00     0.002 A
HETATM   14  C7  UNL     1       9.997  13.120  34.618  1.00  0.00     0.037 A
HETATM   15  C8  UNL     1       8.743  13.686  34.812  1.00  0.00     0.111 A
BRANCH  15  16
HETATM   16  N6  UNL     1       7.697  13.322  33.926  1.00  0.00    -0.115 N
HETATM   17  O2  UNL     1       7.157  12.199  33.996  1.00  0.00    -0.532 OA
HETATM   18  O3  UNL     1       7.295  14.168  32.934  1.00  0.00    -0.532 OA
ENDBRANCH  15  16
ENDBRANCH   9  10
ENDBRANCH   8   9
ENDBRANCH   6   8
BRANCH   1  19
HETATM   19  N1  UNL     1       4.185  14.354  40.794  1.00  0.00    -0.331 N
ATOM     20  H12 UNL     1       3.974  15.135  41.416  1.00  0.00     0.177 HD
ATOM     21  H11 UNL     1       3.690  13.470  40.917  1.00  0.00     0.177 HD
ENDBRANCH   1  19
BRANCH   4  22
HETATM   22  N4  UNL     1       2.743  14.028  38.020  1.00  0.00    -0.331 N
ATOM     23  H42 UNL     1       2.697  14.510  37.123  1.00  0.00     0.177 HD
ATOM     24  H41 UNL     1       1.969  14.034  38.685  1.00  0.00     0.177 HD
ENDBRANCH   4  22
TORSDOF 6
ENDMDL