MODEL 2
REMARK VINA RESULT: -5.848347920      1.209      1.470
REMARK  6 active torsions:
REMARK  status: ('A' for Active; 'I' for Inactive)
REMARK       I    between atoms: C1_4  and  N3_6
REMARK    1  A    between atoms: N3_6  and  N4_8
REMARK    2  A    between atoms: C2_10  and  C3_11
REMARK    3  A    between atoms: C5_15  and  C6_16
REMARK    4  A    between atoms: C6_16  and  C7_17
REMARK    5  A    between atoms: C7_17  and  N6_18
REMARK    6  A    between atoms: C7_17  and  C8_22
ROOT
HETATM    1  C3  UNL     1       9.319  14.658  39.308  1.00  0.00     0.164 A
HETATM    2  N5  UNL     1      10.286  15.566  39.329  1.00  0.00    -0.343 N
ATOM      3  H5  UNL     1      10.598  16.076  40.156  1.00  0.00     0.167 HD
HETATM    4  C4  UNL     1      10.789  15.709  38.094  1.00  0.00     0.123 A
HETATM    5  C5  UNL     1      10.083  14.841  37.295  1.00  0.00     0.073 A
HETATM    6  O2  UNL     1       9.217  14.233  38.054  1.00  0.00    -0.295 OA
ENDROOT
BRANCH   1   7
HETATM    7  C2  UNL     1       8.477  14.154  40.381  1.00  0.00     0.163 C
HETATM    8  N4  UNL     1       7.237  14.251  40.444  1.00  0.00    -0.305 N
ATOM      9  H4  UNL     1       6.809  13.837  41.272  1.00  0.00     0.186 HD
BRANCH   8  10
HETATM   10  N3  UNL     1       6.382  14.821  39.579  1.00  0.00    -0.274 N
HETATM   11  C1  UNL     1       5.639  13.992  38.664  1.00  0.00     0.200 C
HETATM   12  N1  UNL     1       6.172  13.414  37.654  1.00  0.00    -0.372 N
HETATM   13  N2  UNL     1       4.253  13.853  38.958  1.00  0.00    -0.062 NA
ATOM     14  H12 UNL     1       5.646  12.827  37.006  1.00  0.00     0.158 HD
ATOM     15  H11 UNL     1       7.165  13.513  37.443  1.00  0.00     0.158 HD
ATOM     16  H3  UNL     1       6.259  15.834  39.570  1.00  0.00     0.189 HD
ENDBRANCH   8  10
ENDBRANCH   1   7
BRANCH   5  17
HETATM   17  C6  UNL     1      10.278  14.631  35.811  1.00  0.00     0.108 C
BRANCH  17  18
HETATM   18  C7  UNL     1      10.226  13.155  35.484  1.00  0.00     0.277 C
BRANCH  18  19
HETATM   19  N6  UNL     1      11.255  12.927  34.487  1.00  0.00    -0.067 N
ATOM     20  H63 UNL     1      10.934  13.076  33.531  1.00  0.00     0.275 HD
ATOM     21  H62 UNL     1      11.984  13.640  34.486  1.00  0.00     0.275 HD
ATOM     22  H61 UNL     1      11.608  11.985  34.655  1.00  0.00     0.275 HD
ENDBRANCH  18  19
BRANCH  18  23
HETATM   23  C8  UNL     1       8.911  12.795  34.904  1.00  0.00     0.262 C
HETATM   24  N7  UNL     1       8.545  13.218  33.590  1.00  0.00    -0.060 NA
HETATM   25  O1  UNL     1       8.091  12.114  35.553  1.00  0.00    -0.275 OA
ENDBRANCH  18  23
ENDBRANCH  17  18
ENDBRANCH   5  17
TORSDOF 6
ENDMDL