MODEL 3
REMARK VINA RESULT: -5.579628310      3.053      4.679
REMARK  6 active torsions:
REMARK  status: ('A' for Active; 'I' for Inactive)
REMARK    1  A    between atoms: C4_7  and  C5_8
REMARK    2  A    between atoms: C5_8  and  N3_9
REMARK    3  A    between atoms: N3_9  and  C6_12
REMARK    4  A    between atoms: C6_12  and  C7_13
REMARK    5  A    between atoms: C6_12  and  C8_15
REMARK    6  A    between atoms: C9_20  and  N5_21
ROOT
HETATM    1  N1  UNL     1       3.462  13.167  41.848  1.00  0.00    -0.191 NA
HETATM    2  C1  UNL     1       4.270  13.401  41.068  1.00  0.00     0.104 C
HETATM    3  C2  UNL     1       5.266  13.709  40.083  1.00  0.00     0.103 A
HETATM    4  C3  UNL     1       6.575  13.937  40.460  1.00  0.00     0.116 A
HETATM    5  N2  UNL     1       7.512  14.226  39.535  1.00  0.00    -0.353 N
ATOM      6  H2  UNL     1       8.482  14.398  39.802  1.00  0.00     0.166 HD
HETATM    7  C4  UNL     1       7.123  14.281  38.255  1.00  0.00     0.108 A
HETATM    8  N4  UNL     1       5.859  14.063  37.870  1.00  0.00    -0.330 N
ATOM      9  H4  UNL     1       5.626  14.120  36.879  1.00  0.00     0.168 HD
HETATM   10  C9  UNL     1       4.884  13.770  38.758  1.00  0.00     0.122 A
ENDROOT
BRANCH  10  11
HETATM   11  N5  UNL     1       3.661  13.561  38.374  1.00  0.00    -0.384 N
ATOM     12  H52 UNL     1       3.092  14.311  37.983  1.00  0.00     0.157 HD
ATOM     13  H51 UNL     1       3.214  12.647  38.443  1.00  0.00     0.157 HD
ENDBRANCH  10  11
BRANCH   7  14
HETATM   14  C5  UNL     1       8.155  14.595  37.219  1.00  0.00     0.309 C
BRANCH  14  15
HETATM   15  N3  UNL     1       8.589  13.443  36.513  1.00  0.00    -0.048 N
ATOM     16  H32 UNL     1       9.240  12.892  37.073  1.00  0.00     0.279 HD
ATOM     17  H31 UNL     1       7.835  12.763  36.421  1.00  0.00     0.279 HD
BRANCH  15  18
HETATM   18  C6  UNL     1       9.147  13.762  35.248  1.00  0.00     0.346 C
BRANCH  18  19
HETATM   19  C7  UNL     1      10.524  13.273  35.008  1.00  0.00     0.275 C
HETATM   20  O1  UNL     1      11.450  13.974  34.674  1.00  0.00    -0.304 OA
ENDBRANCH  18  19
BRANCH  18  21
HETATM   21  C8  UNL     1       8.263  13.174  34.177  1.00  0.00     0.211 C
HETATM   22  O2  UNL     1       8.068  11.947  34.188  1.00  0.00    -0.646 OA
HETATM   23  O3  UNL     1       7.699  13.998  33.223  1.00  0.00    -0.646 OA
ENDBRANCH  18  21
ENDBRANCH  15  18
ENDBRANCH  14  15
ENDBRANCH   7  14
TORSDOF 6
ENDMDL