MODEL 3
REMARK VINA RESULT: -5.046399918      2.038      6.964
REMARK  8 active torsions:
REMARK  status: ('A' for Active; 'I' for Inactive)
REMARK    1  A    between atoms: C2_2  and  C3_3
REMARK    2  A    between atoms: C3_3  and  N1_4
REMARK    3  A    between atoms: C6_8  and  C7_9
REMARK    4  A    between atoms: N2_10  and  O2_12
REMARK    5  A    between atoms: O2_12  and  C8_13
REMARK    6  A    between atoms: C8_13  and  N3_14
REMARK    7  A    between atoms: C8_13  and  N4_18
REMARK    8  A    between atoms: C9_24  and  N6_25
ROOT
HETATM    1  N1  UNL     1      11.618  16.619  40.562  1.00  0.00    -0.144 N
HETATM    2  C4  UNL     1      10.634  15.728  40.748  1.00  0.00     0.264 A
HETATM    3  O1  UNL     1      10.313  15.407  41.901  1.00  0.00    -0.267 OA
HETATM    4  C5  UNL     1       9.973  15.161  39.680  1.00  0.00     0.106 A
HETATM    5  C6  UNL     1      10.306  15.497  38.375  1.00  0.00     0.071 A
HETATM    6  N5  UNL     1      11.297  16.394  38.242  1.00  0.00    -0.190 N
ATOM      7  H5  UNL     1      11.579  16.672  37.302  1.00  0.00     0.184 HD
HETATM    8  C9  UNL     1      11.940  16.944  39.298  1.00  0.00     0.681 A
ENDROOT
BRANCH   5   9
HETATM    9  C7  UNL     1       9.621  14.911  37.250  1.00  0.00     0.144 C
HETATM   10  N2  UNL     1      10.189  14.846  36.112  1.00  0.00    -0.272 N
ATOM     11  H2  UNL     1      11.134  15.222  36.035  1.00  0.00     0.193 HD
BRANCH  10  12
HETATM   12  O2  UNL     1       9.628  14.313  34.986  1.00  0.00    -0.220 OA
BRANCH  12  13
HETATM   13  C8  UNL     1       9.952  13.101  34.403  1.00  0.00     0.542 C
BRANCH  13  14
HETATM   14  N3  UNL     1      11.346  12.806  34.690  1.00  0.00    -0.025 N
ATOM     15  H33 UNL     1      11.618  13.082  35.634  1.00  0.00     0.279 HD
ATOM     16  H32 UNL     1      11.523  11.806  34.780  1.00  0.00     0.279 HD
ATOM     17  H31 UNL     1      11.926  13.243  33.973  1.00  0.00     0.279 HD
ENDBRANCH  13  14
BRANCH  13  18
HETATM   18  N4  UNL     1       9.174  11.981  34.870  1.00  0.00    -0.025 N
ATOM     19  H43 UNL     1       9.783  11.281  35.296  1.00  0.00     0.279 HD
ATOM     20  H42 UNL     1       8.620  12.249  35.683  1.00  0.00     0.279 HD
ATOM     21  H41 UNL     1       8.580  11.549  34.162  1.00  0.00     0.279 HD
ENDBRANCH  13  18
ENDBRANCH  12  13
ENDBRANCH  10  12
ENDBRANCH   5   9
BRANCH   8  22
HETATM   22  N6  UNL     1      12.889  17.804  39.141  1.00  0.00    -0.234 N
ATOM     23  H62 UNL     1      13.795  17.691  39.598  1.00  0.00     0.174 HD
ATOM     24  H61 UNL     1      12.692  18.603  38.539  1.00  0.00     0.174 HD
ENDBRANCH   8  22
BRANCH   1  25
HETATM   25  C3  UNL     1      12.322  17.225  41.666  1.00  0.00     0.177 C
BRANCH  25  26
HETATM   26  C2  UNL     1      13.421  16.404  42.190  1.00  0.00    -0.016 C
HETATM   27  C1  UNL     1      13.497  16.011  43.456  1.00  0.00     0.008 C
ENDBRANCH  25  26
ENDBRANCH   1  25
TORSDOF 8
ENDMDL