MODEL 5
REMARK VINA RESULT: -5.474538339      1.419      1.899
REMARK  7 active torsions:
REMARK  status: ('A' for Active; 'I' for Inactive)
REMARK    1  A    between atoms: N2_3  and  C2_5
REMARK    2  A    between atoms: C2_5  and  N3_6
REMARK    3  A    between atoms: N3_6  and  C3_9
REMARK    4  A    between atoms: C3_9  and  N4_10
REMARK    5  A    between atoms: C3_9  and  C4_14
REMARK       I    between atoms: C4_14  and  N5_16
REMARK    6  A    between atoms: N5_16  and  N6_18
REMARK    7  A    between atoms: C5_20  and  C6_21
ROOT
HETATM    1  N1  UNL     1       6.855  15.218  32.720  1.00  0.00    -0.172 NA
HETATM    2  C1  UNL     1       6.877  14.426  33.589  1.00  0.00     0.178 C
HETATM    3  N2  UNL     1       6.879  13.494  34.616  1.00  0.00    -0.304 N
ATOM      4  H2  UNL     1       6.186  13.540  35.362  1.00  0.00     0.173 HD
ENDROOT
BRANCH   3   5
HETATM    5  C2  UNL     1       7.891  12.449  34.606  1.00  0.00     0.367 C
BRANCH   5   6
HETATM    6  N3  UNL     1       9.134  12.913  34.054  1.00  0.00    -0.021 N
ATOM      7  H32 UNL     1       9.465  12.306  33.304  1.00  0.00     0.282 HD
ATOM      8  H31 UNL     1       9.013  13.770  33.515  1.00  0.00     0.282 HD
BRANCH   6   9
HETATM    9  C3  UNL     1      10.107  13.066  35.075  1.00  0.00     0.474 C
BRANCH   9  10
HETATM   10  N4  UNL     1      11.478  13.010  34.527  1.00  0.00    -0.041 N
ATOM     11  H43 UNL     1      11.920  12.111  34.719  1.00  0.00     0.277 HD
ATOM     12  H42 UNL     1      11.472  12.968  33.508  1.00  0.00     0.277 HD
ATOM     13  H41 UNL     1      12.047  13.786  34.866  1.00  0.00     0.277 HD
ENDBRANCH   9  10
BRANCH   9  14
HETATM   14  C4  UNL     1      10.039  14.292  35.881  1.00  0.00     0.294 C
HETATM   15  O1  UNL     1       9.926  15.400  35.327  1.00  0.00    -0.267 OA
HETATM   16  N5  UNL     1      10.103  14.192  37.280  1.00  0.00    -0.267 N
ATOM     17  H5  UNL     1      10.197  13.280  37.727  1.00  0.00     0.190 HD
BRANCH  16  18
HETATM   18  N6  UNL     1      10.039  15.340  38.044  1.00  0.00    -0.313 N
HETATM   19  C5  UNL     1       9.021  15.932  38.495  1.00  0.00     0.084 C
ATOM     20  H6  UNL     1      10.936  15.768  38.275  1.00  0.00     0.185 HD
BRANCH  19  21
HETATM   21  C6  UNL     1       7.665  15.401  38.223  1.00  0.00     0.025 C
HETATM   22  C7  UNL     1       6.803  15.556  39.441  1.00  0.00     0.010 C
HETATM   23  C8  UNL     1       5.619  16.407  38.990  1.00  0.00     0.001 C
HETATM   24  C9  UNL     1       5.525  16.080  37.494  1.00  0.00     0.001 C
HETATM   25  C10 UNL     1       6.976  16.155  37.110  1.00  0.00     0.010 C
ENDBRANCH  19  21
ENDBRANCH  16  18
ENDBRANCH   9  14
ENDBRANCH   6   9
ENDBRANCH   5   6
ENDBRANCH   3   5
TORSDOF 7
ENDMDL