MODEL 1
REMARK VINA RESULT: -5.372720692      0.000      0.000
REMARK  5 active torsions:
REMARK  status: ('A' for Active; 'I' for Inactive)
REMARK    1  A    between atoms: N1_1  and  C1_4
REMARK    2  A    between atoms: N3_7  and  C2_8
REMARK    3  A    between atoms: C2_8  and  C3_9
REMARK    4  A    between atoms: C3_9  and  N4_10
REMARK       I    between atoms: N4_10  and  C4_12
REMARK    5  A    between atoms: N7_20  and  C8_21
ROOT
HETATM    1  C1  UNL     1      10.811  13.321  35.160  1.00  0.00     0.145 A
HETATM    2  N2  UNL     1      10.959  14.330  35.996  1.00  0.00    -0.280 N
ATOM      3  H2  UNL     1      11.854  14.607  36.400  1.00  0.00     0.189 HD
HETATM    4  N3  UNL     1       9.795  14.951  36.254  1.00  0.00    -0.271 N
HETATM    5  C5  UNL     1       8.853  14.287  35.531  1.00  0.00     0.163 A
HETATM    6  C6  UNL     1       9.469  13.264  34.840  1.00  0.00     0.125 A
HETATM    7  N6  UNL     1       8.579  12.591  34.120  1.00  0.00    -0.346 N
ATOM      8  H6  UNL     1       8.756  11.789  33.515  1.00  0.00     0.167 HD
HETATM    9  C7  UNL     1       7.411  13.178  34.349  1.00  0.00     0.193 A
HETATM   10  N7  UNL     1       7.546  14.232  35.219  1.00  0.00    -0.268 N
ENDROOT
BRANCH   4  11
HETATM   11  C2  UNL     1       9.606  16.081  37.119  1.00  0.00     0.170 C
BRANCH  11  12
HETATM   12  C3  UNL     1       9.563  15.709  38.595  1.00  0.00     0.145 C
BRANCH  12  13
HETATM   13  N4  UNL     1       8.242  15.248  38.931  1.00  0.00    -0.344 N
HETATM   14  C4  UNL     1       8.128  14.100  39.755  1.00  0.00     0.328 C
HETATM   15  N5  UNL     1       6.821  13.652  40.084  1.00  0.00    -0.040 NA
HETATM   16  O1  UNL     1       9.143  13.482  40.194  1.00  0.00    -0.251 OA
ATOM     17  H4  UNL     1       7.413  15.733  38.588  1.00  0.00     0.163 HD
ENDBRANCH  12  13
ENDBRANCH  11  12
ENDBRANCH   4  11
BRANCH   1  18
HETATM   18  N1  UNL     1      11.702  12.511  34.696  1.00  0.00    -0.382 N
ATOM     19  H12 UNL     1      12.666  12.469  35.026  1.00  0.00     0.157 HD
ATOM     20  H11 UNL     1      11.613  11.808  33.962  1.00  0.00     0.157 HD
ENDBRANCH   1  18
BRANCH  10  21
HETATM   21  C8  UNL     1       6.503  15.060  35.667  1.00  0.00     0.362 C
HETATM   22  O2  UNL     1       6.134  15.326  36.807  1.00  0.00    -0.283 OA
ENDBRANCH  10  21
TORSDOF 5
ENDMDL