MODEL 4
REMARK VINA RESULT: -5.598096193      2.341      5.727
REMARK  5 active torsions:
REMARK  status: ('A' for Active; 'I' for Inactive)
REMARK    1  A    between atoms: C2_2  and  C3_3
REMARK    2  A    between atoms: C2_2  and  N3_10
REMARK    3  A    between atoms: C3_3  and  N1_4
REMARK    4  A    between atoms: N1_4  and  N2_6
REMARK    5  A    between atoms: N2_6  and  C4_8
ROOT
HETATM    1  N3  UNL     1       8.676  14.509  37.639  1.00  0.00    -0.321 N
HETATM    2  C5  UNL     1       7.393  14.147  37.526  1.00  0.00     0.185 A
HETATM    3  N4  UNL     1       7.199  13.443  36.407  1.00  0.00    -0.345 N
ATOM      4  H4  UNL     1       6.315  13.050  36.086  1.00  0.00     0.167 HD
HETATM    5  C6  UNL     1       8.374  13.347  35.787  1.00  0.00     0.146 A
HETATM    6  C7  UNL     1       8.776  12.747  34.612  1.00  0.00     0.277 A
HETATM    7  O2  UNL     1       7.961  12.133  33.889  1.00  0.00    -0.266 OA
HETATM    8  N5  UNL     1      10.070  12.843  34.267  1.00  0.00    -0.318 N
ATOM      9  H5  UNL     1      10.367  12.400  33.398  1.00  0.00     0.169 HD
HETATM   10  C8  UNL     1      11.000  13.488  34.995  1.00  0.00     0.185 A
HETATM   11  N6  UNL     1      10.614  14.068  36.130  1.00  0.00    -0.336 N
ATOM     12  H6  UNL     1      11.305  14.562  36.696  1.00  0.00     0.168 HD
HETATM   13  C9  UNL     1       9.340  14.019  36.547  1.00  0.00     0.142 A
ENDROOT
BRANCH   1  14
HETATM   14  C2  UNL     1       9.331  15.264  38.653  1.00  0.00     0.107 C
HETATM   15  C1  UNL     1       9.347  16.771  38.369  1.00  0.00     0.034 C
BRANCH  14  16
HETATM   16  C3  UNL     1       8.901  15.018  40.054  1.00  0.00     0.164 C
BRANCH  16  17
HETATM   17  N1  UNL     1       9.288  13.730  40.531  1.00  0.00    -0.332 N
ATOM     18  H1  UNL     1       9.516  12.964  39.897  1.00  0.00     0.180 HD
BRANCH  17  19
HETATM   19  N2  UNL     1       9.334  13.587  41.896  1.00  0.00    -0.282 N
ATOM     20  H2  UNL     1      10.158  13.192  42.348  1.00  0.00     0.189 HD
BRANCH  19  21
HETATM   21  C4  UNL     1       8.217  13.997  42.665  1.00  0.00     0.368 C
HETATM   22  O1  UNL     1       7.336  13.190  43.042  1.00  0.00    -0.282 OA
ENDBRANCH  19  21
ENDBRANCH  17  19
ENDBRANCH  16  17
ENDBRANCH  14  16
ENDBRANCH   1  14
TORSDOF 5
ENDMDL