MODEL 4
REMARK VINA RESULT: -5.123282518      1.473      1.502
REMARK  7 active torsions:
REMARK  status: ('A' for Active; 'I' for Inactive)
REMARK    1  A    between atoms: N1_1  and  C1_4
REMARK    2  A    between atoms: C1_4  and  C2_5
REMARK    3  A    between atoms: C2_5  and  C3_6
REMARK    4  A    between atoms: C3_6  and  N2_7
REMARK       I    between atoms: N2_7  and  C4_9
REMARK    5  A    between atoms: C4_9  and  C5_11
REMARK    6  A    between atoms: C6_12  and  C7_13
REMARK    7  A    between atoms: C7_13  and  C8_15
ROOT
HETATM    1  C5  UNL     1      10.304  15.247  37.093  1.00  0.00     0.077 C
HETATM    2  C6  UNL     1       9.881  15.402  38.285  1.00  0.00     0.057 C
ENDROOT
BRANCH   1   3
HETATM    3  C4  UNL     1      10.132  14.270  36.084  1.00  0.00     0.241 C
HETATM    4  N2  UNL     1       8.810  14.186  35.433  1.00  0.00    -0.357 N
ATOM      5  H2  UNL     1       8.049  14.798  35.724  1.00  0.00     0.162 HD
HETATM    6  O1  UNL     1      10.971  13.503  35.694  1.00  0.00    -0.269 OA
BRANCH   4   7
HETATM    7  C3  UNL     1       8.616  13.223  34.382  1.00  0.00     0.136 C
BRANCH   7   8
HETATM    8  C2  UNL     1       7.251  13.320  33.842  1.00  0.00     0.123 C
BRANCH   8   9
HETATM    9  C1  UNL     1       6.922  14.423  33.219  1.00  0.00    -0.076 C
BRANCH   9  10
HETATM   10  N1  UNL     1       6.562  15.303  32.303  1.00  0.00    -0.370 N
ATOM     11  H12 UNL     1       6.528  14.615  31.551  1.00  0.00     0.165 HD
ATOM     12  H11 UNL     1       6.298  16.161  31.819  1.00  0.00     0.165 HD
ENDBRANCH   9  10
ENDBRANCH   8   9
ENDBRANCH   7   8
ENDBRANCH   4   7
ENDBRANCH   1   3
BRANCH   2  13
HETATM   13  C7  UNL     1       8.982  14.561  39.027  1.00  0.00     0.172 C
HETATM   14  O2  UNL     1       9.285  13.648  39.735  1.00  0.00    -0.291 OA
BRANCH  13  15
HETATM   15  C8  UNL     1       7.504  14.889  38.868  1.00  0.00     0.190 C
HETATM   16  C9  UNL     1       7.363  16.322  38.501  1.00  0.00     0.151 C
HETATM   17  N3  UNL     1       6.008  16.630  38.106  1.00  0.00    -0.383 N
HETATM   18  C10 UNL     1       5.409  15.714  37.360  1.00  0.00     0.189 C
ATOM     19  H3  UNL     1       5.544  17.495  38.384  1.00  0.00     0.160 HD
HETATM   20  N4  UNL     1       6.112  14.547  37.025  1.00  0.00    -0.299 N
HETATM   21  N5  UNL     1       6.894  13.919  38.036  1.00  0.00    -0.126 NA
ATOM     22  H4  UNL     1       6.064  14.160  36.083  1.00  0.00     0.183 HD
ENDBRANCH  13  15
ENDBRANCH   2  13
TORSDOF 7
ENDMDL