MODEL 1
REMARK VINA RESULT: -5.455083550      0.000      0.000
REMARK  8 active torsions:
REMARK  status: ('A' for Active; 'I' for Inactive)
REMARK    1  A    between atoms: N1_1  and  C1_4
REMARK    2  A    between atoms: C3_8  and  C4_9
REMARK    3  A    between atoms: C4_9  and  N3_10
REMARK    4  A    between atoms: C4_9  and  C5_14
REMARK    5  A    between atoms: C5_14  and  C6_15
REMARK    6  A    between atoms: C6_15  and  N4_16
REMARK    7  A    between atoms: N4_16  and  C7_18
REMARK    8  A    between atoms: N6_23  and  O1_24
ROOT
HETATM    1  C4  UNL     1       6.884  13.814  37.064  1.00  0.00     0.235 C
ENDROOT
BRANCH   1   2
HETATM    2  C3  UNL     1       8.151  13.625  36.318  1.00  0.00     0.055 A
HETATM    3  N2  UNL     1       9.257  14.368  36.617  1.00  0.00    -0.363 N
HETATM    4  C2  UNL     1      10.403  14.203  35.946  1.00  0.00     0.136 A
ATOM      5  H2  UNL     1       9.210  15.060  37.365  1.00  0.00     0.165 HD
HETATM    6  C1  UNL     1      10.514  13.281  34.928  1.00  0.00     0.114 A
HETATM    7  N7  UNL     1       9.433  12.542  34.624  1.00  0.00    -0.350 N
HETATM    8  C10 UNL     1       8.273  12.711  35.305  1.00  0.00     0.117 A
ATOM      9  H7  UNL     1       9.486  11.851  33.876  1.00  0.00     0.166 HD
BRANCH   6  10
HETATM   10  N1  UNL     1      11.617  13.121  34.281  1.00  0.00    -0.384 N
ATOM     11  H12 UNL     1      12.501  13.438  34.680  1.00  0.00     0.157 HD
ATOM     12  H11 UNL     1      11.637  12.681  33.361  1.00  0.00     0.157 HD
ENDBRANCH   6  10
ENDBRANCH   1   2
BRANCH   1  13
HETATM   13  N3  UNL     1       6.573  12.667  37.912  1.00  0.00    -0.070 N
ATOM     14  H33 UNL     1       6.747  11.788  37.426  1.00  0.00     0.275 HD
ATOM     15  H32 UNL     1       7.253  12.570  38.667  1.00  0.00     0.275 HD
ATOM     16  H31 UNL     1       5.620  12.707  38.275  1.00  0.00     0.275 HD
ENDBRANCH   1  13
BRANCH   1  17
HETATM   17  C5  UNL     1       6.878  15.062  37.886  1.00  0.00     0.059 C
BRANCH  17  18
HETATM   18  C6  UNL     1       5.855  16.065  37.382  1.00  0.00     0.140 C
BRANCH  18  19
HETATM   19  N4  UNL     1       4.868  15.355  36.608  1.00  0.00    -0.225 N
ATOM     20  H4  UNL     1       5.129  14.866  35.752  1.00  0.00     0.177 HD
BRANCH  19  21
HETATM   21  C7  UNL     1       3.500  15.352  37.072  1.00  0.00     0.695 C
HETATM   22  N5  UNL     1       2.559  16.153  36.708  1.00  0.00    -0.223 N
HETATM   23  C8  UNL     1       1.308  15.861  37.378  1.00  0.00     0.161 C
ATOM     24  H5  UNL     1       2.680  16.904  36.028  1.00  0.00     0.177 HD
HETATM   25  C9  UNL     1       1.677  14.893  38.490  1.00  0.00     0.195 C
HETATM   26  N6  UNL     1       2.975  14.438  38.024  1.00  0.00    -0.089 N
BRANCH  26  27
HETATM   27  O1  UNL     1       3.641  13.305  38.411  1.00  0.00    -0.274 OA
ATOM     28  H1  UNL     1       4.295  13.303  39.100  1.00  0.00     0.245 HD
ENDBRANCH  26  27
ENDBRANCH  19  21
ENDBRANCH  18  19
ENDBRANCH  17  18
ENDBRANCH   1  17
TORSDOF 8
ENDMDL