MODEL 4
REMARK VINA RESULT: -5.618947507      2.811      3.696
REMARK  7 active torsions:
REMARK  status: ('A' for Active; 'I' for Inactive)
REMARK    1  A    between atoms: N1_1  and  N2_4
REMARK    2  A    between atoms: N2_4  and  C1_6
REMARK    3  A    between atoms: C1_6  and  C5_16
REMARK    4  A    between atoms: C2_7  and  O1_8
REMARK    5  A    between atoms: C2_7  and  C3_10
REMARK    6  A    between atoms: C3_10  and  O2_11
REMARK    7  A    between atoms: C3_10  and  C4_13
ROOT
HETATM    1  C1  UNL     1       7.273  14.394  34.815  1.00  0.00     0.090 C
HETATM    2  C2  UNL     1       8.280  13.442  34.625  1.00  0.00     0.109 C
ENDROOT
BRANCH   1   3
HETATM    3  N2  UNL     1       6.418  14.629  33.814  1.00  0.00    -0.304 N
ATOM      4  H2  UNL     1       5.434  14.418  33.983  1.00  0.00     0.186 HD
BRANCH   3   5
HETATM    5  N1  UNL     1       6.746  15.127  32.586  1.00  0.00    -0.345 N
ATOM      6  H12 UNL     1       7.614  15.660  32.536  1.00  0.00     0.176 HD
ATOM      7  H11 UNL     1       6.203  15.008  31.731  1.00  0.00     0.176 HD
ENDBRANCH   3   5
ENDBRANCH   1   3
BRANCH   1   8
HETATM    8  C5  UNL     1       6.965  15.212  36.039  1.00  0.00     0.002 A
HETATM    9  C6  UNL     1       7.890  16.094  36.544  1.00  0.00     0.021 A
HETATM   10  C7  UNL     1       7.538  16.821  37.643  1.00  0.00     0.050 A
HETATM   11  S1  UNL     1       5.965  16.310  37.983  1.00  0.00    -0.113 SA
HETATM   12  C8  UNL     1       5.780  15.172  36.714  1.00  0.00     0.063 A
ENDBRANCH   1   8
BRANCH   2  13
HETATM   13  O1  UNL     1       8.248  12.837  33.452  1.00  0.00    -0.359 OA
ATOM     14  H1  UNL     1       8.825  12.086  33.381  1.00  0.00     0.217 HD
ENDBRANCH   2  13
BRANCH   2  15
HETATM   15  C3  UNL     1       9.365  12.981  35.468  1.00  0.00     0.265 C
BRANCH  15  16
HETATM   16  O2  UNL     1       9.870  11.716  34.917  1.00  0.00    -0.380 OA
ATOM     17  H2  UNL     1      10.759  11.858  34.615  1.00  0.00     0.211 HD
ENDBRANCH  15  16
BRANCH  15  18
HETATM   18  C4  UNL     1      10.594  13.842  35.357  1.00  0.00     0.266 C
HETATM   19  N3  UNL     1      11.335  13.881  34.135  1.00  0.00    -0.059 NA
HETATM   20  O3  UNL     1      11.035  14.549  36.281  1.00  0.00    -0.274 OA
ENDBRANCH  15  18
ENDBRANCH   2  15
TORSDOF 7
ENDMDL