MODEL 3
REMARK VINA RESULT: -6.596940759      1.335      2.443
REMARK  4 active torsions:
REMARK  status: ('A' for Active; 'I' for Inactive)
REMARK    1  A    between atoms: N1_1  and  C1_4
REMARK    2  A    between atoms: C2_7  and  N3_8
REMARK    3  A    between atoms: N4_11  and  N5_12
REMARK    4  A    between atoms: C6_18  and  N7_19
ROOT
HETATM    1  C1  UNL     1     116.368  41.249  65.612  1.00  0.00     0.705 A
HETATM    2  N2  UNL     1     117.345  40.900  64.749  1.00  0.00    -0.021 N
ATOM      3  H2  UNL     1     117.216  41.067  63.752  1.00  0.00     0.203 HD
HETATM    4  C2  UNL     1     118.500  40.329  65.186  1.00  0.00     0.710 A
HETATM    5  N6  UNL     1     118.612  40.136  66.502  1.00  0.00    -0.021 N
ATOM      6  H6  UNL     1     119.466  39.709  66.859  1.00  0.00     0.203 HD
HETATM    7  C6  UNL     1     117.644  40.480  67.387  1.00  0.00     0.705 A
HETATM    8  N8  UNL     1     116.505  41.045  66.934  1.00  0.00    -0.022 N
ATOM      9  H8  UNL     1     115.763  41.311  67.581  1.00  0.00     0.203 HD
ENDROOT
BRANCH   4  10
HETATM   10  N3  UNL     1     119.515  39.940  64.292  1.00  0.00    -0.202 N
HETATM   11  C3  UNL     1     120.684  40.649  63.881  1.00  0.00     0.159 C
HETATM   12  C4  UNL     1     121.430  39.664  63.004  1.00  0.00     0.135 C
HETATM   13  N4  UNL     1     120.472  38.689  62.589  1.00  0.00    -0.218 NA
HETATM   14  C5  UNL     1     119.506  38.663  63.626  1.00  0.00     0.255 C
BRANCH  13  15
HETATM   15  N5  UNL     1     119.991  38.831  61.310  1.00  0.00    -0.362 NA
ATOM     16  H52 UNL     1     120.222  39.703  60.833  1.00  0.00     0.171 HD
ATOM     17  H51 UNL     1     120.254  38.096  60.653  1.00  0.00     0.171 HD
ENDBRANCH  13  15
ENDBRANCH   4  10
BRANCH   1  18
HETATM   18  N1  UNL     1     115.273  41.793  65.205  1.00  0.00    -0.234 N
ATOM     19  H12 UNL     1     115.054  42.726  65.553  1.00  0.00     0.174 HD
ATOM     20  H11 UNL     1     114.648  41.313  64.557  1.00  0.00     0.174 HD
ENDBRANCH   1  18
BRANCH   7  21
HETATM   21  N7  UNL     1     117.863  40.245  68.621  1.00  0.00    -0.234 N
ATOM     22  H72 UNL     1     117.286  39.619  69.182  1.00  0.00     0.174 HD
ATOM     23  H71 UNL     1     118.659  40.713  69.056  1.00  0.00     0.174 HD
ENDBRANCH   7  21
TORSDOF 4
ENDMDL