MODEL 2
REMARK VINA RESULT: -6.560920363      2.529      3.731
REMARK  1 active torsions:
REMARK  status: ('A' for Active; 'I' for Inactive)
REMARK       I    between atoms: C2_2  and  N1_4
REMARK    1  A    between atoms: N1_4  and  N2_6
ROOT
HETATM    1  N2  UNL     1     119.001  41.199  63.906  1.00  0.00    -0.284 N
HETATM    2  C3  UNL     1     118.990  40.880  65.298  1.00  0.00     0.282 C
HETATM    3  N3  UNL     1     118.371  39.550  65.374  1.00  0.00    -0.122 NA
HETATM    4  N4  UNL     1     119.047  38.610  64.660  1.00  0.00    -0.306 N
ATOM      5  H4  UNL     1     119.227  37.684  65.048  1.00  0.00     0.178 HD
HETATM    6  C4  UNL     1     119.494  38.957  63.361  1.00  0.00     0.178 C
HETATM    7  C5  UNL     1     120.645  38.013  63.026  1.00  0.00     0.189 C
HETATM    8  N5  UNL     1     119.916  36.816  62.669  1.00  0.00    -0.126 NA
HETATM    9  N6  UNL     1     118.617  37.165  62.367  1.00  0.00    -0.037 NA
HETATM   10  N7  UNL     1     118.539  38.553  62.323  1.00  0.00    -0.090 NA
HETATM   11  C6  UNL     1     119.860  40.409  63.149  1.00  0.00     0.137 C
ENDROOT
BRANCH   1  12
HETATM   12  N1  UNL     1     118.608  42.433  63.550  1.00  0.00    -0.268 N
HETATM   13  C2  UNL     1     117.285  42.616  63.025  1.00  0.00     0.232 C
HETATM   14  C1  UNL     1     116.758  43.944  62.616  1.00  0.00     0.119 C
HETATM   15  O1  UNL     1     116.490  41.633  62.885  1.00  0.00    -0.272 OA
ATOM     16  H1  UNL     1     119.239  43.229  63.652  1.00  0.00     0.190 HD
ENDBRANCH   1  12
TORSDOF 1
ENDMDL