MODEL 1
REMARK VINA RESULT: -7.733294667      0.000      0.000
REMARK  1 active torsions:
REMARK  status: ('A' for Active; 'I' for Inactive)
REMARK       I    between atoms: N6_15  and  C5_16
REMARK       I    between atoms: C5_16  and  N7_18
REMARK    1  A    between atoms: N7_18  and  N8_20
ROOT
HETATM    1  N1  UNL     1     120.410  38.506  61.418  1.00  0.00    -0.383 N
ATOM      2  H11 UNL     1     120.609  39.422  61.016  1.00  0.00     0.157 HD
ATOM      3  H12 UNL     1     120.593  37.679  60.850  1.00  0.00     0.157 HD
HETATM    4  C1  UNL     1     119.938  38.395  62.612  1.00  0.00     0.143 C
HETATM    5  N2  UNL     1     119.660  37.119  63.172  1.00  0.00    -0.268 N
ATOM      6  H2  UNL     1     120.158  36.274  62.892  1.00  0.00     0.186 HD
HETATM    7  N3  UNL     1     118.632  37.111  64.156  1.00  0.00    -0.019 NA
HETATM    8  N4  UNL     1     118.947  38.077  65.144  1.00  0.00    -0.267 N
ATOM      9  H4  UNL     1     119.012  37.822  66.130  1.00  0.00     0.186 HD
HETATM   10  C2  UNL     1     119.166  39.403  64.718  1.00  0.00     0.161 A
HETATM   11  C3  UNL     1     119.676  39.577  63.424  1.00  0.00     0.124 A
HETATM   12  N5  UNL     1     119.798  40.892  63.284  1.00  0.00    -0.346 N
ATOM     13  H5  UNL     1     120.146  41.359  62.447  1.00  0.00     0.167 HD
HETATM   14  C4  UNL     1     119.398  41.517  64.400  1.00  0.00     0.195 A
HETATM   15  N6  UNL     1     118.992  40.586  65.323  1.00  0.00    -0.241 N
HETATM   16  C5  UNL     1     118.524  40.952  66.596  1.00  0.00     0.347 C
HETATM   17  O1  UNL     1     118.503  42.206  66.918  1.00  0.00    -0.245 OA
HETATM   18  N7  UNL     1     118.060  40.102  67.595  1.00  0.00    -0.258 N
ATOM     19  H7  UNL     1     118.039  39.097  67.422  1.00  0.00     0.191 HD
ENDROOT
BRANCH  18  20
HETATM   20  N8  UNL     1     117.611  40.601  68.861  1.00  0.00    -0.341 N
ATOM     21  H82 UNL     1     118.312  40.789  69.579  1.00  0.00     0.177 HD
ATOM     22  H81 UNL     1     116.623  40.768  69.053  1.00  0.00     0.177 HD
ENDBRANCH  18  20
TORSDOF 1
ENDMDL