MODEL 4
REMARK VINA RESULT: -6.180086352      1.980      2.713
REMARK  2 active torsions:
REMARK  status: ('A' for Active; 'I' for Inactive)
REMARK    1  A    between atoms: C3_9  and  C4_10
REMARK       I    between atoms: C4_10  and  N4_12
REMARK    2  A    between atoms: N4_12  and  N5_13
ROOT
HETATM    1  N1  UNL     1     117.881  40.415  65.919  1.00  0.00    -0.234 N
ATOM      2  H11 UNL     1     117.757  39.402  65.919  1.00  0.00     0.174 HD
ATOM      3  H12 UNL     1     117.861  40.876  65.009  1.00  0.00     0.174 HD
HETATM    4  C1  UNL     1     118.148  40.881  67.038  1.00  0.00     0.680 A
HETATM    5  N2  UNL     1     118.316  42.255  67.038  1.00  0.00    -0.178 N
ATOM      6  H2  UNL     1     118.309  42.787  66.167  1.00  0.00     0.185 HD
HETATM    7  C2  UNL     1     118.490  42.869  68.231  1.00  0.00     0.154 A
HETATM    8  N3  UNL     1     118.645  44.306  68.227  1.00  0.00    -0.081 NA
HETATM    9  C3  UNL     1     118.506  42.197  69.418  1.00  0.00     0.158 A
HETATM   10  C5  UNL     1     118.345  40.857  69.421  1.00  0.00     0.280 A
HETATM   11  O2  UNL     1     118.346  40.112  70.473  1.00  0.00    -0.266 OA
HETATM   12  N6  UNL     1     118.175  40.271  68.242  1.00  0.00    -0.155 N
ATOM     13  H6  UNL     1     118.053  39.259  68.246  1.00  0.00     0.187 HD
ENDROOT
BRANCH   9  14
HETATM   14  C4  UNL     1     118.760  43.000  70.676  1.00  0.00     0.354 C
HETATM   15  O1  UNL     1     119.845  43.054  71.149  1.00  0.00    -0.249 OA
HETATM   16  N4  UNL     1     117.522  43.673  71.199  1.00  0.00    -0.288 NA
BRANCH  16  17
HETATM   17  N5  UNL     1     116.576  44.186  71.598  1.00  0.00    -0.276 N
ATOM     18  H52 UNL     1     117.408  43.714  71.245  1.00  0.00     0.191 HD
ATOM     19  H51 UNL     1     115.736  44.643  71.954  1.00  0.00     0.191 HD
ENDBRANCH  16  17
ENDBRANCH   9  14
TORSDOF 2
ENDMDL