MODEL 1
REMARK VINA RESULT: -8.336791734      0.000      0.000
REMARK  0 active torsions:
REMARK  status: ('A' for Active; 'I' for Inactive)
ROOT
HETATM    1  O1  UNL     1     117.768  41.766  63.217  1.00  0.00    -0.267 OA
HETATM    2  C1  UNL     1     117.873  41.650  64.454  1.00  0.00     0.259 A
HETATM    3  N1  UNL     1     117.476  42.700  65.200  1.00  0.00    -0.333 N
ATOM      4  H1  UNL     1     117.114  43.533  64.737  1.00  0.00     0.168 HD
HETATM    5  C2  UNL     1     117.549  42.670  66.543  1.00  0.00     0.091 A
HETATM    6  C3  UNL     1     118.037  41.548  67.176  1.00  0.00     0.018 A
HETATM    7  C4  UNL     1     118.449  40.459  66.400  1.00  0.00     0.022 A
HETATM    8  C5  UNL     1     118.371  40.497  65.023  1.00  0.00     0.078 A
HETATM    9  C6  UNL     1     118.801  39.367  64.255  1.00  0.00     0.149 C
HETATM   10  N2  UNL     1     118.644  38.167  64.767  1.00  0.00    -0.271 N
ATOM     11  H2  UNL     1     118.217  38.135  65.693  1.00  0.00     0.190 HD
HETATM   12  N3  UNL     1     118.986  36.915  64.208  1.00  0.00    -0.227 N
ATOM     13  H3  UNL     1     118.880  36.081  64.786  1.00  0.00     0.205 HD
HETATM   14  N4  UNL     1     119.466  36.759  62.900  1.00  0.00     0.005 NA
HETATM   15  N5  UNL     1     118.742  37.625  62.083  1.00  0.00     0.006 NA
HETATM   16  N6  UNL     1     119.359  38.830  61.833  1.00  0.00    -0.009 NA
HETATM   17  N7  UNL     1     119.383  39.642  62.972  1.00  0.00    -0.270 N
ATOM     18  H7  UNL     1     119.871  40.533  62.879  1.00  0.00     0.185 HD
ENDROOT
TORSDOF 0
ENDMDL