MODEL 3
REMARK VINA RESULT: -6.205105716      4.043      6.583
REMARK  2 active torsions:
REMARK  status: ('A' for Active; 'I' for Inactive)
REMARK    1  A    between atoms: N1_1  and  C1_4
REMARK    2  A    between atoms: N4_15  and  N5_16
ROOT
HETATM    1  C1  UNL     1     116.701  42.306  62.392  1.00  0.00     0.681 C
HETATM    2  N2  UNL     1     115.945  42.786  63.395  1.00  0.00    -0.154 N
ATOM      3  H2  UNL     1     115.277  43.517  63.153  1.00  0.00     0.187 HD
HETATM    4  C2  UNL     1     115.976  42.404  64.684  1.00  0.00     0.288 C
HETATM    5  O1  UNL     1     115.099  42.893  65.424  1.00  0.00    -0.265 OA
HETATM    6  C3  UNL     1     116.852  41.531  65.338  1.00  0.00     0.133 C
HETATM    7  C4  UNL     1     117.773  40.672  64.743  1.00  0.00     0.152 C
HETATM    8  C5  UNL     1     117.992  40.523  63.383  1.00  0.00     0.290 C
HETATM    9  O2  UNL     1     118.817  39.610  63.082  1.00  0.00    -0.265 OA
HETATM   10  N3  UNL     1     117.464  41.197  62.330  1.00  0.00    -0.154 N
ATOM     11  H3  UNL     1     117.663  40.827  61.400  1.00  0.00     0.187 HD
HETATM   12  N4  UNL     1     118.445  39.978  65.786  1.00  0.00    -0.273 N
HETATM   13  C6  UNL     1     118.189  40.657  67.025  1.00  0.00     0.270 C
HETATM   14  N6  UNL     1     116.960  41.364  66.742  1.00  0.00    -0.365 N
ATOM     15  H6  UNL     1     116.285  41.688  67.434  1.00  0.00     0.161 HD
ENDROOT
BRANCH   1  16
HETATM   16  N1  UNL     1     116.706  43.019  61.296  1.00  0.00    -0.234 N
ATOM     17  H12 UNL     1     116.463  44.000  61.437  1.00  0.00     0.174 HD
ATOM     18  H11 UNL     1     116.950  42.516  60.443  1.00  0.00     0.174 HD
ENDBRANCH   1  16
BRANCH  12  19
HETATM   19  N5  UNL     1     119.211  38.830  65.570  1.00  0.00    -0.341 N
ATOM     20  H52 UNL     1     118.901  37.916  65.238  1.00  0.00     0.177 HD
ATOM     21  H51 UNL     1     120.217  38.791  65.733  1.00  0.00     0.177 HD
ENDBRANCH  12  19
TORSDOF 2
ENDMDL