MODEL 2
REMARK VINA RESULT: -7.257478661      1.506      1.687
REMARK  2 active torsions:
REMARK  status: ('A' for Active; 'I' for Inactive)
REMARK    1  A    between atoms: C3_6  and  C4_7
REMARK       I    between atoms: C4_7  and  N2_9
REMARK    2  A    between atoms: N2_9  and  N3_10
REMARK       I    between atoms: N3_10  and  C5_12
ROOT
HETATM    1  N1  UNL     1     118.720  37.717  64.848  1.00  0.00    -0.385 N
ATOM      2  H11 UNL     1     119.468  37.075  65.110  1.00  0.00     0.157 HD
ATOM      3  H12 UNL     1     117.745  37.433  64.941  1.00  0.00     0.157 HD
HETATM    4  C1  UNL     1     118.979  38.893  64.409  1.00  0.00     0.103 A
HETATM    5  C2  UNL     1     117.959  39.769  64.051  1.00  0.00     0.084 A
HETATM    6  C3  UNL     1     118.341  40.991  63.582  1.00  0.00     0.123 A
HETATM    7  N5  UNL     1     119.625  41.350  63.464  1.00  0.00    -0.325 N
ATOM      8  H5  UNL     1     119.859  42.276  63.106  1.00  0.00     0.169 HD
HETATM    9  C6  UNL     1     120.626  40.490  63.818  1.00  0.00     0.194 A
HETATM   10  N6  UNL     1     121.981  40.862  63.723  1.00  0.00    -0.063 NA
HETATM   11  N7  UNL     1     120.281  39.273  64.285  1.00  0.00    -0.317 N
ATOM     12  H7  UNL     1     121.015  38.618  64.553  1.00  0.00     0.170 HD
ENDROOT
BRANCH   6  13
HETATM   13  C4  UNL     1     117.227  41.960  63.265  1.00  0.00     0.362 C
HETATM   14  O1  UNL     1     116.550  42.297  64.286  1.00  0.00    -0.247 OA
HETATM   15  N2  UNL     1     117.034  42.374  61.979  1.00  0.00    -0.276 NA
BRANCH  15  16
HETATM   16  N3  UNL     1     116.845  42.772  60.752  1.00  0.00    -0.183 N
HETATM   17  C5  UNL     1     116.396  44.025  60.280  1.00  0.00     0.357 C
HETATM   18  N4  UNL     1     116.263  44.237  58.882  1.00  0.00    -0.038 NA
HETATM   19  O2  UNL     1     116.097  44.989  61.044  1.00  0.00    -0.248 OA
ATOM     20  H3  UNL     1     117.050  42.080  60.031  1.00  0.00     0.206 HD
ENDBRANCH  15  16
ENDBRANCH   6  13
TORSDOF 2
ENDMDL