MODEL 1
REMARK VINA RESULT: -6.200065330      0.000      0.000
REMARK  3 active torsions:
REMARK  status: ('A' for Active; 'I' for Inactive)
REMARK    1  A    between atoms: N3_9  and  N4_10
REMARK    2  A    between atoms: C4_15  and  C5_16
REMARK       I    between atoms: C5_16  and  N6_18
REMARK    3  A    between atoms: N6_18  and  N7_20
ROOT
HETATM    1  N1  UNL     1     116.885  41.688  62.181  1.00  0.00    -0.384 N
ATOM      2  H11 UNL     1     117.572  41.331  61.517  1.00  0.00     0.157 HD
ATOM      3  H12 UNL     1     116.130  42.282  61.837  1.00  0.00     0.157 HD
HETATM    4  C1  UNL     1     116.981  41.384  63.426  1.00  0.00     0.122 A
HETATM    5  N2  UNL     1     116.060  41.862  64.315  1.00  0.00    -0.292 N
ATOM      6  H2  UNL     1     115.311  42.456  63.957  1.00  0.00     0.172 HD
HETATM    7  C2  UNL     1     116.084  41.598  65.625  1.00  0.00     0.348 A
HETATM    8  O1  UNL     1     115.202  42.072  66.393  1.00  0.00    -0.245 OA
HETATM    9  N3  UNL     1     117.065  40.819  66.106  1.00  0.00    -0.197 N
HETATM   10  C3  UNL     1     117.979  40.337  65.263  1.00  0.00     0.162 A
HETATM   11  N5  UNL     1     119.006  39.520  65.782  1.00  0.00    -0.079 NA
HETATM   12  C4  UNL     1     117.995  40.586  63.888  1.00  0.00     0.120 A
ENDROOT
BRANCH  12  13
HETATM   13  C5  UNL     1     119.044  40.001  63.088  1.00  0.00     0.276 C
HETATM   14  O2  UNL     1     118.720  39.075  62.253  1.00  0.00    -0.266 OA
HETATM   15  N6  UNL     1     120.393  40.361  63.146  1.00  0.00    -0.272 N
ATOM     16  H6  UNL     1     120.722  41.086  63.783  1.00  0.00     0.189 HD
BRANCH  15  17
HETATM   17  N7  UNL     1     121.300  39.665  62.269  1.00  0.00    -0.342 N
ATOM     18  H72 UNL     1     121.246  39.797  61.260  1.00  0.00     0.176 HD
ATOM     19  H71 UNL     1     121.985  39.046  62.701  1.00  0.00     0.176 HD
ENDBRANCH  15  17
ENDBRANCH  12  13
BRANCH   9  20
HETATM   20  N4  UNL     1     117.118  40.524  67.471  1.00  0.00    -0.333 N
ATOM     21  H42 UNL     1     116.350  40.776  68.093  1.00  0.00     0.177 HD
ATOM     22  H41 UNL     1     117.933  40.050  67.859  1.00  0.00     0.177 HD
ENDBRANCH   9  20
TORSDOF 3
ENDMDL