MODEL 2
REMARK VINA RESULT: -6.643653330      3.520      4.939
REMARK  2 active torsions:
REMARK  status: ('A' for Active; 'I' for Inactive)
REMARK       I    between atoms: C2_3  and  N2_5
REMARK    1  A    between atoms: N2_5  and  N3_7
REMARK    2  A    between atoms: C4_14  and  N6_15
ROOT
HETATM    1  N1  UNL     1     115.251  41.954  68.308  1.00  0.00    -0.186 NA
HETATM    2  C1  UNL     1     116.219  41.685  67.736  1.00  0.00     0.163 C
HETATM    3  C2  UNL     1     117.443  41.330  66.984  1.00  0.00     0.341 C
HETATM    4  O1  UNL     1     118.475  41.683  67.535  1.00  0.00    -0.254 OA
HETATM    5  N2  UNL     1     117.276  40.663  65.785  1.00  0.00    -0.232 N
ATOM      6  H2  UNL     1     116.292  40.500  65.574  1.00  0.00     0.192 HD
ENDROOT
BRANCH   5   7
HETATM    7  N3  UNL     1     118.099  40.163  64.807  1.00  0.00    -0.027 N
HETATM    8  C3  UNL     1     119.064  39.291  64.996  1.00  0.00     0.716 A
HETATM    9  N4  UNL     1     119.347  38.803  66.139  1.00  0.00    -0.232 N
HETATM   10  N5  UNL     1     119.808  38.882  63.914  1.00  0.00    -0.021 N
ATOM     11  H42 UNL     1     118.795  39.107  66.941  1.00  0.00     0.174 HD
ATOM     12  H41 UNL     1     120.095  38.127  66.285  1.00  0.00     0.174 HD
HETATM   13  C4  UNL     1     119.589  39.335  62.680  1.00  0.00     0.694 A
ATOM     14  H5  UNL     1     120.557  38.205  64.062  1.00  0.00     0.203 HD
HETATM   15  N7  UNL     1     118.598  40.225  62.510  1.00  0.00    -0.139 N
HETATM   16  C5  UNL     1     117.863  40.638  63.536  1.00  0.00     0.374 A
ATOM     17  H7  UNL     1     118.406  40.590  61.577  1.00  0.00     0.189 HD
HETATM   18  O2  UNL     1     116.955  41.475  63.282  1.00  0.00    -0.244 OA
BRANCH  13  19
HETATM   19  N6  UNL     1     120.300  38.933  61.692  1.00  0.00    -0.234 N
ATOM     20  H62 UNL     1     120.620  37.967  61.628  1.00  0.00     0.174 HD
ATOM     21  H61 UNL     1     120.567  39.570  60.942  1.00  0.00     0.174 HD
ENDBRANCH  13  19
ENDBRANCH   5   7
TORSDOF 2
ENDMDL