MODEL 3
REMARK VINA RESULT: -6.218539729      2.806      3.700
REMARK  3 active torsions:
REMARK  status: ('A' for Active; 'I' for Inactive)
REMARK    1  A    between atoms: N1_2  and  N2_4
REMARK       I    between atoms: N2_4  and  C3_6
REMARK    2  A    between atoms: C3_6  and  C4_8
REMARK    3  A    between atoms: C4_8  and  O2_9
ROOT
HETATM    1  C4  UNL     1      75.662  20.203  87.659  1.00  0.00     0.317 C
HETATM    2  N3  UNL     1      74.633  19.946  88.640  1.00  0.00    -0.066 NA
HETATM    3  N4  UNL     1      74.099  21.206  88.895  1.00  0.00    -0.251 N
ATOM      4  H4  UNL     1      73.653  21.503  89.762  1.00  0.00     0.187 HD
HETATM    5  C5  UNL     1      74.283  22.007  87.735  1.00  0.00     0.335 C
HETATM    6  O3  UNL     1      73.593  23.042  87.463  1.00  0.00    -0.246 OA
HETATM    7  N5  UNL     1      75.342  21.439  86.987  1.00  0.00    -0.286 N
ATOM      8  H5  UNL     1      75.784  21.821  86.152  1.00  0.00     0.169 HD
ENDROOT
BRANCH   1   9
HETATM    9  C3  UNL     1      76.963  20.285  88.407  1.00  0.00     0.307 C
HETATM   10  N2  UNL     1      78.107  20.867  87.885  1.00  0.00    -0.284 N
ATOM     11  H2  UNL     1      78.027  21.252  86.944  1.00  0.00     0.184 HD
HETATM   12  O1  UNL     1      76.936  19.773  89.564  1.00  0.00    -0.265 OA
BRANCH  10  13
HETATM   13  N1  UNL     1      79.330  20.988  88.483  1.00  0.00    -0.237 NA
HETATM   14  C1  UNL     1      79.502  22.214  89.217  1.00  0.00     0.135 C
HETATM   15  C2  UNL     1      80.454  20.816  87.614  1.00  0.00     0.135 C
ENDBRANCH  10  13
ENDBRANCH   1   9
BRANCH   1  16
HETATM   16  O2  UNL     1      75.642  19.122  86.777  1.00  0.00    -0.348 OA
ATOM     17  H2  UNL     1      76.444  18.614  86.827  1.00  0.00     0.214 HD
ENDBRANCH   1  16
TORSDOF 3
ENDMDL