MODEL 4
REMARK VINA RESULT: -6.360094200      0.745      1.564
REMARK  4 active torsions:
REMARK  status: ('A' for Active; 'I' for Inactive)
REMARK    1  A    between atoms: N1_1  and  C1_4
REMARK    2  A    between atoms: N5_9  and  C2_10
REMARK    3  A    between atoms: C2_10  and  C3_11
REMARK       I    between atoms: C3_11  and  N6_13
REMARK    4  A    between atoms: N6_13  and  N7_15
REMARK       I    between atoms: N7_15  and  C4_17
ROOT
HETATM    1  C2  UNL     1      75.235  19.918  89.147  1.00  0.00     0.269 C
ENDROOT
BRANCH   1   2
HETATM    2  N5  UNL     1      74.633  20.850  88.184  1.00  0.00    -0.100 N
HETATM    3  C1  UNL     1      73.866  21.920  88.440  1.00  0.00     0.704 A
HETATM    4  N2  UNL     1      73.501  22.550  87.290  1.00  0.00    -0.117 N
HETATM    5  N3  UNL     1      74.068  21.829  86.319  1.00  0.00     0.007 NA
ATOM      6  H2  UNL     1      72.923  23.384  87.191  1.00  0.00     0.202 HD
HETATM    7  N4  UNL     1      74.750  20.807  86.854  1.00  0.00     0.009 NA
BRANCH   3   8
HETATM    8  N1  UNL     1      73.519  22.304  89.620  1.00  0.00    -0.232 N
ATOM      9  H12 UNL     1      72.663  22.816  89.832  1.00  0.00     0.174 HD
ATOM     10  H11 UNL     1      74.067  22.137  90.464  1.00  0.00     0.174 HD
ENDBRANCH   3   8
ENDBRANCH   1   2
BRANCH   1  11
HETATM   11  C3  UNL     1      76.279  20.602  89.944  1.00  0.00     0.256 C
HETATM   12  O1  UNL     1      77.193  21.223  89.324  1.00  0.00    -0.270 OA
HETATM   13  N6  UNL     1      76.268  20.569  91.342  1.00  0.00    -0.265 N
ATOM     14  H6  UNL     1      75.543  20.071  91.858  1.00  0.00     0.190 HD
BRANCH  13  15
HETATM   15  N7  UNL     1      77.310  21.259  92.008  1.00  0.00    -0.251 N
HETATM   16  C4  UNL     1      78.130  20.558  92.910  1.00  0.00     0.347 C
HETATM   17  N8  UNL     1      79.163  21.243  93.580  1.00  0.00    -0.038 NA
HETATM   18  O2  UNL     1      77.948  19.346  93.117  1.00  0.00    -0.249 OA
ATOM     19  H7  UNL     1      77.464  22.253  91.835  1.00  0.00     0.191 HD
ENDBRANCH  13  15
ENDBRANCH   1  11
TORSDOF 4
ENDMDL