MODEL 2
REMARK VINA RESULT: -5.965877516      2.208      3.443
REMARK  4 active torsions:
REMARK  status: ('A' for Active; 'I' for Inactive)
REMARK    1  A    between atoms: O1_2  and  C2_3
REMARK    2  A    between atoms: C2_3  and  N1_4
REMARK    3  A    between atoms: N4_11  and  N5_12
REMARK    4  A    between atoms: C4_15  and  N6_16
ROOT
HETATM    1  N1  UNL     1      76.898  21.757  88.174  1.00  0.00    -0.083 N
HETATM    2  N2  UNL     1      75.967  21.137  87.426  1.00  0.00    -0.112 N
ATOM      3  H2  UNL     1      75.967  21.079  86.407  1.00  0.00     0.206 HD
HETATM    4  C3  UNL     1      75.037  20.606  88.239  1.00  0.00     0.727 A
HETATM    5  N3  UNL     1      74.008  19.944  87.862  1.00  0.00    -0.231 N
ATOM      6  H31 UNL     1      73.303  19.542  88.479  1.00  0.00     0.174 HD
ATOM      7  H32 UNL     1      73.763  19.737  86.894  1.00  0.00     0.174 HD
HETATM    8  N4  UNL     1      75.362  20.880  89.515  1.00  0.00     0.086 N
HETATM    9  C4  UNL     1      76.505  21.587  89.449  1.00  0.00     0.740 A
ENDROOT
BRANCH   9  10
HETATM   10  N6  UNL     1      77.163  22.082  90.616  1.00  0.00    -0.154 N
HETATM   11  C5  UNL     1      77.969  21.338  91.290  1.00  0.00     0.228 A
HETATM   12  N7  UNL     1      78.833  21.213  92.389  1.00  0.00    -0.267 N
HETATM   13  N8  UNL     1      78.651  20.089  91.513  1.00  0.00    -0.267 N
ATOM     14  H7  UNL     1      79.273  21.624  93.213  1.00  0.00     0.190 HD
ATOM     15  H8  UNL     1      78.853  19.124  91.248  1.00  0.00     0.190 HD
ATOM     16  H6  UNL     1      76.991  23.039  90.921  1.00  0.00     0.187 HD
ENDBRANCH   9  10
BRANCH   1  17
HETATM   17  C2  UNL     1      78.061  22.432  87.643  1.00  0.00     0.335 C
BRANCH  17  18
HETATM   18  O1  UNL     1      79.205  21.978  88.215  1.00  0.00    -0.374 OA
HETATM   19  C1  UNL     1      79.739  20.830  87.675  1.00  0.00     0.203 C
ENDBRANCH  17  18
ENDBRANCH   1  17
BRANCH   8  20
HETATM   20  N5  UNL     1      74.651  20.504  90.681  1.00  0.00    -0.309 N
ATOM     21  H52 UNL     1      73.657  20.638  90.869  1.00  0.00     0.178 HD
ATOM     22  H51 UNL     1      75.023  20.042  91.510  1.00  0.00     0.178 HD
ENDBRANCH   8  20
TORSDOF 4
ENDMDL