MODEL 5
REMARK VINA RESULT: -5.718480136      1.677      5.369
REMARK  5 active torsions:
REMARK  status: ('A' for Active; 'I' for Inactive)
REMARK    1  A    between atoms: C2_2  and  N1_3
REMARK    2  A    between atoms: C2_2  and  C3_7
REMARK    3  A    between atoms: C3_7  and  N2_8
REMARK    4  A    between atoms: C3_7  and  C4_12
REMARK       I    between atoms: C4_12  and  N3_14
REMARK    5  A    between atoms: N3_14  and  C5_16
ROOT
HETATM    1  C3  UNL     1      74.753  20.832  89.026  1.00  0.00     0.304 C
ENDROOT
BRANCH   1   2
HETATM    2  C2  UNL     1      75.095  21.088  87.572  1.00  0.00     0.219 C
HETATM    3  C1  UNL     1      73.898  21.644  86.829  1.00  0.00     0.042 C
BRANCH   2   4
HETATM    4  N1  UNL     1      75.353  19.766  86.982  1.00  0.00    -0.073 N
ATOM      5  H13 UNL     1      75.826  19.122  87.616  1.00  0.00     0.274 HD
ATOM      6  H12 UNL     1      74.510  19.207  86.848  1.00  0.00     0.274 HD
ATOM      7  H11 UNL     1      75.867  19.942  86.119  1.00  0.00     0.274 HD
ENDBRANCH   2   4
ENDBRANCH   1   2
BRANCH   1   8
HETATM    8  N2  UNL     1      73.994  21.923  89.569  1.00  0.00    -0.064 N
ATOM      9  H23 UNL     1      74.322  22.187  90.498  1.00  0.00     0.275 HD
ATOM     10  H22 UNL     1      74.190  22.798  89.084  1.00  0.00     0.275 HD
ATOM     11  H21 UNL     1      72.998  21.705  89.568  1.00  0.00     0.275 HD
ENDBRANCH   1   8
BRANCH   1  12
HETATM   12  C4  UNL     1      75.958  20.573  89.840  1.00  0.00     0.253 C
HETATM   13  O1  UNL     1      77.070  20.503  89.273  1.00  0.00    -0.271 OA
HETATM   14  N3  UNL     1      75.915  20.396  91.241  1.00  0.00    -0.309 N
ATOM     15  H3  UNL     1      75.001  20.455  91.692  1.00  0.00     0.166 HD
BRANCH  14  16
HETATM   16  C5  UNL     1      77.034  20.144  92.074  1.00  0.00     0.452 C
HETATM   17  N4  UNL     1      77.863  19.041  91.648  1.00  0.00    -0.014 N
HETATM   18  C6  UNL     1      78.617  18.772  92.884  1.00  0.00     0.379 C
ATOM     19  H42 UNL     1      77.365  18.243  91.254  1.00  0.00     0.284 HD
ATOM     20  H41 UNL     1      78.427  19.210  90.816  1.00  0.00     0.284 HD
HETATM   21  N5  UNL     1      77.977  19.596  93.898  1.00  0.00    -0.069 NA
HETATM   22  O2  UNL     1      76.723  19.787  93.377  1.00  0.00    -0.230 OA
ENDBRANCH  14  16
ENDBRANCH   1  12
TORSDOF 5
ENDMDL