MODEL 5
REMARK VINA RESULT: -6.509701704      1.602      1.737
REMARK  1 active torsions:
REMARK  status: ('A' for Active; 'I' for Inactive)
REMARK    1  A    between atoms: O1_2  and  C2_3
REMARK       I    between atoms: N4_11  and  C4_13
REMARK       I    between atoms: C4_13  and  N5_14
REMARK       I    between atoms: C4_13  and  N6_18
ROOT
HETATM    1  C2  UNL     1      79.269  21.696  90.675  1.00  0.00     0.228 C
HETATM    2  N1  UNL     1      78.272  21.415  91.412  1.00  0.00    -0.260 N
ATOM      3  H1  UNL     1      78.528  21.200  92.376  1.00  0.00     0.190 HD
HETATM    4  N2  UNL     1      76.884  21.340  91.168  1.00  0.00    -0.226 N
ATOM      5  H2  UNL     1      76.285  21.148  91.971  1.00  0.00     0.209 HD
HETATM    6  N3  UNL     1      76.247  21.506  89.923  1.00  0.00    -0.117 N
ATOM      7  H3  UNL     1      75.229  21.564  89.968  1.00  0.00     0.207 HD
HETATM    8  C3  UNL     1      76.794  21.605  88.613  1.00  0.00     0.699 C
HETATM    9  N4  UNL     1      76.057  21.411  87.602  1.00  0.00    -0.172 N
ATOM     10  H4  UNL     1      76.514  21.497  86.694  1.00  0.00     0.181 HD
HETATM   11  C4  UNL     1      74.678  21.088  87.573  1.00  0.00     0.494 C
HETATM   12  N5  UNL     1      74.296  20.892  86.167  1.00  0.00    -0.032 N
ATOM     13  H51 UNL     1      73.304  20.660  86.146  1.00  0.00     0.278 HD
ATOM     14  H52 UNL     1      74.876  20.199  85.691  1.00  0.00     0.278 HD
ATOM     15  H53 UNL     1      74.529  21.690  85.577  1.00  0.00     0.278 HD
HETATM   16  N6  UNL     1      74.494  19.788  88.210  1.00  0.00    -0.032 N
ATOM     17  H61 UNL     1      73.502  19.556  88.189  1.00  0.00     0.278 HD
ATOM     18  H62 UNL     1      74.886  19.753  89.151  1.00  0.00     0.278 HD
ATOM     19  H63 UNL     1      75.075  19.061  87.792  1.00  0.00     0.278 HD
HETATM   20  N7  UNL     1      78.156  21.917  88.338  1.00  0.00    -0.151 N
ATOM     21  H7  UNL     1      78.382  22.068  87.354  1.00  0.00     0.188 HD
HETATM   22  C5  UNL     1      79.261  22.048  89.257  1.00  0.00     0.312 C
HETATM   23  O2  UNL     1      80.336  22.508  88.826  1.00  0.00    -0.263 OA
ENDROOT
BRANCH   1  24
HETATM   24  O1  UNL     1      80.537  21.672  91.266  1.00  0.00    -0.336 OA
HETATM   25  C1  UNL     1      80.739  22.363  92.490  1.00  0.00     0.212 C
ENDBRANCH   1  24
TORSDOF 1
ENDMDL