MODEL 5
REMARK VINA RESULT: -6.252749337      2.153      2.564
REMARK  3 active torsions:
REMARK  status: ('A' for Active; 'I' for Inactive)
REMARK    1  A    between atoms: N2_3  and  C2_5
REMARK    2  A    between atoms: C2_5  and  C3_6
REMARK    3  A    between atoms: N7_18  and  N8_19
ROOT
HETATM    1  N1  UNL     1      80.180  18.597  91.639  1.00  0.00    -0.172 NA
HETATM    2  C1  UNL     1      79.455  19.500  91.531  1.00  0.00     0.182 C
HETATM    3  N2  UNL     1      78.599  20.559  91.394  1.00  0.00    -0.286 N
ATOM      4  H2  UNL     1      78.259  21.031  92.232  1.00  0.00     0.178 HD
ENDROOT
BRANCH   3   5
HETATM    5  C2  UNL     1      78.152  21.044  90.061  1.00  0.00     0.155 C
HETATM    6  C4  UNL     1      76.858  21.069  89.876  1.00  0.00     0.192 A
HETATM    7  N4  UNL     1      75.887  20.658  90.886  1.00  0.00    -0.267 N
HETATM    8  N7  UNL     1      76.059  21.448  88.793  1.00  0.00    -0.072 N
HETATM    9  N5  UNL     1      74.597  20.795  90.405  1.00  0.00    -0.129 N
ATOM     10  H4  UNL     1      76.127  20.316  91.816  1.00  0.00     0.189 HD
HETATM   11  C5  UNL     1      74.643  21.288  89.092  1.00  0.00     0.713 A
ATOM     12  H5  UNL     1      73.746  20.573  90.923  1.00  0.00     0.205 HD
HETATM   13  N6  UNL     1      73.645  21.555  88.294  1.00  0.00    -0.232 N
ATOM     14  H62 UNL     1      72.653  21.443  88.503  1.00  0.00     0.174 HD
ATOM     15  H61 UNL     1      73.678  21.913  87.339  1.00  0.00     0.174 HD
BRANCH   5  16
HETATM   16  C3  UNL     1      79.206  21.415  89.166  1.00  0.00     0.286 C
HETATM   17  N3  UNL     1      79.444  20.644  87.952  1.00  0.00    -0.056 NA
HETATM   18  O1  UNL     1      79.971  22.361  89.315  1.00  0.00    -0.269 OA
ENDBRANCH   5  16
BRANCH   8  19
HETATM   19  N8  UNL     1      76.464  21.927  87.551  1.00  0.00    -0.322 N
ATOM     20  H82 UNL     1      75.971  21.644  86.705  1.00  0.00     0.178 HD
ATOM     21  H81 UNL     1      77.233  22.563  87.341  1.00  0.00     0.178 HD
ENDBRANCH   8  19
ENDBRANCH   3   5
TORSDOF 3
ENDMDL