MODEL 4
REMARK VINA RESULT: -6.087503492      0.750      1.188
REMARK  4 active torsions:
REMARK  status: ('A' for Active; 'I' for Inactive)
REMARK    1  A    between atoms: N1_1  and  C1_5
REMARK    2  A    between atoms: C1_5  and  N2_6
REMARK    3  A    between atoms: C1_5  and  C2_10
REMARK    4  A    between atoms: C2_10  and  C3_12
ROOT
HETATM    1  C3  UNL     1      75.809  21.195  89.589  1.00  0.00     0.166 A
HETATM    2  N3  UNL     1      75.371  20.599  90.714  1.00  0.00    -0.288 N
ATOM      3  H3  UNL     1      74.389  20.330  90.777  1.00  0.00     0.187 HD
HETATM    4  N4  UNL     1      76.171  20.349  91.744  1.00  0.00    -0.251 N
ATOM      5  H4  UNL     1      75.827  19.897  92.592  1.00  0.00     0.191 HD
HETATM    6  C4  UNL     1      77.463  20.722  91.615  1.00  0.00     0.341 A
HETATM    7  O2  UNL     1      78.226  20.485  92.593  1.00  0.00    -0.245 OA
HETATM    8  N5  UNL     1      77.944  21.314  90.521  1.00  0.00    -0.272 N
ATOM      9  H5  UNL     1      78.929  21.575  90.477  1.00  0.00     0.174 HD
HETATM   10  C5  UNL     1      77.130  21.570  89.472  1.00  0.00     0.281 A
HETATM   11  O3  UNL     1      77.597  22.130  88.444  1.00  0.00    -0.265 OA
ENDROOT
BRANCH   1  12
HETATM   12  C2  UNL     1      74.903  21.450  88.487  1.00  0.00     0.240 C
HETATM   13  O1  UNL     1      74.184  22.480  88.471  1.00  0.00    -0.286 OA
BRANCH  12  14
HETATM   14  C1  UNL     1      74.822  20.479  87.360  1.00  0.00     0.453 C
BRANCH  14  15
HETATM   15  N1  UNL     1      73.949  19.380  87.671  1.00  0.00    -0.043 N
ATOM     16  H13 UNL     1      73.338  19.135  86.891  1.00  0.00     0.277 HD
ATOM     17  H12 UNL     1      74.449  18.494  87.743  1.00  0.00     0.277 HD
ATOM     18  H11 UNL     1      73.428  19.603  88.519  1.00  0.00     0.277 HD
ENDBRANCH  14  15
BRANCH  14  19
HETATM   19  N2  UNL     1      74.345  21.127  86.146  1.00  0.00    -0.043 N
ATOM     20  H23 UNL     1      73.359  20.940  85.966  1.00  0.00     0.277 HD
ATOM     21  H22 UNL     1      74.282  22.140  86.244  1.00  0.00     0.277 HD
ATOM     22  H21 UNL     1      74.943  20.847  85.368  1.00  0.00     0.277 HD
ENDBRANCH  14  19
ENDBRANCH  12  14
ENDBRANCH   1  12
TORSDOF 4
ENDMDL