MODEL 5
REMARK VINA RESULT: -6.254757923      2.203      5.912
REMARK  4 active torsions:
REMARK  status: ('A' for Active; 'I' for Inactive)
REMARK    1  A    between atoms: C1_4  and  O1_6
REMARK    2  A    between atoms: O1_6  and  C2_7
REMARK    3  A    between atoms: C2_7  and  C3_8
REMARK       I    between atoms: C3_8  and  N3_10
REMARK    4  A    between atoms: N3_10  and  C4_11
ROOT
HETATM    1  C3  UNL     1      77.204  19.900  91.180  1.00  0.00     0.319 C
HETATM    2  O2  UNL     1      78.063  18.970  91.126  1.00  0.00    -0.255 OA
HETATM    3  N3  UNL     1      76.412  20.328  90.208  1.00  0.00    -0.333 NA
ENDROOT
BRANCH   1   4
HETATM    4  C2  UNL     1      77.191  20.512  92.588  1.00  0.00     0.297 C
BRANCH   4   5
HETATM    5  O1  UNL     1      77.745  19.618  93.495  1.00  0.00    -0.314 OA
BRANCH   5   6
HETATM    6  C1  UNL     1      76.993  18.683  94.188  1.00  0.00     0.225 C
HETATM    7  N1  UNL     1      77.630  17.561  94.440  1.00  0.00    -0.368 N
ATOM      8  H12 UNL     1      77.077  16.872  94.950  1.00  0.00     0.159 HD
ATOM      9  H11 UNL     1      78.594  17.405  94.144  1.00  0.00     0.159 HD
HETATM   10  N2  UNL     1      75.657  18.899  94.598  1.00  0.00    -0.057 NA
ENDBRANCH   5   6
ENDBRANCH   4   5
ENDBRANCH   1   4
BRANCH   3  11
HETATM   11  C4  UNL     1      75.586  20.774  89.193  1.00  0.00     0.265 C
HETATM   12  N4  UNL     1      74.596  21.612  89.552  1.00  0.00    -0.321 N
HETATM   13  C5  UNL     1      73.806  22.009  88.454  1.00  0.00     0.166 C
ATOM     14  H4  UNL     1      74.436  21.924  90.511  1.00  0.00     0.169 HD
HETATM   15  C6  UNL     1      74.485  21.498  87.250  1.00  0.00     0.264 C
HETATM   16  O3  UNL     1      74.185  21.736  86.090  1.00  0.00    -0.267 OA
HETATM   17  N5  UNL     1      75.537  20.683  87.792  1.00  0.00    -0.282 N
ATOM     18  H5  UNL     1      76.167  20.111  87.230  1.00  0.00     0.173 HD
ENDBRANCH   3  11
TORSDOF 4
ENDMDL