MODEL 2
REMARK VINA RESULT: -6.886034259      2.318      2.769
REMARK  4 active torsions:
REMARK  status: ('A' for Active; 'I' for Inactive)
REMARK    1  A    between atoms: N1_1  and  C1_4
REMARK    2  A    between atoms: C2_7  and  C3_8
REMARK    3  A    between atoms: C3_8  and  C4_10
REMARK       I    between atoms: C4_10  and  N3_12
REMARK    4  A    between atoms: N3_12  and  N4_14
ROOT
HETATM    1  C1  UNL     1      73.771  21.288  87.904  1.00  0.00     0.681 A
HETATM    2  N2  UNL     1      74.920  21.884  88.251  1.00  0.00    -0.172 N
ATOM      3  H2  UNL     1      74.901  22.858  88.555  1.00  0.00     0.186 HD
HETATM    4  C2  UNL     1      76.095  21.238  88.210  1.00  0.00     0.181 A
HETATM    5  N5  UNL     1      76.091  19.959  87.807  1.00  0.00    -0.290 N
ATOM      6  H5  UNL     1      76.970  19.443  87.766  1.00  0.00     0.172 HD
HETATM    7  C5  UNL     1      74.941  19.343  87.454  1.00  0.00     0.340 A
HETATM    8  O3  UNL     1      74.950  18.141  87.077  1.00  0.00    -0.246 OA
HETATM    9  N6  UNL     1      73.776  20.012  87.504  1.00  0.00    -0.141 N
ATOM     10  H6  UNL     1      72.905  19.551  87.239  1.00  0.00     0.189 HD
ENDROOT
BRANCH   4  11
HETATM   11  C3  UNL     1      77.355  21.875  88.585  1.00  0.00     0.285 C
HETATM   12  O1  UNL     1      78.096  22.378  87.708  1.00  0.00    -0.278 OA
BRANCH  11  13
HETATM   13  C4  UNL     1      77.795  21.951  89.971  1.00  0.00     0.313 C
HETATM   14  O2  UNL     1      78.808  22.641  90.255  1.00  0.00    -0.262 OA
HETATM   15  N3  UNL     1      77.119  21.276  91.001  1.00  0.00    -0.270 N
ATOM     16  H3  UNL     1      76.301  20.723  90.743  1.00  0.00     0.189 HD
BRANCH  15  17
HETATM   17  N4  UNL     1      77.471  21.299  92.333  1.00  0.00    -0.342 N
ATOM     18  H42 UNL     1      76.887  21.868  92.945  1.00  0.00     0.176 HD
ATOM     19  H41 UNL     1      78.259  20.797  92.743  1.00  0.00     0.176 HD
ENDBRANCH  15  17
ENDBRANCH  11  13
ENDBRANCH   4  11
BRANCH   1  20
HETATM   20  N1  UNL     1      72.629  21.929  87.948  1.00  0.00    -0.234 N
ATOM     21  H12 UNL     1      72.002  21.759  88.734  1.00  0.00     0.174 HD
ATOM     22  H11 UNL     1      72.360  22.587  87.216  1.00  0.00     0.174 HD
ENDBRANCH   1  20
TORSDOF 4
ENDMDL