MODEL 5
REMARK VINA RESULT: -6.179978337      1.452      2.160
REMARK  3 active torsions:
REMARK  status: ('A' for Active; 'I' for Inactive)
REMARK    1  A    between atoms: N1_1  and  N2_4
REMARK    2  A    between atoms: N2_4  and  N3_6
REMARK    3  A    between atoms: C2_8  and  C3_9
REMARK       I    between atoms: C3_9  and  N4_11
REMARK       I    between atoms: N4_11  and  C4_13
ROOT
HETATM    1  N3  UNL     1      77.429  20.277  91.064  1.00  0.00    -0.190 N
HETATM    2  C1  UNL     1      77.261  19.496  92.164  1.00  0.00     0.161 A
HETATM    3  C2  UNL     1      78.456  18.841  92.391  1.00  0.00     0.120 A
HETATM    4  C5  UNL     1      79.335  19.247  91.405  1.00  0.00     0.278 A
HETATM    5  O3  UNL     1      80.525  18.899  91.236  1.00  0.00    -0.266 OA
HETATM    6  N6  UNL     1      78.666  20.115  90.628  1.00  0.00    -0.243 N
ATOM      7  H6  UNL     1      79.059  20.584  89.811  1.00  0.00     0.192 HD
ENDROOT
BRANCH   3   8
HETATM    8  C3  UNL     1      78.751  17.907  93.496  1.00  0.00     0.266 C
HETATM    9  O1  UNL     1      77.763  17.262  93.934  1.00  0.00    -0.267 OA
HETATM   10  N4  UNL     1      80.067  17.771  94.002  1.00  0.00    -0.277 N
HETATM   11  C4  UNL     1      80.376  16.874  95.040  1.00  0.00     0.335 C
ATOM     12  H4  UNL     1      80.812  18.340  93.601  1.00  0.00     0.173 HD
HETATM   13  N5  UNL     1      81.717  16.746  95.525  1.00  0.00    -0.040 NA
HETATM   14  O2  UNL     1      79.455  16.165  95.553  1.00  0.00    -0.251 OA
ENDBRANCH   3   8
BRANCH   1  15
HETATM   15  N2  UNL     1      76.410  21.078  90.569  1.00  0.00    -0.228 N
ATOM     16  H2  UNL     1      76.606  22.023  90.237  1.00  0.00     0.210 HD
BRANCH  15  17
HETATM   17  N1  UNL     1      75.122  20.569  90.534  1.00  0.00    -0.329 N
ATOM     18  H12 UNL     1      74.974  19.580  90.335  1.00  0.00     0.178 HD
ATOM     19  H11 UNL     1      74.341  21.201  90.709  1.00  0.00     0.178 HD
ENDBRANCH  15  17
ENDBRANCH   1  15
TORSDOF 3
ENDMDL