MODEL 1
REMARK VINA RESULT: -5.281540999      0.000      0.000
REMARK  6 active torsions:
REMARK  status: ('A' for Active; 'I' for Inactive)
REMARK    1  A    between atoms: C3_5  and  C4_6
REMARK    2  A    between atoms: C3_5  and  N3_11
REMARK    3  A    between atoms: C4_6  and  N2_7
REMARK    4  A    between atoms: N3_11  and  C5_13
REMARK    5  A    between atoms: C5_13  and  N4_15
REMARK    6  A    between atoms: N4_15  and  N5_17
ROOT
HETATM    1  C1  UNL     1       1.266   6.486  11.731  1.00  0.00     0.037 C
HETATM    2  C2  UNL     1       0.784   7.544  11.366  1.00  0.00     0.000 C
HETATM    3  N1  UNL     1       0.251   8.756  10.930  1.00  0.00    -0.304 N
ATOM      4  H1  UNL     1       0.741   9.286  10.211  1.00  0.00     0.177 HD
HETATM    5  C3  UNL     1      -0.845   9.219  11.416  1.00  0.00     0.116 C
ENDROOT
BRANCH   5   6
HETATM    6  C4  UNL     1      -1.529   8.418  12.464  1.00  0.00     0.306 C
BRANCH   6   7
HETATM    7  N2  UNL     1      -1.392   9.060  13.746  1.00  0.00    -0.073 N
ATOM      8  H23 UNL     1      -1.731   8.471  14.507  1.00  0.00     0.274 HD
ATOM      9  H22 UNL     1      -0.416   9.131  14.035  1.00  0.00     0.274 HD
ATOM     10  H21 UNL     1      -1.852   9.970  13.734  1.00  0.00     0.274 HD
ENDBRANCH   6   7
ENDBRANCH   5   6
BRANCH   5  11
HETATM   11  N3  UNL     1      -1.387  10.471  10.959  1.00  0.00    -0.320 N
ATOM     12  H3  UNL     1      -1.445  11.252  11.613  1.00  0.00     0.169 HD
BRANCH  11  13
HETATM   13  C5  UNL     1      -1.845  10.655   9.631  1.00  0.00     0.191 C
HETATM   14  S1  UNL     1      -2.945   9.593   9.067  1.00  0.00    -0.039 SA
BRANCH  13  15
HETATM   15  N4  UNL     1      -1.374  11.702   8.835  1.00  0.00    -0.283 N
ATOM     16  H4  UNL     1      -1.871  11.937   7.976  1.00  0.00     0.188 HD
BRANCH  15  17
HETATM   17  N5  UNL     1      -0.250  12.426   9.187  1.00  0.00    -0.343 N
ATOM     18  H52 UNL     1       0.237  12.174  10.047  1.00  0.00     0.176 HD
ATOM     19  H51 UNL     1       0.091  13.194   8.608  1.00  0.00     0.176 HD
ENDBRANCH  15  17
ENDBRANCH  13  15
ENDBRANCH  11  13
ENDBRANCH   5  11
TORSDOF 6
ENDMDL