MODEL 3
REMARK VINA RESULT: -4.898733408      0.815      1.070
REMARK  4 active torsions:
REMARK  status: ('A' for Active; 'I' for Inactive)
REMARK    1  A    between atoms: S1_2  and  C2_3
REMARK    2  A    between atoms: C2_3  and  N4_13
REMARK       I    between atoms: N1_4  and  C3_6
REMARK       I    between atoms: C3_6  and  N2_8
REMARK    3  A    between atoms: N2_8  and  N3_10
REMARK    4  A    between atoms: N4_13  and  N5_15
ROOT
HETATM    1  C2  UNL     1      -0.771   8.352  10.893  1.00  0.00     0.162 C
HETATM    2  N1  UNL     1      -0.285   9.514  11.046  1.00  0.00    -0.287 N
ATOM      3  H1  UNL     1      -0.027   9.794  11.993  1.00  0.00     0.172 HD
HETATM    4  C3  UNL     1      -0.072  10.453  10.008  1.00  0.00     0.340 C
HETATM    5  O1  UNL     1       0.150   9.995   8.856  1.00  0.00    -0.245 OA
HETATM    6  N2  UNL     1      -0.113  11.832  10.299  1.00  0.00    -0.258 N
ATOM      7  H2  UNL     1      -0.296  12.156  11.249  1.00  0.00     0.191 HD
ENDROOT
BRANCH   1   8
HETATM    8  S1  UNL     1      -0.981   7.285  12.288  1.00  0.00    -0.097 SA
HETATM    9  C1  UNL     1      -1.325   8.254  13.789  1.00  0.00     0.099 C
ENDBRANCH   1   8
BRANCH   1  10
HETATM   10  N4  UNL     1      -1.140   7.916   9.613  1.00  0.00    -0.286 N
ATOM     11  H4  UNL     1      -0.476   7.390   9.044  1.00  0.00     0.188 HD
BRANCH  10  12
HETATM   12  N5  UNL     1      -2.389   8.196   9.122  1.00  0.00    -0.343 N
ATOM     13  H52 UNL     1      -3.187   8.158   9.755  1.00  0.00     0.176 HD
ATOM     14  H51 UNL     1      -2.512   8.436   8.138  1.00  0.00     0.176 HD
ENDBRANCH  10  12
ENDBRANCH   1  10
BRANCH   6  15
HETATM   15  N3  UNL     1       0.098  12.741   9.268  1.00  0.00    -0.341 N
ATOM     16  H32 UNL     1       0.109  12.414   8.302  1.00  0.00     0.177 HD
ATOM     17  H31 UNL     1       0.240  13.723   9.501  1.00  0.00     0.177 HD
ENDBRANCH   6  15
TORSDOF 4
ENDMDL