MODEL 1
REMARK VINA RESULT: -5.808197131      0.000      0.000
REMARK  3 active torsions:
REMARK  status: ('A' for Active; 'I' for Inactive)
REMARK    1  A    between atoms: C2_3  and  N2_4
REMARK    2  A    between atoms: C2_3  and  C4_9
REMARK       I    between atoms: N2_4  and  C3_6
REMARK       I    between atoms: C4_9  and  N4_11
REMARK    3  A    between atoms: N4_11  and  N5_13
ROOT
HETATM    1  N1  UNL     1      -3.615  10.097   8.690  1.00  0.00    -0.195 NA
HETATM    2  C1  UNL     1      -2.513   9.756   8.797  1.00  0.00     0.094 C
HETATM    3  C2  UNL     1      -1.107   9.314   8.953  1.00  0.00     0.287 C
ENDROOT
BRANCH   3   4
HETATM    4  N2  UNL     1      -0.974   8.429  10.092  1.00  0.00    -0.320 N
HETATM    5  C3  UNL     1      -0.032   7.372  10.077  1.00  0.00     0.330 C
HETATM    6  N3  UNL     1       0.088   6.522  11.186  1.00  0.00    -0.040 NA
HETATM    7  O1  UNL     1       0.678   7.237   9.037  1.00  0.00    -0.251 OA
ATOM      8  H2  UNL     1      -1.564   8.569  10.913  1.00  0.00     0.165 HD
ENDBRANCH   3   4
BRANCH   3   9
HETATM    9  C4  UNL     1      -0.324  10.553   9.222  1.00  0.00     0.272 C
HETATM   10  O2  UNL     1       0.262  11.096   8.253  1.00  0.00    -0.268 OA
HETATM   11  N4  UNL     1      -0.214  11.134  10.493  1.00  0.00    -0.274 N
ATOM     12  H4  UNL     1      -0.681  10.714  11.296  1.00  0.00     0.189 HD
BRANCH  11  13
HETATM   13  N5  UNL     1       0.543  12.296  10.644  1.00  0.00    -0.343 N
ATOM     14  H52 UNL     1       1.468  12.240  11.069  1.00  0.00     0.176 HD
ATOM     15  H51 UNL     1       0.157  13.184  10.324  1.00  0.00     0.176 HD
ENDBRANCH  11  13
ENDBRANCH   3   9
TORSDOF 3
ENDMDL