MODEL 3
REMARK VINA RESULT: -6.132167725      1.515      1.799
REMARK  1 active torsions:
REMARK  status: ('A' for Active; 'I' for Inactive)
REMARK       I    between atoms: N1_2  and  C2_4
REMARK       I    between atoms: N3_6  and  C3_8
REMARK       I    between atoms: C3_8  and  N5_12
REMARK    1  A    between atoms: N5_12  and  N6_14
ROOT
HETATM    1  C1  UNL     1       0.162   7.660  14.214  1.00  0.00     0.148 C
HETATM    2  N1  UNL     1      -0.093   8.164  12.880  1.00  0.00    -0.368 N
ATOM      3  H1  UNL     1       0.677   8.459  12.279  1.00  0.00     0.161 HD
HETATM    4  C2  UNL     1      -1.448   8.242  12.421  1.00  0.00     0.202 C
HETATM    5  N2  UNL     1      -2.490   7.621  13.150  1.00  0.00    -0.063 NA
HETATM    6  N3  UNL     1      -1.770   8.868  11.343  1.00  0.00    -0.163 N
ATOM      7  H3  UNL     1      -2.757   8.877  11.084  1.00  0.00     0.187 HD
HETATM    8  C3  UNL     1      -0.880   9.536  10.499  1.00  0.00     0.697 C
HETATM    9  N4  UNL     1      -0.350   8.904   9.516  1.00  0.00    -0.233 N
ATOM     10  H41 UNL     1       0.299   9.392   8.900  1.00  0.00     0.174 HD
ATOM     11  H42 UNL     1      -0.591   7.923   9.370  1.00  0.00     0.174 HD
HETATM   12  N5  UNL     1      -0.544  10.907  10.703  1.00  0.00    -0.072 N
ATOM     13  H5  UNL     1      -0.914  11.401  11.514  1.00  0.00     0.212 HD
ENDROOT
BRANCH  12  14
HETATM   14  N6  UNL     1       0.285  11.581   9.802  1.00  0.00    -0.024 N
HETATM   15  O1  UNL     1       1.195  12.343  10.209  1.00  0.00    -0.516 OA
HETATM   16  O2  UNL     1       0.147  11.443   8.455  1.00  0.00    -0.516 OA
ENDBRANCH  12  14
TORSDOF 1
ENDMDL