MODEL 3
REMARK VINA RESULT: -5.280498502      1.260      1.356
REMARK  4 active torsions:
REMARK  status: ('A' for Active; 'I' for Inactive)
REMARK    1  A    between atoms: C2_2  and  N1_4
REMARK       I    between atoms: N1_4  and  C4_6
REMARK    2  A    between atoms: C4_6  and  C5_8
REMARK       I    between atoms: C5_8  and  N2_10
REMARK    3  A    between atoms: N2_10  and  N3_12
REMARK    4  A    between atoms: N3_12  and  N4_13
ROOT
HETATM    1  C5  UNL     1      -0.071  10.131  10.070  1.00  0.00     0.326 C
HETATM    2  O2  UNL     1       0.076   9.845   8.840  1.00  0.00    -0.261 OA
HETATM    3  N2  UNL     1       0.283  11.402  10.551  1.00  0.00    -0.246 N
ATOM      4  H2  UNL     1       0.161  11.619  11.540  1.00  0.00     0.187 HD
ENDROOT
BRANCH   1   5
HETATM    5  C4  UNL     1      -0.610   9.074  10.900  1.00  0.00     0.311 C
HETATM    6  N1  UNL     1       0.049   7.857  11.160  1.00  0.00    -0.349 N
ATOM      7  H1  UNL     1       0.966   7.675  10.751  1.00  0.00     0.163 HD
HETATM    8  O1  UNL     1      -1.767   9.306  11.416  1.00  0.00    -0.262 OA
BRANCH   6   9
HETATM    9  C2  UNL     1      -0.572   6.869  12.003  1.00  0.00     0.076 C
HETATM   10  C1  UNL     1      -0.399   5.462  11.464  1.00  0.00     0.032 C
HETATM   11  C3  UNL     1       0.032   6.904  13.406  1.00  0.00     0.032 C
ENDBRANCH   6   9
ENDBRANCH   1   5
BRANCH   3  12
HETATM   12  N3  UNL     1       0.797  12.367   9.695  1.00  0.00    -0.027 NA
BRANCH  12  13
HETATM   13  N4  UNL     1      -0.256  12.770   8.852  1.00  0.00    -0.329 N
ATOM     14  H42 UNL     1      -0.500  13.733   8.620  1.00  0.00     0.174 HD
ATOM     15  H41 UNL     1      -0.718  11.920   8.526  1.00  0.00     0.174 HD
ENDBRANCH  12  13
ENDBRANCH   3  12
TORSDOF 4
ENDMDL