MODEL 1
REMARK VINA RESULT: -6.095829106      0.000      0.000
REMARK  3 active torsions:
REMARK  status: ('A' for Active; 'I' for Inactive)
REMARK    1  A    between atoms: C3_3  and  N1_5
REMARK    2  A    between atoms: C3_3  and  C5_9
REMARK       I    between atoms: C5_9  and  N2_11
REMARK       I    between atoms: N2_11  and  C6_13
REMARK       I    between atoms: C6_13  and  N3_15
REMARK    3  A    between atoms: N3_15  and  N4_17
ROOT
HETATM    1  C1  UNL     1      -3.412   9.732   8.774  1.00  0.00     0.015 C
HETATM    2  C2  UNL     1      -2.319   9.884   9.251  1.00  0.00    -0.069 C
HETATM    3  C3  UNL     1      -0.974  10.080   9.849  1.00  0.00     0.261 C
HETATM    4  C4  UNL     1      -0.100  10.909   8.973  1.00  0.00     0.071 C
ENDROOT
BRANCH   3   5
HETATM    5  N1  UNL     1      -1.194  10.772  11.101  1.00  0.00    -0.051 N
ATOM      6  H13 UNL     1      -1.857  11.545  11.029  1.00  0.00     0.276 HD
ATOM      7  H12 UNL     1      -1.719  10.224  11.783  1.00  0.00     0.276 HD
ATOM      8  H11 UNL     1      -0.272  11.056  11.429  1.00  0.00     0.276 HD
ENDBRANCH   3   5
BRANCH   3   9
HETATM    9  C5  UNL     1      -0.408   8.730  10.134  1.00  0.00     0.274 C
HETATM   10  O1  UNL     1      -0.337   8.381  11.327  1.00  0.00    -0.269 OA
HETATM   11  N2  UNL     1       0.038   7.869   9.118  1.00  0.00    -0.275 N
HETATM   12  C6  UNL     1       0.589   6.580   9.246  1.00  0.00     0.341 C
ATOM     13  H2  UNL     1      -0.050   8.222   8.164  1.00  0.00     0.173 HD
HETATM   14  O2  UNL     1       0.945   5.928   8.190  1.00  0.00    -0.245 OA
HETATM   15  N3  UNL     1       0.813   5.874  10.454  1.00  0.00    -0.258 N
ATOM     16  H3  UNL     1       0.564   6.306  11.344  1.00  0.00     0.191 HD
BRANCH  15  17
HETATM   17  N4  UNL     1       1.379   4.572  10.439  1.00  0.00    -0.341 N
ATOM     18  H42 UNL     1       2.072   4.349   9.724  1.00  0.00     0.177 HD
ATOM     19  H41 UNL     1       1.099   3.874  11.128  1.00  0.00     0.177 HD
ENDBRANCH  15  17
ENDBRANCH   3   9
TORSDOF 3
ENDMDL