MODEL 1
REMARK VINA RESULT: -5.245242217      0.000      0.000
REMARK  5 active torsions:
REMARK  status: ('A' for Active; 'I' for Inactive)
REMARK    1  A    between atoms: N1_1  and  N2_4
REMARK    2  A    between atoms: N2_4  and  C1_6
REMARK    3  A    between atoms: C1_6  and  N3_8
REMARK    4  A    between atoms: N3_8  and  S2_10
REMARK    5  A    between atoms: S2_10  and  N4_11
ROOT
HETATM    1  N3  UNL     1      -0.047  10.019   9.511  1.00  0.00    -0.243 N
ATOM      2  H3  UNL     1       0.917   9.937   9.189  1.00  0.00     0.182 HD
ENDROOT
BRANCH   1   3
HETATM    3  C1  UNL     1      -0.386   9.194  10.589  1.00  0.00     0.201 C
HETATM    4  S1  UNL     1       0.059   7.611  10.543  1.00  0.00    -0.038 SA
BRANCH   3   5
HETATM    5  N2  UNL     1      -1.088   9.637  11.716  1.00  0.00    -0.282 N
ATOM      6  H2  UNL     1      -1.642  10.486  11.598  1.00  0.00     0.189 HD
BRANCH   5   7
HETATM    7  N1  UNL     1      -1.117   9.056  12.971  1.00  0.00    -0.343 N
ATOM      8  H12 UNL     1      -2.010   8.641  13.237  1.00  0.00     0.176 HD
ATOM      9  H11 UNL     1      -0.353   9.000  13.645  1.00  0.00     0.176 HD
ENDBRANCH   5   7
ENDBRANCH   3   5
ENDBRANCH   1   3
BRANCH   1  10
HETATM   10  S2  UNL     1      -1.000  11.134   8.663  1.00  0.00     0.319 S
HETATM   11  O1  UNL     1      -2.442  11.046   9.005  1.00  0.00    -0.183 OA
HETATM   12  O2  UNL     1      -0.822  10.877   7.149  1.00  0.00    -0.183 OA
BRANCH  10  13
HETATM   13  N4  UNL     1      -0.356  12.733   8.871  1.00  0.00    -0.311 N
ATOM     14  H42 UNL     1       0.634  12.968   8.800  1.00  0.00     0.170 HD
ATOM     15  H41 UNL     1      -1.114  13.385   9.070  1.00  0.00     0.170 HD
ENDBRANCH  10  13
ENDBRANCH   1  10
TORSDOF 5
ENDMDL