MODEL 4
REMARK VINA RESULT: -5.596661460      1.882      2.474
REMARK  1 active torsions:
REMARK  status: ('A' for Active; 'I' for Inactive)
REMARK       I    between atoms: C2_2  and  N1_4
REMARK       I    between atoms: N1_4  and  C3_6
REMARK       I    between atoms: C3_6  and  N2_8
REMARK    1  A    between atoms: N2_8  and  N3_10
REMARK       I    between atoms: N3_10  and  C4_12
ROOT
HETATM    1  C1  UNL     1       0.451   6.290  14.776  1.00  0.00     0.117 C
HETATM    2  C2  UNL     1      -0.068   7.417  13.903  1.00  0.00     0.221 C
HETATM    3  O1  UNL     1      -0.869   8.220  14.415  1.00  0.00    -0.274 OA
HETATM    4  N1  UNL     1       0.384   7.485  12.580  1.00  0.00    -0.278 N
ATOM      5  H1  UNL     1       1.042   6.766  12.279  1.00  0.00     0.173 HD
HETATM    6  C3  UNL     1       0.026   8.428  11.649  1.00  0.00     0.341 C
HETATM    7  O2  UNL     1       0.541   8.338  10.473  1.00  0.00    -0.245 OA
HETATM    8  N2  UNL     1      -0.850   9.492  11.837  1.00  0.00    -0.248 N
ATOM      9  H2  UNL     1      -1.287   9.611  12.750  1.00  0.00     0.192 HD
ENDROOT
BRANCH   8  10
HETATM   10  N3  UNL     1      -1.157  10.415  10.809  1.00  0.00    -0.250 N
HETATM   11  C4  UNL     1      -2.213  10.105   9.939  1.00  0.00     0.347 C
HETATM   12  N4  UNL     1      -2.602  10.964   8.875  1.00  0.00    -0.038 NA
HETATM   13  O3  UNL     1      -2.879   9.032  10.063  1.00  0.00    -0.249 OA
ATOM     14  H3  UNL     1      -0.626  11.280  10.704  1.00  0.00     0.191 HD
ENDBRANCH   8  10
TORSDOF 1
ENDMDL