MODEL 1
REMARK VINA RESULT: -6.283347447      0.000      0.000
REMARK  4 active torsions:
REMARK  status: ('A' for Active; 'I' for Inactive)
REMARK    1  A    between atoms: N2_3  and  O1_4
REMARK       I    between atoms: N3_6  and  C2_8
REMARK       I    between atoms: C2_8  and  N5_12
REMARK    2  A    between atoms: N5_12  and  N6_14
REMARK    3  A    between atoms: N6_14  and  O2_15
REMARK    4  A    between atoms: N6_14  and  O3_17
ROOT
HETATM    1  N1  UNL     1      -1.077   7.034   9.944  1.00  0.00    -0.168 NA
HETATM    2  C1  UNL     1      -1.148   7.917  10.717  1.00  0.00     0.228 C
HETATM    3  N2  UNL     1      -1.248   8.955  11.650  1.00  0.00    -0.076 N
HETATM    4  N3  UNL     1      -0.902  10.140  11.357  1.00  0.00    -0.095 N
ATOM      5  H3  UNL     1      -0.982  10.887  12.047  1.00  0.00     0.209 HD
HETATM    6  C2  UNL     1      -0.409  10.410  10.071  1.00  0.00     0.707 C
HETATM    7  N4  UNL     1       0.534   9.707   9.557  1.00  0.00    -0.232 N
ATOM      8  H41 UNL     1       0.892   9.903   8.623  1.00  0.00     0.174 HD
ATOM      9  H42 UNL     1       0.932   8.936  10.095  1.00  0.00     0.174 HD
HETATM   10  N5  UNL     1      -0.962  11.482   9.323  1.00  0.00    -0.103 N
ATOM     11  H5  UNL     1      -1.962  11.510   9.121  1.00  0.00     0.204 HD
ENDROOT
BRANCH   3  12
HETATM   12  O1  UNL     1      -1.726   8.760  12.934  1.00  0.00    -0.259 OA
ATOM     13  H1  UNL     1      -1.531   9.355  13.649  1.00  0.00     0.247 HD
ENDBRANCH   3  12
BRANCH  10  14
HETATM   14  N6  UNL     1      -0.125  12.490   8.872  1.00  0.00     0.047 NA
BRANCH  14  15
HETATM   15  O2  UNL     1       0.729  12.859   9.864  1.00  0.00    -0.270 OA
ATOM     16  H2  UNL     1       1.101  13.711   9.669  1.00  0.00     0.241 HD
ENDBRANCH  14  15
BRANCH  14  17
HETATM   17  O3  UNL     1       0.635  12.125   7.818  1.00  0.00    -0.270 OA
ATOM     18  H3  UNL     1       0.158  12.109   6.997  1.00  0.00     0.241 HD
ENDBRANCH  14  17
ENDBRANCH  10  14
TORSDOF 4
ENDMDL