MODEL 5
REMARK VINA RESULT: -4.678669073      1.280      1.506
REMARK  2 active torsions:
REMARK  status: ('A' for Active; 'I' for Inactive)
REMARK    1  A    between atoms: S1_2  and  N1_5
REMARK       I    between atoms: N1_5  and  C2_7
REMARK       I    between atoms: C2_7  and  N3_11
REMARK    2  A    between atoms: N3_11  and  N4_13
ROOT
HETATM    1  N1  UNL     1      -0.875  10.609  10.953  1.00  0.00    -0.116 N
ATOM      2  H1  UNL     1      -0.236  11.228  11.452  1.00  0.00     0.197 HD
HETATM    3  C2  UNL     1      -1.447   9.523  11.636  1.00  0.00     0.699 C
HETATM    4  N2  UNL     1      -2.203   8.702  11.036  1.00  0.00    -0.233 N
ATOM      5  H21 UNL     1      -2.618   7.913  11.532  1.00  0.00     0.174 HD
ATOM      6  H22 UNL     1      -2.388   8.848  10.043  1.00  0.00     0.174 HD
HETATM    7  N3  UNL     1      -1.190   9.322  13.006  1.00  0.00    -0.138 N
ATOM      8  H3  UNL     1      -1.681   9.928  13.664  1.00  0.00     0.205 HD
ENDROOT
BRANCH   1   9
HETATM    9  S1  UNL     1      -1.224  10.925   9.293  1.00  0.00     0.240 S
HETATM   10  C1  UNL     1      -0.693   9.588   8.241  1.00  0.00     0.186 C
HETATM   11  O1  UNL     1      -0.570  12.230   8.856  1.00  0.00    -0.206 OA
HETATM   12  O2  UNL     1      -2.712  11.078   9.060  1.00  0.00    -0.206 OA
ENDBRANCH   1   9
BRANCH   7  13
HETATM   13  N4  UNL     1      -0.332   8.374  13.542  1.00  0.00    -0.331 N
ATOM     14  H42 UNL     1       0.437   8.078  12.942  1.00  0.00     0.177 HD
ATOM     15  H41 UNL     1      -0.406   7.957  14.470  1.00  0.00     0.177 HD
ENDBRANCH   7  13
TORSDOF 2
ENDMDL