MODEL 5
REMARK VINA RESULT: -5.551791560      2.431      4.824
REMARK  2 active torsions:
REMARK  status: ('A' for Active; 'I' for Inactive)
REMARK    1  A    between atoms: N1_1  and  N2_4
REMARK       I    between atoms: N2_4  and  C1_6
REMARK       I    between atoms: C1_6  and  N3_8
REMARK       I    between atoms: C2_10  and  N5_12
REMARK    2  A    between atoms: N5_12  and  N6_14
ROOT
HETATM    1  N2  UNL     1      74.642   9.077  34.854  1.00  0.00    -0.258 N
ATOM      2  H2  UNL     1      75.655   8.955  34.838  1.00  0.00     0.191 HD
HETATM    3  C1  UNL     1      73.915   9.192  33.639  1.00  0.00     0.340 C
HETATM    4  O1  UNL     1      72.677   9.340  33.660  1.00  0.00    -0.245 OA
HETATM    5  N3  UNL     1      74.637   9.134  32.396  1.00  0.00    -0.280 N
ATOM      6  H3  UNL     1      74.400   8.413  31.715  1.00  0.00     0.173 HD
HETATM    7  C2  UNL     1      75.577   9.974  32.127  1.00  0.00     0.215 C
HETATM    8  N4  UNL     1      75.979  11.003  32.995  1.00  0.00    -0.062 NA
HETATM    9  N5  UNL     1      76.231   9.839  30.880  1.00  0.00    -0.213 N
ATOM     10  H5  UNL     1      76.190  10.597  30.199  1.00  0.00     0.196 HD
ENDROOT
BRANCH   1  11
HETATM   11  N1  UNL     1      73.957   9.131  36.071  1.00  0.00    -0.341 N
ATOM     12  H12 UNL     1      73.930  10.009  36.591  1.00  0.00     0.177 HD
ATOM     13  H11 UNL     1      73.493   8.294  36.422  1.00  0.00     0.177 HD
ENDBRANCH   1  11
BRANCH   9  14
HETATM   14  N6  UNL     1      76.930   8.671  30.583  1.00  0.00    -0.036 N
HETATM   15  O2  UNL     1      78.145   8.548  30.746  1.00  0.00    -0.516 OA
HETATM   16  O3  UNL     1      76.199   7.615  30.084  1.00  0.00    -0.516 OA
ENDBRANCH   9  14
TORSDOF 2
ENDMDL