MODEL 1
REMARK VINA RESULT: -6.230484647      0.000      0.000
REMARK  4 active torsions:
REMARK  status: ('A' for Active; 'I' for Inactive)
REMARK       I    between atoms: C2_2  and  N1_4
REMARK    1  A    between atoms: N1_4  and  N2_6
REMARK    2  A    between atoms: N2_6  and  C3_8
REMARK    3  A    between atoms: C3_8  and  O2_9
REMARK    4  A    between atoms: C3_8  and  N3_11
REMARK       I    between atoms: N3_11  and  C4_13
ROOT
HETATM    1  C3  UNL     1      73.263  12.872  31.390  1.00  0.00     0.239 C
ENDROOT
BRANCH   1   2
HETATM    2  N2  UNL     1      74.289  13.794  31.670  1.00  0.00    -0.263 N
ATOM      3  H2  UNL     1      74.155  14.792  31.511  1.00  0.00     0.190 HD
BRANCH   2   4
HETATM    4  N1  UNL     1      75.515  13.296  32.181  1.00  0.00    -0.267 N
HETATM    5  C2  UNL     1      75.684  13.303  33.574  1.00  0.00     0.232 C
HETATM    6  C1  UNL     1      76.941  12.798  34.156  1.00  0.00     0.119 C
HETATM    7  O1  UNL     1      74.787  13.727  34.320  1.00  0.00    -0.272 OA
ATOM      8  H1  UNL     1      76.246  12.947  31.560  1.00  0.00     0.190 HD
ENDBRANCH   2   4
ENDBRANCH   1   2
BRANCH   1   9
HETATM    9  O2  UNL     1      72.940  12.712  30.134  1.00  0.00    -0.331 OA
ATOM     10  H2  UNL     1      72.895  11.819  29.812  1.00  0.00     0.221 HD
ENDBRANCH   1   9
BRANCH   1  11
HETATM   11  N3  UNL     1      72.555  12.111  32.330  1.00  0.00    -0.276 N
HETATM   12  C4  UNL     1      72.973  10.922  32.929  1.00  0.00     0.335 C
HETATM   13  N4  UNL     1      72.071  10.300  33.880  1.00  0.00    -0.040 NA
HETATM   14  O3  UNL     1      74.069  10.332  32.722  1.00  0.00    -0.251 OA
ATOM     15  H3  UNL     1      71.638  12.464  32.605  1.00  0.00     0.173 HD
ENDBRANCH   1  11
TORSDOF 4
ENDMDL