MODEL 5
REMARK VINA RESULT: -5.835311373      3.245      6.082
REMARK  3 active torsions:
REMARK  status: ('A' for Active; 'I' for Inactive)
REMARK    1  A    between atoms: C2_2  and  N1_3
REMARK    2  A    between atoms: C2_2  and  C3_7
REMARK       I    between atoms: C3_7  and  N2_9
REMARK    3  A    between atoms: N2_9  and  N3_11
REMARK       I    between atoms: C4_13  and  N5_15
ROOT
HETATM    1  N3  UNL     1      75.953  10.362  31.175  1.00  0.00    -0.270 N
ATOM      2  H3  UNL     1      76.666  10.769  30.569  1.00  0.00     0.189 HD
HETATM    3  C4  UNL     1      75.250  11.110  31.930  1.00  0.00     0.216 C
HETATM    4  N4  UNL     1      74.262  10.557  32.769  1.00  0.00    -0.061 NA
HETATM    5  N5  UNL     1      75.464  12.504  31.924  1.00  0.00    -0.266 N
ATOM      6  H5  UNL     1      75.412  12.987  31.028  1.00  0.00     0.180 HD
HETATM    7  C5  UNL     1      75.742  13.265  33.051  1.00  0.00     0.184 C
HETATM    8  N6  UNL     1      75.978  13.912  33.984  1.00  0.00    -0.172 NA
ENDROOT
BRANCH   1   9
HETATM    9  N2  UNL     1      75.742   8.979  31.179  1.00  0.00    -0.266 N
HETATM   10  C3  UNL     1      76.858   8.101  31.105  1.00  0.00     0.266 C
HETATM   11  O1  UNL     1      78.031   8.540  31.036  1.00  0.00    -0.269 OA
ATOM     12  H2  UNL     1      74.795   8.604  31.235  1.00  0.00     0.190 HD
BRANCH  10  13
HETATM   13  C2  UNL     1      76.653   6.636  31.108  1.00  0.00     0.272 C
HETATM   14  C1  UNL     1      78.013   6.010  31.422  1.00  0.00     0.050 C
BRANCH  13  15
HETATM   15  N1  UNL     1      75.698   6.277  32.108  1.00  0.00    -0.067 N
ATOM     16  H13 UNL     1      75.646   5.266  32.238  1.00  0.00     0.275 HD
ATOM     17  H12 UNL     1      76.012   6.534  33.044  1.00  0.00     0.275 HD
ATOM     18  H11 UNL     1      74.787   6.679  31.889  1.00  0.00     0.275 HD
ENDBRANCH  13  15
ENDBRANCH  10  13
ENDBRANCH   1   9
TORSDOF 3
ENDMDL