MODEL 4
REMARK VINA RESULT: -5.896149015      2.206      2.777
REMARK  3 active torsions:
REMARK  status: ('A' for Active; 'I' for Inactive)
REMARK    1  A    between atoms: O1_2  and  N1_3
REMARK    2  A    between atoms: C2_5  and  C4_7
REMARK       I    between atoms: C4_7  and  N2_9
REMARK    3  A    between atoms: N2_9  and  N3_11
REMARK       I    between atoms: N3_11  and  C5_13
ROOT
HETATM    1  C4  UNL     1      73.128   9.958  33.388  1.00  0.00     0.283 C
HETATM    2  O2  UNL     1      72.021  10.447  33.640  1.00  0.00    -0.265 OA
HETATM    3  N2  UNL     1      73.879  10.393  32.259  1.00  0.00    -0.262 N
ATOM      4  H2  UNL     1      74.793   9.989  32.053  1.00  0.00     0.190 HD
ENDROOT
BRANCH   3   5
HETATM    5  N3  UNL     1      73.340  11.380  31.445  1.00  0.00    -0.271 N
HETATM    6  C5  UNL     1      73.411  12.728  31.854  1.00  0.00     0.200 C
HETATM    7  N4  UNL     1      74.546  13.320  31.884  1.00  0.00    -0.372 N
HETATM    8  N5  UNL     1      72.200  13.387  32.223  1.00  0.00    -0.062 NA
ATOM      9  H42 UNL     1      75.411  12.850  31.620  1.00  0.00     0.158 HD
ATOM     10  H41 UNL     1      74.597  14.296  32.179  1.00  0.00     0.158 HD
ATOM     11  H3  UNL     1      72.896  11.132  30.561  1.00  0.00     0.189 HD
ENDBRANCH   3   5
BRANCH   1  12
HETATM   12  C2  UNL     1      73.670   8.928  34.256  1.00  0.00     0.097 C
HETATM   13  N1  UNL     1      74.030   9.252  35.447  1.00  0.00    -0.266 N
ATOM     14  H1  UNL     1      73.938  10.212  35.778  1.00  0.00     0.194 HD
HETATM   15  C3  UNL     1      73.794   7.538  33.750  1.00  0.00     0.076 C
BRANCH  13  16
HETATM   16  O1  UNL     1      74.536   8.282  36.254  1.00  0.00    -0.285 OA
HETATM   17  C1  UNL     1      74.054   7.873  37.494  1.00  0.00     0.237 C
ENDBRANCH  13  16
ENDBRANCH   1  12
TORSDOF 3
ENDMDL