MODEL 4
REMARK VINA RESULT: -5.531179245      2.044      2.548
REMARK  5 active torsions:
REMARK  status: ('A' for Active; 'I' for Inactive)
REMARK       I    between atoms: C2_2  and  N1_4
REMARK    1  A    between atoms: N1_4  and  N2_6
REMARK    2  A    between atoms: N2_6  and  C3_8
REMARK    3  A    between atoms: C3_8  and  O2_15
REMARK    4  A    between atoms: N3_9  and  C4_11
REMARK    5  A    between atoms: O2_15  and  N5_16
ROOT
HETATM    1  C3  UNL     1      75.743  11.855  32.315  1.00  0.00     0.262 C
HETATM    2  N3  UNL     1      74.739  12.627  32.468  1.00  0.00    -0.316 N
ATOM      3  H3  UNL     1      74.714  13.298  33.236  1.00  0.00     0.170 HD
ENDROOT
BRANCH   1   4
HETATM    4  N2  UNL     1      75.800  10.919  31.264  1.00  0.00    -0.261 N
ATOM      5  H2  UNL     1      75.643  11.229  30.305  1.00  0.00     0.190 HD
BRANCH   4   6
HETATM    6  N1  UNL     1      76.069   9.571  31.517  1.00  0.00    -0.267 N
HETATM    7  C2  UNL     1      75.129   8.675  32.054  1.00  0.00     0.232 C
HETATM    8  C1  UNL     1      75.498   7.265  32.291  1.00  0.00     0.119 C
HETATM    9  O1  UNL     1      73.966   9.100  32.332  1.00  0.00    -0.272 OA
ATOM     10  H1  UNL     1      77.000   9.218  31.298  1.00  0.00     0.190 HD
ENDBRANCH   4   6
ENDBRANCH   1   4
BRANCH   1  11
HETATM   11  O2  UNL     1      76.790  11.946  33.204  1.00  0.00    -0.206 OA
BRANCH  11  12
HETATM   12  N5  UNL     1      76.535  12.489  34.460  1.00  0.00    -0.302 N
ATOM     13  H52 UNL     1      76.980  13.364  34.739  1.00  0.00     0.184 HD
ATOM     14  H51 UNL     1      75.896  11.988  35.077  1.00  0.00     0.184 HD
ENDBRANCH  11  12
ENDBRANCH   1  11
BRANCH   2  15
HETATM   15  C4  UNL     1      73.658  12.535  31.553  1.00  0.00     0.176 C
HETATM   16  N4  UNL     1      73.065  13.583  31.093  1.00  0.00    -0.395 N
ATOM     17  H42 UNL     1      73.395  14.496  31.406  1.00  0.00     0.156 HD
ATOM     18  H41 UNL     1      72.287  13.517  30.436  1.00  0.00     0.156 HD
ENDBRANCH   2  15
TORSDOF 5
ENDMDL