MODEL 4
REMARK VINA RESULT: -6.223858144      2.863      3.863
REMARK  3 active torsions:
REMARK  status: ('A' for Active; 'I' for Inactive)
REMARK       I    between atoms: C1_4  and  N3_6
REMARK    1  A    between atoms: N3_6  and  N4_8
REMARK       I    between atoms: N4_8  and  C2_10
REMARK    2  A    between atoms: C2_10  and  C3_12
REMARK       I    between atoms: C3_12  and  N5_14
REMARK    3  A    between atoms: N5_14  and  C4_16
ROOT
HETATM    1  N4  UNL     1      76.194  10.396  32.063  1.00  0.00    -0.259 N
ATOM      2  H4  UNL     1      76.424   9.753  32.821  1.00  0.00     0.190 HD
HETATM    3  C2  UNL     1      75.928  11.766  32.394  1.00  0.00     0.328 C
HETATM    4  O1  UNL     1      75.640  12.570  31.446  1.00  0.00    -0.261 OA
ENDROOT
BRANCH   1   5
HETATM    5  N3  UNL     1      76.156   9.900  30.779  1.00  0.00    -0.271 N
HETATM    6  C1  UNL     1      76.678   8.666  30.335  1.00  0.00     0.200 C
HETATM    7  N1  UNL     1      75.838   7.683  30.125  1.00  0.00    -0.372 N
HETATM    8  N2  UNL     1      78.050   8.414  30.100  1.00  0.00    -0.062 NA
ATOM      9  H12 UNL     1      76.215   6.791  29.805  1.00  0.00     0.158 HD
ATOM     10  H11 UNL     1      74.849   7.865  30.295  1.00  0.00     0.158 HD
ATOM     11  H3  UNL     1      75.704  10.485  30.076  1.00  0.00     0.189 HD
ENDBRANCH   1   5
BRANCH   3  12
HETATM   12  C3  UNL     1      75.972  12.266  33.743  1.00  0.00     0.317 C
HETATM   13  O2  UNL     1      77.037  12.242  34.391  1.00  0.00    -0.262 OA
HETATM   14  N5  UNL     1      74.819  12.789  34.357  1.00  0.00    -0.297 N
ATOM     15  H5  UNL     1      74.876  13.062  35.338  1.00  0.00     0.171 HD
BRANCH  14  16
HETATM   16  C4  UNL     1      73.700  12.942  33.748  1.00  0.00     0.355 C
HETATM   17  O3  UNL     1      72.468  12.920  33.608  1.00  0.00    -0.283 OA
ENDBRANCH  14  16
ENDBRANCH   3  12
TORSDOF 3
ENDMDL