MODEL 5
REMARK VINA RESULT: -6.031883592      2.129      3.202
REMARK  4 active torsions:
REMARK  status: ('A' for Active; 'I' for Inactive)
REMARK    1  A    between atoms: C2_2  and  N2_6
REMARK       I    between atoms: N2_6  and  C3_8
REMARK    2  A    between atoms: C3_8  and  C4_10
REMARK    3  A    between atoms: C4_10  and  N3_12
REMARK    4  A    between atoms: C4_10  and  C6_16
ROOT
HETATM    1  N2  UNL     1      74.213   9.977  33.741  1.00  0.00    -0.315 N
ATOM      2  H2  UNL     1      75.229   9.937  33.818  1.00  0.00     0.170 HD
HETATM    3  C3  UNL     1      73.621  11.194  33.380  1.00  0.00     0.268 C
HETATM    4  O1  UNL     1      72.369  11.259  33.282  1.00  0.00    -0.270 OA
ENDROOT
BRANCH   3   5
HETATM    5  C4  UNL     1      74.363  12.440  33.098  1.00  0.00     0.276 C
HETATM    6  C5  UNL     1      73.731  13.278  32.024  1.00  0.00     0.067 C
BRANCH   5   7
HETATM    7  N3  UNL     1      74.441  13.227  34.297  1.00  0.00    -0.053 N
ATOM      8  H33 UNL     1      73.669  13.889  34.376  1.00  0.00     0.276 HD
ATOM      9  H32 UNL     1      74.247  12.678  35.134  1.00  0.00     0.276 HD
ATOM     10  H31 UNL     1      75.351  13.687  34.340  1.00  0.00     0.276 HD
ENDBRANCH   5   7
BRANCH   5  11
HETATM   11  C6  UNL     1      75.720  12.072  32.656  1.00  0.00     0.276 C
HETATM   12  N4  UNL     1      76.804  12.194  33.551  1.00  0.00    -0.059 NA
HETATM   13  O2  UNL     1      75.944  11.644  31.480  1.00  0.00    -0.274 OA
ENDBRANCH   5  11
ENDBRANCH   3   5
BRANCH   1  14
HETATM   14  C2  UNL     1      73.476   8.799  34.004  1.00  0.00     0.073 C
HETATM   15  C1  UNL     1      73.912   7.463  33.505  1.00  0.00     0.088 C
HETATM   16  N1  UNL     1      72.371   8.869  34.708  1.00  0.00    -0.389 N
ATOM     17  H12 UNL     1      71.839   8.019  34.898  1.00  0.00     0.157 HD
ATOM     18  H11 UNL     1      72.073   9.783  35.050  1.00  0.00     0.157 HD
ENDBRANCH   1  14
TORSDOF 4
ENDMDL