MODEL 3
REMARK VINA RESULT: -5.979907416      1.665      1.828
REMARK  3 active torsions:
REMARK  status: ('A' for Active; 'I' for Inactive)
REMARK    1  A    between atoms: N1_2  and  N2_3
REMARK    2  A    between atoms: N2_3  and  C2_5
REMARK    3  A    between atoms: C2_5  and  C4_17
REMARK       I    between atoms: N3_6  and  C3_8
REMARK       I    between atoms: C3_8  and  N5_12
ROOT
HETATM    1  C2  UNL     1      75.785  10.063  31.501  1.00  0.00     0.198 C
HETATM    2  N3  UNL     1      75.744  11.289  31.163  1.00  0.00    -0.170 N
ATOM      3  H3  UNL     1      76.306  11.547  30.351  1.00  0.00     0.186 HD
HETATM    4  C3  UNL     1      75.025  12.328  31.764  1.00  0.00     0.691 C
HETATM    5  N4  UNL     1      75.476  13.101  32.702  1.00  0.00    -0.233 N
ATOM      6  H41 UNL     1      74.952  13.858  33.141  1.00  0.00     0.174 HD
ATOM      7  H42 UNL     1      76.430  12.931  33.021  1.00  0.00     0.174 HD
HETATM    8  N5  UNL     1      73.694  12.565  31.320  1.00  0.00    -0.139 N
ATOM      9  H5  UNL     1      73.370  12.108  30.467  1.00  0.00     0.205 HD
HETATM   10  N6  UNL     1      72.889  13.334  31.955  1.00  0.00    -0.331 N
ATOM     11  H61 UNL     1      71.936  13.505  31.636  1.00  0.00     0.177 HD
ATOM     12  H62 UNL     1      73.230  13.783  32.805  1.00  0.00     0.177 HD
ENDROOT
BRANCH   1  13
HETATM   13  N2  UNL     1      76.587   9.171  30.744  1.00  0.00    -0.285 N
ATOM     14  H2  UNL     1      76.326   9.004  29.772  1.00  0.00     0.184 HD
BRANCH  13  15
HETATM   15  N1  UNL     1      77.702   8.512  31.235  1.00  0.00    -0.144 NA
HETATM   16  C1  UNL     1      77.573   7.087  31.261  1.00  0.00     0.159 C
ENDBRANCH  13  15
ENDBRANCH   1  13
BRANCH   1  17
HETATM   17  C4  UNL     1      75.034   9.570  32.635  1.00  0.00     0.300 C
HETATM   18  N7  UNL     1      75.446   9.851  33.984  1.00  0.00    -0.054 NA
HETATM   19  O1  UNL     1      74.004   8.884  32.426  1.00  0.00    -0.268 OA
ENDBRANCH   1  17
TORSDOF 3
ENDMDL