MODEL 4
REMARK VINA RESULT: -5.910303201      1.297      1.297
REMARK  3 active torsions:
REMARK  status: ('A' for Active; 'I' for Inactive)
REMARK    1  A    between atoms: N1_1  and  N2_4
REMARK       I    between atoms: N2_4  and  C1_6
REMARK    2  A    between atoms: C1_6  and  C2_8
REMARK       I    between atoms: C2_8  and  N3_10
REMARK    3  A    between atoms: N3_10  and  N4_12
REMARK       I    between atoms: N4_12  and  C3_14
ROOT
HETATM    1  C2  UNL     1      74.505   9.845  32.141  1.00  0.00     0.329 C
HETATM    2  O2  UNL     1      73.775   9.000  32.748  1.00  0.00    -0.261 OA
HETATM    3  N3  UNL     1      75.562   9.472  31.299  1.00  0.00    -0.258 N
ATOM      4  H3  UNL     1      76.102  10.209  30.846  1.00  0.00     0.190 HD
ENDROOT
BRANCH   1   5
HETATM    5  C1  UNL     1      74.198  11.264  32.356  1.00  0.00     0.329 C
HETATM    6  N2  UNL     1      74.277  12.213  31.294  1.00  0.00    -0.268 N
ATOM      7  H2  UNL     1      74.551  11.928  30.353  1.00  0.00     0.190 HD
HETATM    8  O1  UNL     1      73.855  11.630  33.525  1.00  0.00    -0.261 OA
BRANCH   6   9
HETATM    9  N1  UNL     1      73.968  13.541  31.584  1.00  0.00    -0.342 N
ATOM     10  H12 UNL     1      72.994  13.835  31.662  1.00  0.00     0.176 HD
ATOM     11  H11 UNL     1      74.742  14.193  31.713  1.00  0.00     0.176 HD
ENDBRANCH   6   9
ENDBRANCH   1   5
BRANCH   3  12
HETATM   12  N4  UNL     1      75.915   8.146  31.048  1.00  0.00    -0.251 N
HETATM   13  C3  UNL     1      77.265   7.751  30.843  1.00  0.00     0.347 C
HETATM   14  N5  UNL     1      77.610   6.407  30.589  1.00  0.00    -0.038 NA
HETATM   15  O3  UNL     1      78.158   8.666  30.899  1.00  0.00    -0.249 OA
ATOM     16  H4  UNL     1      75.181   7.438  31.009  1.00  0.00     0.191 HD
ENDBRANCH   3  12
TORSDOF 3
ENDMDL