MODEL 1
REMARK VINA RESULT: -5.874166387      0.000      0.000
REMARK  3 active torsions:
REMARK  status: ('A' for Active; 'I' for Inactive)
REMARK    1  A    between atoms: C2_2  and  N2_5
REMARK       I    between atoms: N2_5  and  C4_7
REMARK    2  A    between atoms: C4_7  and  C5_9
REMARK       I    between atoms: C5_9  and  N3_11
REMARK    3  A    between atoms: N3_11  and  N4_13
ROOT
HETATM    1  C1  UNL     1      75.308   7.688  31.987  1.00  0.00     0.048 C
HETATM    2  C2  UNL     1      76.233   8.853  31.847  1.00  0.00     0.188 C
HETATM    3  C3  UNL     1      77.134   8.639  30.710  1.00  0.00     0.084 C
HETATM    4  N1  UNL     1      77.842   8.451  29.799  1.00  0.00    -0.195 NA
ENDROOT
BRANCH   2   5
HETATM    5  N2  UNL     1      75.431  10.046  31.673  1.00  0.00    -0.336 N
HETATM    6  C4  UNL     1      75.832  11.330  32.075  1.00  0.00     0.312 C
HETATM    7  O1  UNL     1      76.941  11.484  32.618  1.00  0.00    -0.262 OA
ATOM      8  H2  UNL     1      74.516   9.948  31.231  1.00  0.00     0.164 HD
BRANCH   6   9
HETATM    9  C5  UNL     1      74.962  12.467  31.862  1.00  0.00     0.327 C
HETATM   10  O2  UNL     1      75.245  13.579  32.423  1.00  0.00    -0.261 OA
HETATM   11  N3  UNL     1      73.801  12.418  31.057  1.00  0.00    -0.268 N
ATOM     12  H3  UNL     1      73.538  11.551  30.590  1.00  0.00     0.190 HD
BRANCH  11  13
HETATM   13  N4  UNL     1      73.021  13.556  30.905  1.00  0.00    -0.342 N
ATOM     14  H42 UNL     1      72.064  13.554  31.259  1.00  0.00     0.176 HD
ATOM     15  H41 UNL     1      73.411  14.378  30.444  1.00  0.00     0.176 HD
ENDBRANCH  11  13
ENDBRANCH   6   9
ENDBRANCH   2   5
TORSDOF 3
ENDMDL