MODEL 1
REMARK VINA RESULT: -7.711096189      0.000      0.000
REMARK  12 active torsions:
REMARK  status: ('A' for Active; 'I' for Inactive)
REMARK    1  A    between atoms: N1_1  and  C1_4
REMARK    2  A    between atoms: C2_7  and  C3_8
REMARK    3  A    between atoms: C6_12  and  C7_13
REMARK       I    between atoms: C7_13  and  N4_15
REMARK    4  A    between atoms: N4_15  and  C8_17
REMARK    5  A    between atoms: C10_22  and  C11_23
REMARK    6  A    between atoms: C11_23  and  O2_24
REMARK    7  A    between atoms: O2_24  and  S1_25
REMARK    8  A    between atoms: S1_25  and  N6_28
REMARK       I    between atoms: N6_28  and  C12_30
REMARK    9  A    between atoms: C12_30  and  C13_32
REMARK   10  A    between atoms: C13_32  and  N7_33
REMARK   11  A    between atoms: C14_37  and  O6_38
REMARK   12  A    between atoms: N8_42  and  N9_43
ROOT
HETATM    1  C7  UNL     1       2.206  19.971  16.142  1.00  0.00     0.259 C
HETATM    2  O1  UNL     1       1.186  19.200  16.300  1.00  0.00    -0.267 OA
HETATM    3  N4  UNL     1       2.183  20.808  15.051  1.00  0.00    -0.348 N
ATOM      4  H4  UNL     1       2.964  21.440  14.874  1.00  0.00     0.163 HD
ENDROOT
BRANCH   3   5
HETATM    5  C8  UNL     1       1.029  20.788  14.141  1.00  0.00     0.141 C
HETATM    6  C9  UNL     1       0.333  19.441  14.189  1.00  0.00     0.260 C
HETATM    7  N5  UNL     1      -1.000  19.777  13.699  1.00  0.00    -0.064 N
HETATM    8  C10 UNL     1      -1.315  21.048  14.333  1.00  0.00     0.241 C
ATOM      9  H52 UNL     1      -1.077  19.789  12.682  1.00  0.00     0.277 HD
ATOM     10  H51 UNL     1      -1.697  19.049  13.858  1.00  0.00     0.277 HD
HETATM   11  C14 UNL     1      -0.037  21.730  14.643  1.00  0.00     0.175 C
BRANCH   8  12
HETATM   12  C11 UNL     1      -2.197  20.792  15.514  1.00  0.00     0.227 C
BRANCH  12  13
HETATM   13  O2  UNL     1      -2.842  19.582  15.521  1.00  0.00    -0.257 OA
BRANCH  13  14
HETATM   14  S1  UNL     1      -2.709  18.873  17.054  1.00  0.00     0.364 S
HETATM   15  O3  UNL     1      -2.652  17.377  16.979  1.00  0.00    -0.175 OA
HETATM   16  O4  UNL     1      -3.910  19.320  17.878  1.00  0.00    -0.175 OA
BRANCH  14  17
HETATM   17  N6  UNL     1      -1.334  19.556  17.829  1.00  0.00    -0.230 N
HETATM   18  C12 UNL     1      -0.853  19.000  19.040  1.00  0.00     0.258 C
HETATM   19  O5  UNL     1      -1.423  18.017  19.541  1.00  0.00    -0.271 OA
ATOM     20  H6  UNL     1      -0.864  20.362  17.417  1.00  0.00     0.183 HD
BRANCH  18  21
HETATM   21  C13 UNL     1       0.331  19.616  19.681  1.00  0.00     0.332 C
BRANCH  21  22
HETATM   22  N7  UNL     1       1.234  18.603  20.184  1.00  0.00    -0.071 N
ATOM     23  H73 UNL     1       0.904  18.210  21.066  1.00  0.00     0.274 HD
ATOM     24  H72 UNL     1       1.204  17.756  19.617  1.00  0.00     0.274 HD
ATOM     25  H71 UNL     1       2.183  18.968  20.266  1.00  0.00     0.274 HD
ENDBRANCH  21  22
ENDBRANCH  18  21
ENDBRANCH  14  17
ENDBRANCH  13  14
ENDBRANCH  12  13
ENDBRANCH   8  12
BRANCH  11  26
HETATM   26  O6  UNL     1       0.195  21.898  16.006  1.00  0.00    -0.391 OA
ATOM     27  H6  UNL     1       0.016  21.059  16.415  1.00  0.00     0.210 HD
ENDBRANCH  11  26
ENDBRANCH   3   5
BRANCH   1  28
HETATM   28  C6  UNL     1       3.234  19.853  17.127  1.00  0.00     0.126 C
HETATM   29  C5  UNL     1       3.521  20.977  17.895  1.00  0.00     0.068 C
HETATM   30  C4  UNL     1       4.179  20.984  19.132  1.00  0.00     0.047 C
HETATM   31  N3  UNL     1       3.094  22.213  17.364  1.00  0.00    -0.101 NA
HETATM   32  C3  UNL     1       4.785  19.926  19.780  1.00  0.00     0.063 C
HETATM   33  C16 UNL     1       4.512  18.593  19.553  1.00  0.00     0.281 C
HETATM   34  N8  UNL     1       4.308  17.970  18.350  1.00  0.00    -0.189 N
HETATM   35  O8  UNL     1       4.429  17.828  20.534  1.00  0.00    -0.265 OA
HETATM   36  C15 UNL     1       3.890  18.622  17.238  1.00  0.00     0.286 C
HETATM   37  O7  UNL     1       4.138  18.019  16.169  1.00  0.00    -0.265 OA
BRANCH  32  38
HETATM   38  C2  UNL     1       5.793  20.234  20.825  1.00  0.00     0.056 A
HETATM   39  N2  UNL     1       6.632  19.368  21.335  1.00  0.00    -0.336 N
HETATM   40  C1  UNL     1       7.467  19.761  22.295  1.00  0.00     0.142 A
ATOM     41  H2  UNL     1       6.646  18.405  21.001  1.00  0.00     0.168 HD
HETATM   42  S2  UNL     1       7.083  21.398  22.503  1.00  0.00    -0.064 SA
HETATM   43  C17 UNL     1       5.845  21.516  21.333  1.00  0.00     0.083 A
BRANCH  40  44
HETATM   44  N1  UNL     1       8.367  19.022  22.914  1.00  0.00    -0.380 N
ATOM     45  H12 UNL     1       8.522  18.015  22.873  1.00  0.00     0.158 HD
ATOM     46  H11 UNL     1       9.087  19.345  23.560  1.00  0.00     0.158 HD
ENDBRANCH  40  44
ENDBRANCH  32  38
BRANCH  34  47
HETATM   47  N9  UNL     1       4.551  16.606  18.295  1.00  0.00    -0.333 N
ATOM     48  H92 UNL     1       3.847  16.025  17.841  1.00  0.00     0.177 HD
ATOM     49  H91 UNL     1       5.407  16.228  18.704  1.00  0.00     0.177 HD
ENDBRANCH  34  47
ENDBRANCH   1  28
TORSDOF 12
ENDMDL