MODEL 4
REMARK VINA RESULT: -7.625871387      2.795      6.522
REMARK  15 active torsions:
REMARK  status: ('A' for Active; 'I' for Inactive)
REMARK    1  A    between atoms: N1_1  and  C1_4
REMARK    2  A    between atoms: C2_7  and  C3_8
REMARK    3  A    between atoms: C3_8  and  C8_28
REMARK    4  A    between atoms: N3_9  and  O1_11
REMARK    5  A    between atoms: O1_11  and  C4_12
REMARK    6  A    between atoms: C5_15  and  O4_16
REMARK    7  A    between atoms: C6_18  and  C7_19
REMARK    8  A    between atoms: C7_19  and  O5_20
REMARK    9  A    between atoms: O5_20  and  S1_21
REMARK   10  A    between atoms: S1_21  and  N4_22
REMARK   11  A    between atoms: C8_28  and  O9_29
REMARK   12  A    between atoms: C8_28  and  N5_31
REMARK   13  A    between atoms: N5_31  and  C9_33
REMARK   14  A    between atoms: C9_33  and  C10_34
REMARK   15  A    between atoms: C11_35  and  O10_36
ROOT
HETATM    1  C3  UNL     1       1.146  19.506  16.248  1.00  0.00     0.132 C
HETATM    2  N3  UNL     1       0.312  19.582  17.282  1.00  0.00    -0.255 N
ATOM      3  H3  UNL     1      -0.645  19.887  17.105  1.00  0.00     0.195 HD
ENDROOT
BRANCH   1   4
HETATM    4  C2  UNL     1       0.556  19.876  14.991  1.00  0.00     0.087 A
HETATM    5  N2  UNL     1       1.012  19.322  13.821  1.00  0.00    -0.189 N
HETATM    6  C1  UNL     1       0.503  19.628  12.616  1.00  0.00     0.679 A
ATOM      7  H2  UNL     1       1.774  18.645  13.869  1.00  0.00     0.184 HD
HETATM    8  N8  UNL     1      -0.497  20.504  12.455  1.00  0.00    -0.156 N
HETATM    9  C15 UNL     1      -0.980  21.076  13.565  1.00  0.00     0.261 A
ATOM     10  H8  UNL     1      -0.872  20.725  11.532  1.00  0.00     0.187 HD
HETATM   11  C14 UNL     1      -0.467  20.775  14.842  1.00  0.00     0.107 A
HETATM   12  O13 UNL     1      -1.931  21.920  13.498  1.00  0.00    -0.268 OA
BRANCH   6  13
HETATM   13  N1  UNL     1       0.983  19.068  11.556  1.00  0.00    -0.234 N
ATOM     14  H12 UNL     1       1.887  18.602  11.637  1.00  0.00     0.174 HD
ATOM     15  H11 UNL     1       0.457  19.103  10.683  1.00  0.00     0.174 HD
ENDBRANCH   6  13
ENDBRANCH   1   4
BRANCH   1  16
HETATM   16  C8  UNL     1       2.500  19.084  16.469  1.00  0.00     0.171 C
BRANCH  16  17
HETATM   17  O9  UNL     1       2.681  17.793  16.527  1.00  0.00    -0.344 OA
ATOM     18  H9  UNL     1       2.345  17.302  15.785  1.00  0.00     0.219 HD
ENDBRANCH  16  17
BRANCH  16  19
HETATM   19  N5  UNL     1       3.669  19.818  16.635  1.00  0.00    -0.344 N
ATOM     20  H5  UNL     1       3.862  20.538  15.940  1.00  0.00     0.167 HD
BRANCH  19  21
HETATM   21  C9  UNL     1       4.523  19.679  17.569  1.00  0.00     0.111 C
BRANCH  21  22
HETATM   22  C10 UNL     1       4.084  19.620  18.964  1.00  0.00     0.098 A
HETATM   23  C11 UNL     1       4.109  18.412  19.667  1.00  0.00     0.161 A
HETATM   24  N6  UNL     1       3.703  18.376  20.946  1.00  0.00    -0.288 N
HETATM   25  C12 UNL     1       3.263  19.460  21.609  1.00  0.00     0.329 A
ATOM     26  H6  UNL     1       3.730  17.483  21.439  1.00  0.00     0.172 HD
HETATM   27  O11 UNL     1       2.894  19.355  22.815  1.00  0.00    -0.247 OA
HETATM   28  N7  UNL     1       3.231  20.627  20.949  1.00  0.00    -0.275 N
HETATM   29  C13 UNL     1       3.628  20.715  19.665  1.00  0.00     0.265 A
ATOM     30  H7  UNL     1       2.901  21.464  21.429  1.00  0.00     0.173 HD
HETATM   31  O12 UNL     1       3.591  21.832  19.055  1.00  0.00    -0.267 OA
BRANCH  23  32
HETATM   32  O10 UNL     1       4.557  17.282  19.011  1.00  0.00    -0.345 OA
ATOM     33  H10 UNL     1       5.051  16.640  19.507  1.00  0.00     0.219 HD
ENDBRANCH  23  32
ENDBRANCH  21  22
ENDBRANCH  19  21
ENDBRANCH  16  19
ENDBRANCH   1  16
BRANCH   2  34
HETATM   34  O1  UNL     1       0.657  19.280  18.549  1.00  0.00    -0.217 OA
BRANCH  34  35
HETATM   35  C4  UNL     1      -0.323  19.303  19.563  1.00  0.00     0.471 C
HETATM   36  O2  UNL     1       0.124  20.202  20.548  1.00  0.00    -0.175 OA
HETATM   37  O3  UNL     1      -0.726  20.203  21.572  1.00  0.00    -0.201 OA
HETATM   38  C5  UNL     1      -1.878  20.838  21.146  1.00  0.00     0.325 C
HETATM   39  C6  UNL     1      -2.470  20.015  20.013  1.00  0.00     0.210 C
HETATM   40  O8  UNL     1      -1.525  19.756  19.013  1.00  0.00    -0.323 OA
BRANCH  38  41
HETATM   41  O4  UNL     1      -2.796  20.843  22.181  1.00  0.00    -0.366 OA
ATOM     42  H4  UNL     1      -3.659  20.663  21.827  1.00  0.00     0.212 HD
ENDBRANCH  38  41
BRANCH  39  43
HETATM   43  C7  UNL     1      -3.619  20.767  19.415  1.00  0.00     0.229 C
BRANCH  43  44
HETATM   44  O5  UNL     1      -4.763  19.968  19.389  1.00  0.00    -0.257 OA
BRANCH  44  45
HETATM   45  S1  UNL     1      -5.214  19.612  17.810  1.00  0.00     0.355 S
HETATM   46  O6  UNL     1      -5.596  20.872  17.088  1.00  0.00    -0.176 OA
HETATM   47  O7  UNL     1      -6.386  18.678  17.800  1.00  0.00    -0.176 OA
BRANCH  45  48
HETATM   48  N4  UNL     1      -3.918  18.845  16.961  1.00  0.00    -0.306 N
ATOM     49  H42 UNL     1      -2.943  18.887  17.257  1.00  0.00     0.171 HD
ATOM     50  H41 UNL     1      -4.266  18.355  16.138  1.00  0.00     0.171 HD
ENDBRANCH  45  48
ENDBRANCH  44  45
ENDBRANCH  43  44
ENDBRANCH  39  43
ENDBRANCH  34  35
ENDBRANCH   2  34
TORSDOF 15
ENDMDL