MODEL 2
REMARK VINA RESULT: -7.428523985      2.140      6.416
REMARK  15 active torsions:
REMARK  status: ('A' for Active; 'I' for Inactive)
REMARK    1  A    between atoms: N2_7  and  C4_8
REMARK    2  A    between atoms: C6_10  and  N3_11
REMARK    3  A    between atoms: N3_11  and  C7_13
REMARK    4  A    between atoms: C7_13  and  C8_14
REMARK       I    between atoms: N4_17  and  C10_18
REMARK    5  A    between atoms: C10_18  and  C11_20
REMARK    6  A    between atoms: C11_20  and  N5_21
REMARK    7  A    between atoms: N6_25  and  C12_26
REMARK    8  A    between atoms: C12_26  and  O3_27
REMARK    9  A    between atoms: C12_26  and  C13_29
REMARK   10  A    between atoms: C13_29  and  O4_30
REMARK   11  A    between atoms: C13_29  and  N7_32
REMARK   12  A    between atoms: C15_34  and  C16_35
REMARK   13  A    between atoms: C16_35  and  O5_36
REMARK   14  A    between atoms: C16_35  and  C17_38
REMARK   15  A    between atoms: C17_38  and  O6_39
ROOT
HETATM    1  C8  UNL     1       3.277  21.471  17.760  1.00  0.00     0.261 C
HETATM    2  O1  UNL     1       4.451  20.761  17.254  1.00  0.00    -0.343 OA
HETATM    3  C9  UNL     1       4.191  19.404  17.644  1.00  0.00     0.322 C
HETATM    4  N4  UNL     1       3.643  19.691  18.945  1.00  0.00    -0.233 N
HETATM    5  C10 UNL     1       3.976  19.235  20.205  1.00  0.00     0.265 C
HETATM    6  O2  UNL     1       3.335  19.729  21.215  1.00  0.00    -0.270 OA
HETATM    7  N6  UNL     1       2.618  20.614  18.569  1.00  0.00    -0.257 N
ENDROOT
BRANCH   1   8
HETATM    8  C7  UNL     1       2.756  22.160  16.573  1.00  0.00     0.176 C
BRANCH   8   9
HETATM    9  N3  UNL     1       2.490  21.271  15.460  1.00  0.00    -0.372 N
ATOM     10  H3  UNL     1       3.231  20.622  15.194  1.00  0.00     0.161 HD
BRANCH   9  11
HETATM   11  C6  UNL     1       1.415  21.231  14.788  1.00  0.00     0.107 A
HETATM   12  C5  UNL     1       0.314  22.009  15.067  1.00  0.00     0.098 A
HETATM   13  C4  UNL     1      -0.848  21.931  14.304  1.00  0.00     0.132 A
HETATM   14  N10 UNL     1      -0.829  21.059  13.287  1.00  0.00    -0.315 N
HETATM   15  C19 UNL     1       0.227  20.282  12.984  1.00  0.00     0.195 A
ATOM     16  H10 UNL     1      -1.665  20.979  12.709  1.00  0.00     0.170 HD
HETATM   17  N8  UNL     1       1.324  20.389  13.744  1.00  0.00    -0.317 N
HETATM   18  N9  UNL     1       0.158  19.370  11.873  1.00  0.00    -0.063 NA
ATOM     19  H8  UNL     1       2.129  19.804  13.521  1.00  0.00     0.170 HD
BRANCH  13  20
HETATM   20  N2  UNL     1      -1.950  22.762  14.641  1.00  0.00    -0.249 N
HETATM   21  C3  UNL     1      -1.840  23.963  15.269  1.00  0.00     0.122 A
HETATM   22  C2  UNL     1      -3.109  24.491  15.436  1.00  0.00     0.068 A
HETATM   23  C1  UNL     1      -3.970  23.564  14.888  1.00  0.00     0.115 A
HETATM   24  N1  UNL     1      -5.251  23.730  14.868  1.00  0.00    -0.384 N
HETATM   25  N11 UNL     1      -3.222  22.549  14.427  1.00  0.00    -0.278 N
ATOM     26  H12 UNL     1      -5.819  24.501  15.218  1.00  0.00     0.157 HD
ATOM     27  H11 UNL     1      -5.888  23.044  14.462  1.00  0.00     0.157 HD
ATOM     28  H11 UNL     1      -3.598  21.719  13.968  1.00  0.00     0.189 HD
ENDBRANCH  13  20
ENDBRANCH   9  11
ENDBRANCH   8   9
ENDBRANCH   1   8
BRANCH   7  29
HETATM   29  C12 UNL     1       1.386  20.035  18.553  1.00  0.00     0.287 C
BRANCH  29  30
HETATM   30  O3  UNL     1       1.304  18.991  17.577  1.00  0.00    -0.371 OA
ATOM     31  H3  UNL     1       0.588  18.394  17.761  1.00  0.00     0.212 HD
ENDBRANCH  29  30
BRANCH  29  32
HETATM   32  C13 UNL     1       0.816  19.399  19.792  1.00  0.00     0.275 C
BRANCH  32  33
HETATM   33  O4  UNL     1       0.979  18.044  19.931  1.00  0.00    -0.372 OA
ATOM     34  H4  UNL     1       1.626  17.747  20.560  1.00  0.00     0.212 HD
ENDBRANCH  32  33
BRANCH  32  35
HETATM   35  N7  UNL     1      -0.576  19.732  20.037  1.00  0.00    -0.295 N
HETATM   36  C14 UNL     1      -1.123  20.813  20.831  1.00  0.00     0.166 C
HETATM   37  C15 UNL     1      -2.447  21.086  20.095  1.00  0.00     0.182 C
HETATM   38  O7  UNL     1      -2.879  19.726  19.935  1.00  0.00    -0.294 OA
HETATM   39  C18 UNL     1      -1.712  19.047  19.526  1.00  0.00     0.365 C
HETATM   40  O8  UNL     1      -1.765  17.995  18.814  1.00  0.00    -0.238 OA
BRANCH  37  41
HETATM   41  C16 UNL     1      -2.169  21.655  18.724  1.00  0.00     0.172 C
BRANCH  41  42
HETATM   42  O5  UNL     1      -1.546  22.895  18.800  1.00  0.00    -0.391 OA
ATOM     43  H5  UNL     1      -1.555  23.343  17.963  1.00  0.00     0.210 HD
ENDBRANCH  41  42
BRANCH  41  44
HETATM   44  C17 UNL     1      -3.434  21.775  17.928  1.00  0.00     0.198 C
BRANCH  44  45
HETATM   45  O6  UNL     1      -3.467  20.746  16.996  1.00  0.00    -0.398 OA
ATOM     46  H6  UNL     1      -4.201  20.892  16.413  1.00  0.00     0.209 HD
ENDBRANCH  44  45
ENDBRANCH  41  44
ENDBRANCH  37  41
ENDBRANCH  32  35
ENDBRANCH  29  32
ENDBRANCH   7  29
BRANCH   5  47
HETATM   47  C11 UNL     1       4.983  18.234  20.617  1.00  0.00     0.334 C
BRANCH  47  48
HETATM   48  N5  UNL     1       5.806  18.584  21.718  1.00  0.00    -0.071 N
ATOM     49  H53 UNL     1       5.574  19.525  22.035  1.00  0.00     0.274 HD
ATOM     50  H52 UNL     1       5.535  18.040  22.536  1.00  0.00     0.274 HD
ATOM     51  H51 UNL     1       6.813  18.507  21.573  1.00  0.00     0.274 HD
ENDBRANCH  47  48
ENDBRANCH   5  47
TORSDOF 15
ENDMDL