MODEL 3
REMARK VINA RESULT: -6.314001185      4.367      7.391
REMARK  13 active torsions:
REMARK  status: ('A' for Active; 'I' for Inactive)
REMARK    1  A    between atoms: C1_4  and  C2_6
REMARK    2  A    between atoms: N3_8  and  C4_9
REMARK    3  A    between atoms: C6_12  and  O2_13
REMARK    4  A    between atoms: O2_13  and  S1_14
REMARK    5  A    between atoms: C7_18  and  N4_19
REMARK    6  A    between atoms: C7_18  and  C14_39
REMARK       I    between atoms: N4_19  and  C8_21
REMARK    7  A    between atoms: C8_21  and  C9_23
REMARK    8  A    between atoms: C11_25  and  C12_26
REMARK    9  A    between atoms: C12_26  and  N5_27
REMARK   10  A    between atoms: C12_26  and  C13_31
REMARK   11  A    between atoms: C13_31  and  N6_32
REMARK   12  A    between atoms: C15_42  and  O9_43
REMARK   13  A    between atoms: C16_45  and  O10_46
ROOT
HETATM    1  C4  UNL     1       0.512  20.321  20.118  1.00  0.00     0.193 C
HETATM    2  C5  UNL     1      -0.114  21.447  19.420  1.00  0.00     0.185 C
HETATM    3  O1  UNL     1       0.484  22.488  19.360  1.00  0.00    -0.293 OA
HETATM    4  C6  UNL     1      -1.448  21.320  18.802  1.00  0.00     0.256 C
HETATM    5  C7  UNL     1      -2.373  20.410  19.531  1.00  0.00     0.175 C
HETATM    6  C15 UNL     1      -1.694  19.097  19.910  1.00  0.00     0.189 C
HETATM    7  C16 UNL     1      -0.396  19.249  20.602  1.00  0.00     0.180 C
ENDROOT
BRANCH   5   8
HETATM    8  N4  UNL     1      -3.560  20.033  18.795  1.00  0.00    -0.333 N
HETATM    9  C8  UNL     1      -4.566  20.924  18.361  1.00  0.00     0.271 C
HETATM   10  O6  UNL     1      -4.521  22.143  18.578  1.00  0.00    -0.266 OA
ATOM     11  H4  UNL     1      -3.679  19.045  18.572  1.00  0.00     0.164 HD
BRANCH   9  12
HETATM   12  C9  UNL     1      -5.738  20.444  17.619  1.00  0.00     0.124 A
HETATM   13  C10 UNL     1      -6.675  21.266  17.034  1.00  0.00     0.074 A
HETATM   14  C11 UNL     1      -7.620  20.438  16.431  1.00  0.00     0.111 A
HETATM   15  O7  UNL     1      -7.221  19.226  16.673  1.00  0.00    -0.240 OA
HETATM   16  N7  UNL     1      -6.134  19.197  17.359  1.00  0.00    -0.256 N
ATOM     17  H7  UNL     1      -5.649  18.351  17.658  1.00  0.00     0.195 HD
BRANCH  14  18
HETATM   18  C12 UNL     1      -8.816  20.879  15.678  1.00  0.00     0.267 C
BRANCH  18  19
HETATM   19  N5  UNL     1      -8.999  22.284  15.868  1.00  0.00    -0.067 N
ATOM     20  H53 UNL     1      -8.430  22.649  16.631  1.00  0.00     0.275 HD
ATOM     21  H52 UNL     1      -8.592  22.833  15.110  1.00  0.00     0.275 HD
ATOM     22  H51 UNL     1      -9.992  22.477  15.998  1.00  0.00     0.275 HD
ENDBRANCH  18  19
BRANCH  18  23
HETATM   23  C13 UNL     1     -10.028  20.070  16.092  1.00  0.00     0.269 C
BRANCH  23  24
HETATM   24  N6  UNL     1     -10.077  19.952  17.527  1.00  0.00    -0.077 N
ATOM     25  H63 UNL     1     -10.453  20.792  17.967  1.00  0.00     0.274 HD
ATOM     26  H62 UNL     1     -10.792  19.291  17.831  1.00  0.00     0.274 HD
ATOM     27  H61 UNL     1      -9.155  19.711  17.891  1.00  0.00     0.274 HD
ENDBRANCH  23  24
ENDBRANCH  18  23
ENDBRANCH  14  18
ENDBRANCH   9  12
ENDBRANCH   5   8
BRANCH   5  28
HETATM   28  C14 UNL     1      -2.834  21.031  20.801  1.00  0.00     0.265 C
HETATM   29  N8  UNL     1      -3.665  20.326  21.713  1.00  0.00    -0.060 NA
HETATM   30  O8  UNL     1      -2.492  22.213  21.094  1.00  0.00    -0.274 OA
ENDBRANCH   5  28
BRANCH   4  31
HETATM   31  O2  UNL     1      -1.381  21.029  17.452  1.00  0.00    -0.241 OA
BRANCH  31  32
HETATM   32  S1  UNL     1      -1.571  22.214  16.366  1.00  0.00     0.252 S
HETATM   33  O3  UNL     1      -1.870  23.518  17.081  1.00  0.00    -0.572 OA
HETATM   34  O4  UNL     1      -0.421  22.407  15.420  1.00  0.00    -0.572 OA
HETATM   35  O5  UNL     1      -2.910  21.894  15.402  1.00  0.00    -0.572 OA
ENDBRANCH  31  32
ENDBRANCH   4  31
BRANCH   6  36
HETATM   36  O9  UNL     1      -1.565  18.242  18.818  1.00  0.00    -0.390 OA
ATOM     37  H9  UNL     1      -1.731  17.337  19.053  1.00  0.00     0.210 HD
ENDBRANCH   6  36
BRANCH   7  38
HETATM   38  O10 UNL     1       0.294  18.021  20.427  1.00  0.00    -0.390 OA
ATOM     39  H10 UNL     1       0.947  17.975  21.117  1.00  0.00     0.210 HD
ENDBRANCH   7  38
BRANCH   1  40
HETATM   40  N3  UNL     1       1.662  19.778  19.381  1.00  0.00    -0.336 N
HETATM   41  C3  UNL     1       1.649  19.416  18.085  1.00  0.00     0.125 A
HETATM   42  C2  UNL     1       2.899  18.947  17.716  1.00  0.00     0.090 A
HETATM   43  N9  UNL     1       3.653  19.033  18.802  1.00  0.00    -0.348 N
HETATM   44  C17 UNL     1       2.906  19.538  19.820  1.00  0.00     0.184 A
ATOM     45  H9  UNL     1       4.634  18.765  18.864  1.00  0.00     0.167 HD
BRANCH  42  46
HETATM   46  C1  UNL     1       3.261  18.464  16.378  1.00  0.00     0.138 C
HETATM   47  N1  UNL     1       4.480  18.203  16.072  1.00  0.00    -0.386 N
ATOM     48  H12 UNL     1       4.731  17.868  15.142  1.00  0.00     0.157 HD
ATOM     49  H11 UNL     1       5.242  18.318  16.741  1.00  0.00     0.157 HD
HETATM   50  N2  UNL     1       2.199  18.304  15.447  1.00  0.00    -0.081 NA
ENDBRANCH  42  46
ENDBRANCH   1  40
TORSDOF 13
ENDMDL