MODEL 5
REMARK VINA RESULT: -7.107673926      2.623      6.641
REMARK  13 active torsions:
REMARK  status: ('A' for Active; 'I' for Inactive)
REMARK    1  A    between atoms: C2_2  and  N1_3
REMARK    2  A    between atoms: C4_7  and  N3_8
REMARK    3  A    between atoms: N3_8  and  C5_10
REMARK    4  A    between atoms: C6_14  and  C7_15
REMARK    5  A    between atoms: C7_15  and  O1_16
REMARK    6  A    between atoms: C8_19  and  S1_20
REMARK    7  A    between atoms: S1_20  and  N5_23
REMARK    8  A    between atoms: N5_23  and  C9_25
REMARK    9  A    between atoms: C9_25  and  C10_26
REMARK   10  A    between atoms: C10_26  and  C11_27
REMARK   11  A    between atoms: C12_30  and  N7_31
REMARK   12  A    between atoms: N10_44  and  N11_45
REMARK   13  A    between atoms: C17_48  and  O7_49
ROOT
HETATM    1  S1  UNL     1       3.555  22.374  18.542  1.00  0.00     0.256 S
HETATM    2  O3  UNL     1       4.750  22.658  17.696  1.00  0.00    -0.203 OA
HETATM    3  O4  UNL     1       3.740  23.133  19.848  1.00  0.00    -0.203 OA
ENDROOT
BRANCH   1   4
HETATM    4  C8  UNL     1       3.416  20.643  18.923  1.00  0.00     0.298 C
HETATM    5  O2  UNL     1       3.660  19.912  17.793  1.00  0.00    -0.332 OA
HETATM    6  C6  UNL     1       4.346  18.735  17.973  1.00  0.00     0.348 C
HETATM    7  N4  UNL     1       3.798  18.044  19.133  1.00  0.00    -0.023 N
HETATM    8  C5  UNL     1       4.088  18.772  20.347  1.00  0.00     0.321 C
ATOM      9  H42 UNL     1       4.122  17.078  19.185  1.00  0.00     0.282 HD
ATOM     10  H41 UNL     1       2.799  17.865  19.029  1.00  0.00     0.282 HD
HETATM   11  C17 UNL     1       4.265  20.251  20.087  1.00  0.00     0.214 C
BRANCH   6  12
HETATM   12  C7  UNL     1       4.165  17.881  16.722  1.00  0.00     0.225 C
BRANCH  12  13
HETATM   13  O1  UNL     1       3.280  18.481  15.845  1.00  0.00    -0.397 OA
ATOM     14  H1  UNL     1       2.879  17.833  15.278  1.00  0.00     0.209 HD
ENDBRANCH  12  13
ENDBRANCH   6  12
BRANCH   8  15
HETATM   15  N3  UNL     1       3.065  18.580  21.356  1.00  0.00    -0.349 N
ATOM     16  H3  UNL     1       3.322  18.157  22.249  1.00  0.00     0.163 HD
BRANCH  15  17
HETATM   17  C4  UNL     1       1.712  18.965  21.136  1.00  0.00     0.104 C
HETATM   18  N2  UNL     1       0.847  18.417  20.358  1.00  0.00    -0.353 N
HETATM   19  C3  UNL     1      -0.419  19.087  20.400  1.00  0.00     0.397 C
ATOM     20  H2  UNL     1       1.041  17.600  19.778  1.00  0.00     0.162 HD
HETATM   21  N1  UNL     1      -0.108  20.380  20.982  1.00  0.00     0.112 N
HETATM   22  C18 UNL     1       1.067  20.132  21.818  1.00  0.00     0.350 C
BRANCH  21  23
HETATM   23  C2  UNL     1      -1.228  20.861  21.739  1.00  0.00     0.270 C
HETATM   24  C1  UNL     1      -0.749  21.267  23.124  1.00  0.00     0.037 C
ENDBRANCH  21  23
ENDBRANCH  15  17
ENDBRANCH   8  15
BRANCH  11  25
HETATM   25  O7  UNL     1       5.617  20.496  19.911  1.00  0.00    -0.388 OA
ATOM     26  H7  UNL     1       5.873  21.182  20.515  1.00  0.00     0.210 HD
ENDBRANCH  11  25
ENDBRANCH   1   4
BRANCH   1  27
HETATM   27  N5  UNL     1       2.114  22.982  17.817  1.00  0.00    -0.317 N
ATOM     28  H5  UNL     1       1.382  23.530  18.268  1.00  0.00     0.172 HD
BRANCH  27  29
HETATM   29  C9  UNL     1       2.158  22.544  16.398  1.00  0.00     0.138 C
BRANCH  29  30
HETATM   30  C10 UNL     1       0.776  22.614  15.799  1.00  0.00     0.079 C
BRANCH  30  31
HETATM   31  C11 UNL     1       0.219  21.258  15.734  1.00  0.00     0.047 A
HETATM   32  N6  UNL     1       0.772  20.370  14.833  1.00  0.00    -0.195 N
HETATM   33  C12 UNL     1       0.278  19.146  14.664  1.00  0.00     0.677 A
ATOM     34  H6  UNL     1       1.580  20.660  14.282  1.00  0.00     0.184 HD
HETATM   35  N8  UNL     1      -0.779  18.745  15.376  1.00  0.00    -0.174 N
HETATM   36  C13 UNL     1      -1.383  19.536  16.276  1.00  0.00     0.164 A
ATOM     37  H8  UNL     1      -1.141  17.802  15.230  1.00  0.00     0.186 HD
HETATM   38  C14 UNL     1      -0.861  20.837  16.459  1.00  0.00     0.102 A
HETATM   39  N10 UNL     1      -2.438  19.086  16.988  1.00  0.00    -0.194 N
HETATM   40  C15 UNL     1      -1.457  21.636  17.390  1.00  0.00     0.265 A
HETATM   41  O5  UNL     1      -1.054  22.784  17.613  1.00  0.00    -0.267 OA
HETATM   42  N9  UNL     1      -2.519  21.146  18.088  1.00  0.00    -0.273 N
HETATM   43  C16 UNL     1      -2.989  19.914  17.889  1.00  0.00     0.349 A
ATOM     44  H9  UNL     1      -2.969  21.740  18.784  1.00  0.00     0.173 HD
HETATM   45  O6  UNL     1      -3.985  19.484  18.557  1.00  0.00    -0.244 OA
BRANCH  33  46
HETATM   46  N7  UNL     1       0.854  18.351  13.789  1.00  0.00    -0.234 N
ATOM     47  H72 UNL     1       1.802  18.002  13.932  1.00  0.00     0.174 HD
ATOM     48  H71 UNL     1       0.332  18.085  12.953  1.00  0.00     0.174 HD
ENDBRANCH  33  46
BRANCH  39  49
HETATM   49  N11 UNL     1      -2.925  17.793  16.774  1.00  0.00    -0.333 N
ATOM     50 2H11 UNL     1      -3.913  17.609  16.603  1.00  0.00     0.177 HD
ATOM     51 1H11 UNL     1      -2.285  16.999  16.787  1.00  0.00     0.177 HD
ENDBRANCH  39  49
ENDBRANCH  30  31
ENDBRANCH  29  30
ENDBRANCH  27  29
ENDBRANCH   1  27
TORSDOF 13
ENDMDL