MODEL 3
REMARK VINA RESULT: -7.294762419      2.182      2.721
REMARK  13 active torsions:
REMARK  status: ('A' for Active; 'I' for Inactive)
REMARK    1  A    between atoms: N2_4  and  N3_6
REMARK    2  A    between atoms: C1_7  and  N4_8
REMARK    3  A    between atoms: N4_8  and  C2_10
REMARK    4  A    between atoms: C8_24  and  N9_25
REMARK       I    between atoms: N10_28  and  C11_30
REMARK    5  A    between atoms: C11_30  and  C12_32
REMARK    6  A    between atoms: C12_32  and  N11_33
REMARK    7  A    between atoms: C12_32  and  C13_37
REMARK    8  A    between atoms: C13_37  and  O3_38
REMARK    9  A    between atoms: C13_37  and  C17_46
REMARK   10  A    between atoms: O3_38  and  C14_39
REMARK   11  A    between atoms: C17_46  and  O4_47
REMARK   12  A    between atoms: C17_46  and  C18_49
REMARK   13  A    between atoms: C18_49  and  O5_50
ROOT
HETATM    1  N9  UNL     1       3.247  20.026  19.019  1.00  0.00    -0.300 N
HETATM    2  C9  UNL     1       3.183  19.937  17.591  1.00  0.00     0.192 C
HETATM    3  C10 UNL     1       1.996  20.652  17.101  1.00  0.00     0.019 C
HETATM    4  N10 UNL     1       1.990  21.371  16.038  1.00  0.00    -0.330 N
ATOM      5  H10 UNL     1       2.870  21.433  15.527  1.00  0.00     0.168 HD
HETATM    6  C11 UNL     1       0.911  22.080  15.504  1.00  0.00     0.255 C
HETATM    7  O2  UNL     1       0.481  23.092  16.113  1.00  0.00    -0.271 OA
HETATM    8  C19 UNL     1       0.798  20.458  17.954  1.00  0.00     0.152 C
HETATM    9  S1  UNL     1       1.577  20.029  19.564  1.00  0.00    -0.046 SA
ENDROOT
BRANCH   1  10
HETATM   10  C8  UNL     1       4.368  20.099  19.870  1.00  0.00     0.139 A
HETATM   11  N3  UNL     1       5.007  19.100  20.507  1.00  0.00    -0.209 N
HETATM   12  C1  UNL     1       6.038  19.629  21.225  1.00  0.00     0.146 A
HETATM   13  C6  UNL     1       6.035  20.990  21.028  1.00  0.00     0.055 A
HETATM   14  C7  UNL     1       5.001  21.309  20.186  1.00  0.00     0.055 A
BRANCH  11  15
HETATM   15  N2  UNL     1       4.675  17.764  20.441  1.00  0.00    -0.239 N
HETATM   16  N1  UNL     1       4.652  17.098  19.350  1.00  0.00    -0.330 N
ATOM     17  H12 UNL     1       4.893  17.595  18.493  1.00  0.00     0.178 HD
ATOM     18  H11 UNL     1       4.406  16.109  19.302  1.00  0.00     0.178 HD
ATOM     19  H2  UNL     1       4.436  17.282  21.307  1.00  0.00     0.208 HD
ENDBRANCH  11  15
BRANCH  12  20
HETATM   20  N4  UNL     1       6.945  18.893  22.030  1.00  0.00    -0.175 N
ATOM     21  H4  UNL     1       7.802  18.510  21.631  1.00  0.00     0.186 HD
BRANCH  20  22
HETATM   22  C2  UNL     1       6.634  18.703  23.401  1.00  0.00     0.682 C
HETATM   23  N5  UNL     1       5.516  19.162  23.842  1.00  0.00    -0.217 N
HETATM   24  C3  UNL     1       4.920  19.133  25.146  1.00  0.00     0.241 C
ATOM     25  H5  UNL     1       4.950  19.632  23.134  1.00  0.00     0.178 HD
HETATM   26  C4  UNL     1       5.887  19.312  26.255  1.00  0.00     0.242 C
HETATM   27  O1  UNL     1       5.609  20.186  27.145  1.00  0.00    -0.271 OA
HETATM   28  N6  UNL     1       7.110  18.615  26.451  1.00  0.00    -0.299 N
HETATM   29  C5  UNL     1       7.841  18.063  25.539  1.00  0.00     0.209 C
ATOM     30  H6  UNL     1       7.445  18.543  27.411  1.00  0.00     0.171 HD
HETATM   31  N7  UNL     1       9.020  17.427  26.000  1.00  0.00    -0.063 NA
HETATM   32  N8  UNL     1       7.616  18.012  24.144  1.00  0.00    -0.163 N
ATOM     33  H8  UNL     1       8.238  17.404  23.611  1.00  0.00     0.187 HD
ENDBRANCH  20  22
ENDBRANCH  12  20
ENDBRANCH   1  10
BRANCH   6  34
HETATM   34  C12 UNL     1       0.239  21.664  14.210  1.00  0.00     0.306 C
BRANCH  34  35
HETATM   35  N11 UNL     1      -1.031  22.506  14.359  1.00  0.00    -0.064 N
ATOM     36 3H11 UNL     1      -1.815  22.072  14.846  1.00  0.00     0.275 HD
ATOM     37 2H11 UNL     1      -0.986  23.296  15.003  1.00  0.00     0.275 HD
ATOM     38 1H11 UNL     1      -1.167  22.724  13.372  1.00  0.00     0.275 HD
ENDBRANCH  34  35
BRANCH  34  39
HETATM   39  C13 UNL     1      -0.177  20.256  14.166  1.00  0.00     0.202 C
BRANCH  39  40
HETATM   40  O3  UNL     1      -1.627  20.171  14.435  1.00  0.00    -0.312 OA
BRANCH  40  41
HETATM   41  C14 UNL     1      -2.095  19.689  15.621  1.00  0.00     0.215 C
HETATM   42  N12 UNL     1      -2.536  20.390  16.589  1.00  0.00    -0.355 N
HETATM   43  C15 UNL     1      -2.950  19.532  17.693  1.00  0.00     0.143 C
ATOM     44  H12 UNL     1      -2.591  21.409  16.591  1.00  0.00     0.163 HD
HETATM   45  C16 UNL     1      -3.096  18.170  17.025  1.00  0.00     0.143 C
HETATM   46  N13 UNL     1      -2.151  18.298  15.937  1.00  0.00    -0.355 N
ATOM     47  H13 UNL     1      -1.629  17.546  15.486  1.00  0.00     0.163 HD
ENDBRANCH  40  41
ENDBRANCH  39  40
BRANCH  39  48
HETATM   48  C17 UNL     1       0.124  19.355  13.050  1.00  0.00     0.173 C
BRANCH  48  49
HETATM   49  O4  UNL     1       0.906  18.261  13.629  1.00  0.00    -0.391 OA
ATOM     50  H4  UNL     1       1.286  17.801  12.890  1.00  0.00     0.210 HD
ENDBRANCH  48  49
BRANCH  48  51
HETATM   51  C18 UNL     1       0.885  19.756  11.871  1.00  0.00     0.198 C
BRANCH  51  52
HETATM   52  O5  UNL     1       0.683  18.968  10.750  1.00  0.00    -0.398 OA
ATOM     53  H5  UNL     1       0.193  19.386  10.050  1.00  0.00     0.209 HD
ENDBRANCH  51  52
ENDBRANCH  48  51
ENDBRANCH  39  48
ENDBRANCH  34  39
ENDBRANCH   6  34
TORSDOF 13
ENDMDL