MODEL 3
REMARK VINA RESULT: -8.006998136      2.137      6.575
REMARK  12 active torsions:
REMARK  status: ('A' for Active; 'I' for Inactive)
REMARK    1  A    between atoms: N1_1  and  C1_4
REMARK    2  A    between atoms: C3_9  and  C4_10
REMARK    3  A    between atoms: C4_10  and  C5_12
REMARK       I    between atoms: C5_12  and  N4_14
REMARK    4  A    between atoms: N4_14  and  O3_16
REMARK    5  A    between atoms: O3_16  and  C6_17
REMARK    6  A    between atoms: C6_17  and  C7_18
REMARK    7  A    between atoms: C7_18  and  O4_19
REMARK    8  A    between atoms: O4_19  and  C8_20
REMARK       I    between atoms: C8_20  and  N5_22
REMARK    9  A    between atoms: N5_22  and  C9_24
REMARK   10  A    between atoms: N8_31  and  O6_32
REMARK   11  A    between atoms: C14_35  and  C15_36
REMARK   12  A    between atoms: C17_41  and  O9_42
ROOT
HETATM    1  C8  UNL     1       0.791  19.000  14.282  1.00  0.00     0.367 C
HETATM    2  O5  UNL     1       1.063  17.895  13.868  1.00  0.00    -0.238 OA
HETATM    3  N5  UNL     1       1.239  19.678  15.386  1.00  0.00    -0.274 N
ATOM      4  H5  UNL     1       0.777  20.585  15.455  1.00  0.00     0.174 HD
ENDROOT
BRANCH   3   5
HETATM    5  C9  UNL     1       2.122  19.511  16.430  1.00  0.00     0.189 C
HETATM    6  N6  UNL     1       3.435  19.168  16.165  1.00  0.00    -0.360 N
HETATM    7  C10 UNL     1       4.160  19.034  17.398  1.00  0.00     0.149 C
ATOM      8  H6  UNL     1       3.830  19.030  15.235  1.00  0.00     0.162 HD
HETATM    9  C11 UNL     1       2.983  18.610  18.311  1.00  0.00     0.129 C
HETATM   10  C12 UNL     1       3.292  18.788  19.742  1.00  0.00     0.148 C
HETATM   11  N10 UNL     1       2.043  19.643  17.811  1.00  0.00    -0.278 N
HETATM   12  N7  UNL     1       3.227  20.176  20.156  1.00  0.00    -0.152 NA
HETATM   13  N8  UNL     1       3.781  20.288  21.443  1.00  0.00    -0.191 N
HETATM   14  C17 UNL     1       1.838  20.651  20.160  1.00  0.00     0.283 C
HETATM   15  C13 UNL     1       3.026  19.823  22.557  1.00  0.00     0.158 C
HETATM   16  C14 UNL     1       1.711  19.628  22.443  1.00  0.00     0.099 C
HETATM   17  C16 UNL     1       1.079  19.886  21.167  1.00  0.00     0.227 C
HETATM   18  O8  UNL     1      -0.098  19.440  20.960  1.00  0.00    -0.287 OA
HETATM   19  C18 UNL     1       1.387  20.464  18.756  1.00  0.00     0.287 C
HETATM   20  O10 UNL     1       0.366  21.056  18.368  1.00  0.00    -0.267 OA
BRANCH  13  21
HETATM   21  O6  UNL     1       5.003  20.817  21.586  1.00  0.00    -0.272 OA
ATOM     22  H6  UNL     1       5.096  21.660  22.013  1.00  0.00     0.246 HD
ENDBRANCH  13  21
BRANCH  16  23
HETATM   23  C15 UNL     1       0.989  19.147  23.621  1.00  0.00     0.270 C
HETATM   24  N9  UNL     1       1.413  17.917  24.229  1.00  0.00    -0.057 NA
HETATM   25  O7  UNL     1       0.037  19.811  24.062  1.00  0.00    -0.271 OA
ENDBRANCH  16  23
BRANCH  14  26
HETATM   26  O9  UNL     1       1.899  22.013  20.484  1.00  0.00    -0.360 OA
ATOM     27  H9  UNL     1       1.379  22.116  21.273  1.00  0.00     0.213 HD
ENDBRANCH  14  26
ENDBRANCH   3   5
BRANCH   1  28
HETATM   28  O4  UNL     1      -0.106  19.692  13.477  1.00  0.00    -0.302 OA
BRANCH  28  29
HETATM   29  C7  UNL     1      -0.547  20.869  13.129  1.00  0.00     0.209 C
BRANCH  29  30
HETATM   30  C6  UNL     1      -1.778  21.390  13.885  1.00  0.00     0.228 C
BRANCH  30  31
HETATM   31  O3  UNL     1      -1.183  21.537  15.206  1.00  0.00    -0.275 OA
BRANCH  31  32
HETATM   32  N4  UNL     1      -1.881  20.983  16.122  1.00  0.00    -0.228 N
HETATM   33  C5  UNL     1      -2.201  19.758  16.673  1.00  0.00     0.317 C
HETATM   34  O2  UNL     1      -1.724  18.646  16.317  1.00  0.00    -0.262 OA
ATOM     35  H4  UNL     1      -2.384  21.710  16.630  1.00  0.00     0.198 HD
BRANCH  33  36
HETATM   36  C4  UNL     1      -3.188  19.736  17.777  1.00  0.00     0.271 C
HETATM   37  O1  UNL     1      -4.231  18.988  17.577  1.00  0.00    -0.280 OA
BRANCH  36  38
HETATM   38  C3  UNL     1      -3.099  20.438  18.999  1.00  0.00     0.146 A
HETATM   39  C2  UNL     1      -3.420  21.801  19.144  1.00  0.00     0.163 A
HETATM   40  N2  UNL     1      -3.243  22.167  20.407  1.00  0.00    -0.177 N
HETATM   41  N3  UNL     1      -3.878  22.693  18.112  1.00  0.00    -0.080 NA
HETATM   42  C1  UNL     1      -2.819  21.099  21.089  1.00  0.00     0.677 A
ATOM     43  H2  UNL     1      -3.401  23.099  20.790  1.00  0.00     0.185 HD
HETATM   44  N11 UNL     1      -2.733  20.049  20.230  1.00  0.00    -0.184 N
ATOM     45  H11 UNL     1      -2.434  19.107  20.483  1.00  0.00     0.184 HD
BRANCH  42  46
HETATM   46  N1  UNL     1      -2.544  21.018  22.361  1.00  0.00    -0.234 N
ATOM     47  H12 UNL     1      -2.716  21.771  23.026  1.00  0.00     0.174 HD
ATOM     48  H11 UNL     1      -2.121  20.237  22.861  1.00  0.00     0.174 HD
ENDBRANCH  42  46
ENDBRANCH  36  38
ENDBRANCH  33  36
ENDBRANCH  31  32
ENDBRANCH  30  31
ENDBRANCH  29  30
ENDBRANCH  28  29
ENDBRANCH   1  28
TORSDOF 12
ENDMDL