MODEL 5
REMARK VINA RESULT: -7.299039379      2.193      3.413
REMARK  13 active torsions:
REMARK  status: ('A' for Active; 'I' for Inactive)
REMARK    1  A    between atoms: N5_15  and  C6_16
REMARK    2  A    between atoms: C7_18  and  O1_19
REMARK    3  A    between atoms: O1_19  and  N6_20
REMARK    4  A    between atoms: N6_20  and  S2_22
REMARK    5  A    between atoms: S2_22  and  C8_25
REMARK    6  A    between atoms: C8_25  and  C9_26
REMARK    7  A    between atoms: C9_26  and  O4_27
REMARK    8  A    between atoms: C9_26  and  C10_29
REMARK       I    between atoms: C10_29  and  N7_31
REMARK    9  A    between atoms: N7_31  and  N8_33
REMARK       I    between atoms: N8_33  and  C11_35
REMARK   10  A    between atoms: C11_35  and  C12_37
REMARK   11  A    between atoms: N10_40  and  O8_41
REMARK   12  A    between atoms: C13_43  and  O9_44
REMARK   13  A    between atoms: C14_46  and  O10_47
ROOT
HETATM    1  C6  UNL     1       0.125  20.453  20.406  1.00  0.00     0.188 C
HETATM    2  S1  UNL     1      -1.668  20.798  20.598  1.00  0.00    -0.103 SA
HETATM    3  C7  UNL     1      -2.100  20.355  18.897  1.00  0.00     0.247 C
HETATM    4  C13 UNL     1      -1.129  19.208  18.687  1.00  0.00     0.191 C
HETATM    5  C14 UNL     1       0.178  19.489  19.275  1.00  0.00     0.183 C
ENDROOT
BRANCH   3   6
HETATM    6  O1  UNL     1      -1.794  21.425  18.058  1.00  0.00    -0.252 OA
BRANCH   6   7
HETATM    7  N6  UNL     1      -2.484  21.401  16.929  1.00  0.00    -0.191 N
ATOM      8  H6  UNL     1      -2.991  20.567  16.635  1.00  0.00     0.207 HD
BRANCH   7   9
HETATM    9  S2  UNL     1      -2.490  22.814  15.993  1.00  0.00     0.251 S
HETATM   10  O2  UNL     1      -3.690  22.959  15.117  1.00  0.00    -0.204 OA
HETATM   11  O3  UNL     1      -2.456  24.068  16.858  1.00  0.00    -0.204 OA
BRANCH   9  12
HETATM   12  C8  UNL     1      -1.023  22.894  14.996  1.00  0.00     0.206 C
BRANCH  12  13
HETATM   13  C9  UNL     1      -0.929  21.657  14.106  1.00  0.00     0.227 C
BRANCH  13  14
HETATM   14  O4  UNL     1      -2.172  21.153  13.840  1.00  0.00    -0.385 OA
ATOM     15  H4  UNL     1      -2.801  21.441  14.493  1.00  0.00     0.210 HD
ENDBRANCH  13  14
BRANCH  13  16
HETATM   16  C10 UNL     1      -0.022  20.645  14.660  1.00  0.00     0.265 C
HETATM   17  O5  UNL     1      -0.583  19.648  15.259  1.00  0.00    -0.269 OA
HETATM   18  N7  UNL     1       1.392  20.663  14.598  1.00  0.00    -0.265 N
ATOM     19  H7  UNL     1       1.890  21.419  14.129  1.00  0.00     0.190 HD
BRANCH  18  20
HETATM   20  N8  UNL     1       2.096  19.588  15.214  1.00  0.00    -0.260 N
HETATM   21  C11 UNL     1       2.676  19.773  16.483  1.00  0.00     0.316 C
HETATM   22  O6  UNL     1       2.561  20.908  17.061  1.00  0.00    -0.262 OA
ATOM     23  H8  UNL     1       2.180  18.690  14.739  1.00  0.00     0.190 HD
BRANCH  21  24
HETATM   24  C12 UNL     1       3.393  18.717  17.147  1.00  0.00     0.279 A
HETATM   25  O7  UNL     1       3.309  18.097  18.308  1.00  0.00    -0.194 OA
HETATM   26  N9  UNL     1       4.303  17.307  18.102  1.00  0.00     0.060 NA
HETATM   27  N10 UNL     1       4.448  17.888  16.912  1.00  0.00    -0.109 N
BRANCH  27  28
HETATM   28  O8  UNL     1       5.281  17.771  15.826  1.00  0.00    -0.267 OA
ATOM     29  H8  UNL     1       5.120  17.448  14.947  1.00  0.00     0.246 HD
ENDBRANCH  27  28
ENDBRANCH  21  24
ENDBRANCH  18  20
ENDBRANCH  13  16
ENDBRANCH  12  13
ENDBRANCH   9  12
ENDBRANCH   7   9
ENDBRANCH   6   7
ENDBRANCH   3   6
BRANCH   4  30
HETATM   30  O9  UNL     1      -1.770  18.049  19.119  1.00  0.00    -0.389 OA
ATOM     31  H9  UNL     1      -1.264  17.709  19.847  1.00  0.00     0.210 HD
ENDBRANCH   4  30
BRANCH   1  32
HETATM   32  N5  UNL     1       0.780  20.102  21.607  1.00  0.00    -0.310 N
HETATM   33  C3  UNL     1       2.101  19.861  21.794  1.00  0.00     0.141 A
HETATM   34  N3  UNL     1       3.154  19.873  20.948  1.00  0.00    -0.336 N
HETATM   35  C4  UNL     1       2.290  19.565  23.120  1.00  0.00     0.122 A
HETATM   36  C2  UNL     1       4.368  19.592  21.423  1.00  0.00     0.183 A
ATOM     37  H3  UNL     1       3.022  20.092  19.961  1.00  0.00     0.168 HD
HETATM   38  N2  UNL     1       4.591  19.297  22.721  1.00  0.00    -0.337 N
HETATM   39  C1  UNL     1       3.576  19.277  23.585  1.00  0.00     0.131 A
ATOM     40  H2  UNL     1       5.537  19.090  23.042  1.00  0.00     0.168 HD
HETATM   41  N1  UNL     1       3.743  19.010  24.850  1.00  0.00    -0.383 N
ATOM     42  H12 UNL     1       4.682  18.801  25.189  1.00  0.00     0.157 HD
ATOM     43  H11 UNL     1       2.966  18.996  25.511  1.00  0.00     0.157 HD
HETATM   44  N4  UNL     1       1.099  19.627  23.721  1.00  0.00    -0.346 N
HETATM   45  C5  UNL     1       0.192  19.952  22.801  1.00  0.00     0.186 A
ATOM     46  H4  UNL     1       0.916  19.457  24.710  1.00  0.00     0.167 HD
ENDBRANCH   1  32
BRANCH   5  47
HETATM   47  O10 UNL     1       0.772  18.251  19.625  1.00  0.00    -0.390 OA
ATOM     48  H10 UNL     1       1.546  18.049  19.112  1.00  0.00     0.210 HD
ENDBRANCH   5  47
TORSDOF 13
ENDMDL