MODEL 2
REMARK VINA RESULT: -8.194514228      1.060      1.445
REMARK  11 active torsions:
REMARK  status: ('A' for Active; 'I' for Inactive)
REMARK    1  A    between atoms: C1_2  and  C2_4
REMARK    2  A    between atoms: C5_12  and  N4_13
REMARK    3  A    between atoms: N5_16  and  C8_17
REMARK    4  A    between atoms: C8_17  and  C9_18
REMARK    5  A    between atoms: C9_18  and  C10_19
REMARK    6  A    between atoms: C10_19  and  C11_20
REMARK    7  A    between atoms: N6_22  and  C13_23
REMARK    8  A    between atoms: C13_23  and  C14_24
REMARK    9  A    between atoms: C15_27  and  O3_28
REMARK   10  A    between atoms: C16_30  and  O4_31
REMARK   11  A    between atoms: C17_33  and  O5_34
ROOT
HETATM    1  N4  UNL     1       4.404  20.223  20.539  1.00  0.00    -0.189 N
HETATM    2  C6  UNL     1       4.380  21.548  21.176  1.00  0.00     0.173 C
HETATM    3  C7  UNL     1       5.149  21.203  22.436  1.00  0.00     0.295 C
HETATM    4  N5  UNL     1       4.632  19.877  22.838  1.00  0.00     0.107 N
HETATM    5  C18 UNL     1       4.426  19.210  21.557  1.00  0.00     0.414 C
ENDROOT
BRANCH   4   6
HETATM    6  C8  UNL     1       3.358  20.144  23.438  1.00  0.00     0.275 C
BRANCH   6   7
HETATM    7  C9  UNL     1       2.866  19.167  24.451  1.00  0.00     0.036 C
BRANCH   7   8
HETATM    8  C10 UNL     1       1.414  18.820  24.250  1.00  0.00     0.061 C
BRANCH   8   9
HETATM    9  C11 UNL     1       1.006  18.785  22.829  1.00  0.00     0.040 A
HETATM   10  C12 UNL     1       0.366  19.847  22.161  1.00  0.00     0.134 A
HETATM   11  N6  UNL     1       0.103  19.512  20.909  1.00  0.00    -0.283 N
HETATM   12  N9  UNL     1       0.556  18.268  20.749  1.00  0.00    -0.020 NA
HETATM   13  N10 UNL     1       1.099  17.829  21.899  1.00  0.00    -0.287 N
ATOM     14  H10 UNL     1       1.517  16.910  22.039  1.00  0.00     0.184 HD
BRANCH  11  15
HETATM   15  C13 UNL     1      -0.560  20.345  19.921  1.00  0.00     0.171 C
BRANCH  15  16
HETATM   16  C14 UNL     1      -0.766  19.593  18.652  1.00  0.00     0.146 C
HETATM   17  N7  UNL     1      -0.667  20.531  17.524  1.00  0.00    -0.137 NA
HETATM   18  N8  UNL     1      -1.928  20.847  17.038  1.00  0.00    -0.113 NA
HETATM   19  C15 UNL     1      -2.605  19.761  16.389  1.00  0.00     0.258 C
HETATM   20  C16 UNL     1      -2.219  18.451  17.092  1.00  0.00     0.194 C
HETATM   21  C17 UNL     1      -2.085  18.850  18.574  1.00  0.00     0.173 C
BRANCH  19  22
HETATM   22  O3  UNL     1      -2.319  19.746  15.045  1.00  0.00    -0.376 OA
ATOM     23  H3  UNL     1      -1.701  19.053  14.842  1.00  0.00     0.211 HD
ENDBRANCH  19  22
BRANCH  20  24
HETATM   24  O4  UNL     1      -3.231  17.534  16.972  1.00  0.00    -0.389 OA
ATOM     25  H4  UNL     1      -3.190  17.109  16.124  1.00  0.00     0.210 HD
ENDBRANCH  20  24
BRANCH  21  26
HETATM   26  O5  UNL     1      -3.184  19.690  18.827  1.00  0.00    -0.391 OA
ATOM     27  H5  UNL     1      -3.907  19.526  18.232  1.00  0.00     0.210 HD
ENDBRANCH  21  26
ENDBRANCH  15  16
ENDBRANCH  11  15
ENDBRANCH   8   9
ENDBRANCH   7   8
ENDBRANCH   6   7
ENDBRANCH   4   6
BRANCH   1  28
HETATM   28  C5  UNL     1       4.409  20.046  19.147  1.00  0.00     0.687 C
HETATM   29  N3  UNL     1       4.007  18.859  18.607  1.00  0.00    -0.154 N
HETATM   30  C4  UNL     1       3.292  18.716  17.450  1.00  0.00     0.288 C
ATOM     31  H3  UNL     1       4.261  18.008  19.109  1.00  0.00     0.187 HD
HETATM   32  C3  UNL     1       2.821  19.701  16.583  1.00  0.00     0.136 A
HETATM   33  O2  UNL     1       3.003  17.545  17.090  1.00  0.00    -0.265 OA
HETATM   34  N2  UNL     1       1.828  19.576  15.692  1.00  0.00    -0.332 N
HETATM   35  C20 UNL     1       3.265  21.014  16.456  1.00  0.00     0.136 A
HETATM   36  C2  UNL     1       1.632  20.744  15.018  1.00  0.00     0.173 A
ATOM     37  H2  UNL     1       1.290  18.722  15.540  1.00  0.00     0.168 HD
HETATM   38  N12 UNL     1       2.539  21.629  15.509  1.00  0.00    -0.332 N
ATOM     39  H12 UNL     1       2.650  22.597  15.209  1.00  0.00     0.168 HD
HETATM   40  C19 UNL     1       4.296  21.562  17.216  1.00  0.00     0.288 C
HETATM   41  N11 UNL     1       4.808  21.104  18.377  1.00  0.00    -0.154 N
HETATM   42  O6  UNL     1       4.767  22.610  16.709  1.00  0.00    -0.265 OA
ATOM     43  H11 UNL     1       5.611  21.622  18.733  1.00  0.00     0.187 HD
BRANCH  36  44
HETATM   44  C1  UNL     1       0.632  20.992  13.983  1.00  0.00     0.298 C
HETATM   45  N1  UNL     1      -0.397  21.921  14.258  1.00  0.00    -0.054 NA
HETATM   46  O1  UNL     1       0.733  20.367  12.893  1.00  0.00    -0.268 OA
ENDBRANCH  36  44
ENDBRANCH   1  28
TORSDOF 11
ENDMDL