MODEL 4
REMARK VINA RESULT: -7.097011349      2.349      3.263
REMARK  15 active torsions:
REMARK  status: ('A' for Active; 'I' for Inactive)
REMARK    1  A    between atoms: C3_9  and  N4_10
REMARK    2  A    between atoms: N4_10  and  C4_12
REMARK    3  A    between atoms: C5_17  and  C6_18
REMARK    4  A    between atoms: C6_18  and  N7_19
REMARK    5  A    between atoms: N7_19  and  C7_20
REMARK    6  A    between atoms: C7_20  and  O2_21
REMARK    7  A    between atoms: C7_20  and  C8_23
REMARK       I    between atoms: C8_23  and  N8_25
REMARK    8  A    between atoms: N8_25  and  S1_27
REMARK    9  A    between atoms: S1_27  and  N9_28
REMARK   10  A    between atoms: C9_33  and  O6_34
REMARK   11  A    between atoms: C10_36  and  O7_37
REMARK   12  A    between atoms: C11_39  and  C12_40
REMARK   13  A    between atoms: C12_40  and  O8_41
REMARK   14  A    between atoms: C12_40  and  N10_43
REMARK   15  A    between atoms: N10_43  and  C13_45
ROOT
HETATM    1  C4  UNL     1       1.301  19.805  15.537  1.00  0.00     0.229 C
HETATM    2  N5  UNL     1       0.883  21.143  15.721  1.00  0.00    -0.314 N
ATOM      3  H5  UNL     1       1.386  21.686  16.422  1.00  0.00     0.182 HD
HETATM    4  N6  UNL     1      -0.006  21.709  15.135  1.00  0.00    -0.325 N
ATOM      5  H6  UNL     1      -0.205  22.682  15.366  1.00  0.00     0.180 HD
HETATM    6  C5  UNL     1      -0.795  21.063  14.123  1.00  0.00     0.182 C
HETATM    7  C9  UNL     1      -0.161  19.890  13.482  1.00  0.00     0.180 C
HETATM    8  C10 UNL     1       1.022  19.287  14.153  1.00  0.00     0.193 C
ENDROOT
BRANCH   1   9
HETATM    9  N4  UNL     1       2.745  19.744  15.841  1.00  0.00    -0.351 N
ATOM     10  H4  UNL     1       3.424  20.240  15.263  1.00  0.00     0.163 HD
BRANCH   9  11
HETATM   11  C3  UNL     1       3.167  18.971  16.972  1.00  0.00     0.124 A
HETATM   12  N3  UNL     1       3.805  17.780  16.678  1.00  0.00    -0.294 N
HETATM   13  C2  UNL     1       4.403  17.118  17.663  1.00  0.00     0.327 A
ATOM     14  H3  UNL     1       3.816  17.418  15.725  1.00  0.00     0.172 HD
HETATM   15  N2  UNL     1       4.384  17.600  18.920  1.00  0.00    -0.296 N
HETATM   16  O1  UNL     1       4.995  16.019  17.410  1.00  0.00    -0.247 OA
HETATM   17  C1  UNL     1       3.783  18.729  19.245  1.00  0.00     0.138 A
ATOM     18  H2  UNL     1       4.855  17.069  19.653  1.00  0.00     0.171 HD
HETATM   19  N1  UNL     1       3.759  19.232  20.582  1.00  0.00    -0.081 NA
HETATM   20  C11 UNL     1       3.124  19.482  18.238  1.00  0.00     0.100 A
BRANCH  20  21
HETATM   21  C12 UNL     1       2.471  20.687  18.643  1.00  0.00     0.153 C
BRANCH  21  22
HETATM   22  O8  UNL     1       1.201  20.550  18.927  1.00  0.00    -0.345 OA
ATOM     23  H8  UNL     1       0.895  21.094  19.642  1.00  0.00     0.219 HD
ENDBRANCH  21  22
BRANCH  21  24
HETATM   24  N10 UNL     1       2.910  21.993  18.784  1.00  0.00    -0.365 N
ATOM     25  H10 UNL     1       2.323  22.653  19.294  1.00  0.00     0.162 HD
BRANCH  24  26
HETATM   26  C13 UNL     1       4.181  22.465  18.231  1.00  0.00     0.093 C
HETATM   27  C14 UNL     1       3.996  23.827  17.684  1.00  0.00     0.036 C
HETATM   28  C15 UNL     1       5.326  24.371  17.218  1.00  0.00     0.076 C
HETATM   29  S2  UNL     1       6.481  23.538  18.380  1.00  0.00    -0.167 SA
HETATM   30  C16 UNL     1       5.222  22.602  19.346  1.00  0.00     0.099 C
ENDBRANCH  24  26
ENDBRANCH  21  24
ENDBRANCH  20  21
ENDBRANCH   9  11
ENDBRANCH   1   9
BRANCH   8  31
HETATM   31  O7  UNL     1       0.909  17.898  14.259  1.00  0.00    -0.389 OA
ATOM     32  H7  UNL     1       0.036  17.719  14.588  1.00  0.00     0.210 HD
ENDBRANCH   8  31
BRANCH   7  33
HETATM   33  O6  UNL     1       0.180  20.250  12.151  1.00  0.00    -0.390 OA
ATOM     34  H6  UNL     1      -0.304  19.683  11.562  1.00  0.00     0.210 HD
ENDBRANCH   7  33
BRANCH   6  35
HETATM   35  C6  UNL     1      -2.149  20.758  14.787  1.00  0.00     0.187 C
BRANCH  35  36
HETATM   36  N7  UNL     1      -2.208  19.772  15.711  1.00  0.00    -0.391 NA
BRANCH  36  37
HETATM   37  C7  UNL     1      -2.267  18.770  16.649  1.00  0.00     0.284 C
BRANCH  37  38
HETATM   38  O2  UNL     1      -2.369  17.496  16.390  1.00  0.00    -0.331 OA
ATOM     39  H2  UNL     1      -3.163  16.979  16.468  1.00  0.00     0.220 HD
ENDBRANCH  37  38
BRANCH  37  40
HETATM   40  C8  UNL     1      -2.227  18.995  18.107  1.00  0.00     0.321 C
HETATM   41  O3  UNL     1      -1.872  18.114  18.891  1.00  0.00    -0.261 OA
HETATM   42  N8  UNL     1      -2.612  20.268  18.608  1.00  0.00    -0.229 N
ATOM     43  H8  UNL     1      -2.909  20.991  17.953  1.00  0.00     0.183 HD
BRANCH  42  44
HETATM   44  S1  UNL     1      -2.589  20.615  20.278  1.00  0.00     0.319 S
HETATM   45  O4  UNL     1      -3.670  19.847  20.993  1.00  0.00    -0.183 OA
HETATM   46  O5  UNL     1      -2.756  22.070  20.536  1.00  0.00    -0.183 OA
BRANCH  44  47
HETATM   47  N9  UNL     1      -1.079  20.066  20.936  1.00  0.00    -0.311 N
ATOM     48  H92 UNL     1      -0.199  20.024  20.422  1.00  0.00     0.170 HD
ATOM     49  H91 UNL     1      -1.226  19.800  21.909  1.00  0.00     0.170 HD
ENDBRANCH  44  47
ENDBRANCH  42  44
ENDBRANCH  37  40
ENDBRANCH  36  37
ENDBRANCH  35  36
ENDBRANCH   6  35
TORSDOF 15
ENDMDL