MODEL 1
REMARK VINA RESULT: -6.194825209      0.000      0.000
REMARK  8 active torsions:
REMARK  status: ('A' for Active; 'I' for Inactive)
REMARK    1  A    between atoms: N1_1  and  C1_4
REMARK    2  A    between atoms: N4_13  and  O3_14
REMARK    3  A    between atoms: C4_16  and  C5_17
REMARK    4  A    between atoms: C5_17  and  O4_18
REMARK    5  A    between atoms: C5_17  and  N5_20
REMARK    6  A    between atoms: N5_20  and  N6_21
REMARK       I    between atoms: N6_21  and  C6_22
REMARK    7  A    between atoms: C6_22  and  C7_24
REMARK    8  A    between atoms: C7_24  and  N7_25
ROOT
HETATM    1  C1  UNL     1       6.371  16.746  16.298  1.00  0.00     0.138 C
HETATM    2  N2  UNL     1       5.361  16.102  16.867  1.00  0.00    -0.293 N
ATOM      3  H2  UNL     1       4.560  16.677  17.129  1.00  0.00     0.172 HD
HETATM    4  C2  UNL     1       5.257  14.820  17.137  1.00  0.00     0.329 C
HETATM    5  O1  UNL     1       4.325  14.412  17.945  1.00  0.00    -0.246 OA
HETATM    6  N3  UNL     1       6.045  13.777  16.683  1.00  0.00    -0.258 N
ATOM      7  H3  UNL     1       5.826  12.849  17.044  1.00  0.00     0.175 HD
HETATM    8  C3  UNL     1       7.093  13.859  15.797  1.00  0.00     0.355 C
HETATM    9  O2  UNL     1       7.413  12.781  15.307  1.00  0.00    -0.244 OA
HETATM   10  N4  UNL     1       7.792  14.970  15.435  1.00  0.00    -0.163 N
HETATM   11  C4  UNL     1       7.553  16.216  15.780  1.00  0.00     0.179 C
ENDROOT
BRANCH  11  12
HETATM   12  C5  UNL     1       8.665  17.199  15.629  1.00  0.00     0.287 C
BRANCH  12  13
HETATM   13  O4  UNL     1       9.419  17.069  16.719  1.00  0.00    -0.331 OA
ATOM     14  H4  UNL     1      10.151  16.519  16.467  1.00  0.00     0.220 HD
ENDBRANCH  12  13
BRANCH  12  15
HETATM   15  N5  UNL     1       8.826  18.034  14.595  1.00  0.00    -0.217 NA
BRANCH  15  16
HETATM   16  N6  UNL     1       8.968  18.849  13.580  1.00  0.00    -0.205 NA
HETATM   17  C6  UNL     1       9.239  19.590  12.433  1.00  0.00     0.352 C
HETATM   18  O5  UNL     1      10.048  19.409  11.520  1.00  0.00    -0.252 OA
BRANCH  17  19
HETATM   19  C7  UNL     1       8.267  20.817  12.422  1.00  0.00     0.351 C
BRANCH  19  20
HETATM   20  N7  UNL     1       7.847  21.214  13.678  1.00  0.00    -0.070 N
ATOM     21  H73 UNL     1       6.946  20.794  13.903  1.00  0.00     0.274 HD
ATOM     22  H72 UNL     1       8.424  20.785  14.400  1.00  0.00     0.274 HD
ATOM     23  H71 UNL     1       7.810  22.226  13.803  1.00  0.00     0.274 HD
ENDBRANCH  19  20
ENDBRANCH  17  19
ENDBRANCH  15  16
ENDBRANCH  12  15
ENDBRANCH  11  12
BRANCH   1  24
HETATM   24  N1  UNL     1       6.343  18.017  16.184  1.00  0.00    -0.383 N
ATOM     25  H12 UNL     1       5.476  18.404  16.557  1.00  0.00     0.157 HD
ATOM     26  H11 UNL     1       7.123  18.513  15.753  1.00  0.00     0.157 HD
ENDBRANCH   1  24
BRANCH  10  27
HETATM   27  O3  UNL     1       8.851  14.651  14.644  1.00  0.00    -0.278 OA
ATOM     28  H3  UNL     1       8.952  15.275  13.934  1.00  0.00     0.245 HD
ENDBRANCH  10  27
TORSDOF 8
ENDMDL