MODEL 1
REMARK VINA RESULT: -6.867122636      0.000      0.000
REMARK  4 active torsions:
REMARK  status: ('A' for Active; 'I' for Inactive)
REMARK    1  A    between atoms: N1_1  and  C1_4
REMARK    2  A    between atoms: C2_7  and  S1_8
REMARK    3  A    between atoms: S1_8  and  N3_9
REMARK    4  A    between atoms: C3_16  and  C4_17
REMARK       I    between atoms: C4_17  and  N5_19
ROOT
HETATM    1  C1  UNL     1       8.978  18.980  13.657  1.00  0.00     0.128 A
HETATM    2  N2  UNL     1       7.952  19.791  13.994  1.00  0.00    -0.316 N
ATOM      3  H2  UNL     1       7.814  20.661  13.479  1.00  0.00     0.169 HD
HETATM    4  C2  UNL     1       7.110  19.480  14.989  1.00  0.00     0.226 A
HETATM    5  N4  UNL     1       7.319  18.327  15.649  1.00  0.00    -0.325 N
ATOM      6  H4  UNL     1       6.681  18.085  16.408  1.00  0.00     0.168 HD
HETATM    7  C3  UNL     1       8.313  17.478  15.368  1.00  0.00     0.131 A
HETATM    8  C6  UNL     1       9.178  17.800  14.344  1.00  0.00     0.122 A
HETATM    9  N8  UNL     1      10.247  16.936  14.007  1.00  0.00    -0.096 NA
ENDROOT
BRANCH   7  10
HETATM   10  C4  UNL     1       8.480  16.231  16.134  1.00  0.00     0.276 C
HETATM   11  O3  UNL     1       8.777  16.262  17.352  1.00  0.00    -0.266 OA
HETATM   12  N5  UNL     1       8.309  14.993  15.513  1.00  0.00    -0.298 N
HETATM   13  C5  UNL     1       7.387  14.191  15.909  1.00  0.00     0.203 C
ATOM     14  H5  UNL     1       8.918  14.724  14.740  1.00  0.00     0.171 HD
HETATM   15  N6  UNL     1       7.161  12.916  15.320  1.00  0.00    -0.066 NA
HETATM   16  N7  UNL     1       6.541  14.573  16.984  1.00  0.00    -0.066 NA
ENDBRANCH   7  10
BRANCH   4  17
HETATM   17  S1  UNL     1       5.768  20.540  15.431  1.00  0.00     0.289 S
HETATM   18  O1  UNL     1       4.905  19.789  16.373  1.00  0.00    -0.198 OA
HETATM   19  O2  UNL     1       4.999  20.852  14.184  1.00  0.00    -0.198 OA
BRANCH  17  20
HETATM   20  N3  UNL     1       6.422  21.923  16.180  1.00  0.00    -0.322 N
ATOM     21  H32 UNL     1       6.598  22.816  15.719  1.00  0.00     0.169 HD
ATOM     22  H31 UNL     1       6.599  21.694  17.158  1.00  0.00     0.169 HD
ENDBRANCH  17  20
ENDBRANCH   4  17
BRANCH   1  23
HETATM   23  N1  UNL     1       9.759  19.319  12.696  1.00  0.00    -0.384 N
ATOM     24  H12 UNL     1       9.387  19.517  11.767  1.00  0.00     0.157 HD
ATOM     25  H11 UNL     1      10.762  19.391  12.869  1.00  0.00     0.157 HD
ENDBRANCH   1  23
TORSDOF 4
ENDMDL