MODEL 5
REMARK VINA RESULT: -6.837557217      5.267      7.100
REMARK  3 active torsions:
REMARK  status: ('A' for Active; 'I' for Inactive)
REMARK    1  A    between atoms: N1_1  and  C1_4
REMARK    2  A    between atoms: C2_7  and  C3_8
REMARK    3  A    between atoms: C3_8  and  N3_9
ROOT
HETATM    1  N3  UNL     1       7.637  18.588  14.451  1.00  0.00    -0.344 N
ATOM      2  H3  UNL     1       7.103  17.914  14.999  1.00  0.00     0.167 HD
HETATM    3  C4  UNL     1       7.022  19.658  14.320  1.00  0.00     0.177 C
HETATM    4  N4  UNL     1       5.726  19.702  14.957  1.00  0.00    -0.301 N
ATOM      5  H4  UNL     1       5.288  18.797  15.133  1.00  0.00     0.171 HD
HETATM    6  C5  UNL     1       4.973  20.851  15.375  1.00  0.00     0.303 C
HETATM    7  O1  UNL     1       3.872  20.680  15.941  1.00  0.00    -0.263 OA
HETATM    8  C6  UNL     1       5.332  22.265  15.222  1.00  0.00     0.306 C
HETATM    9  O2  UNL     1       4.609  23.132  15.774  1.00  0.00    -0.276 OA
HETATM   10  C7  UNL     1       6.458  22.833  14.491  1.00  0.00     0.304 C
HETATM   11  O3  UNL     1       6.568  24.081  14.480  1.00  0.00    -0.263 OA
HETATM   12  N5  UNL     1       7.495  22.174  13.758  1.00  0.00    -0.284 N
ATOM     13  H5  UNL     1       8.212  22.758  13.328  1.00  0.00     0.172 HD
HETATM   14  C8  UNL     1       7.603  20.749  13.579  1.00  0.00     0.292 C
HETATM   15  O4  UNL     1       8.319  20.421  12.623  1.00  0.00    -0.264 OA
ENDROOT
BRANCH   1  16
HETATM   16  C3  UNL     1       8.865  18.060  14.048  1.00  0.00     0.140 C
BRANCH  16  17
HETATM   17  C2  UNL     1       9.545  17.443  15.238  1.00  0.00     0.151 A
HETATM   18  N2  UNL     1       9.268  16.302  15.884  1.00  0.00    -0.173 N
HETATM   19  C1  UNL     1      10.138  16.156  16.880  1.00  0.00     0.692 A
ATOM     20  H2  UNL     1       8.515  15.655  15.651  1.00  0.00     0.186 HD
HETATM   21  N7  UNL     1      10.971  17.210  16.864  1.00  0.00    -0.131 N
HETATM   22  N6  UNL     1      10.602  17.978  15.871  1.00  0.00    -0.270 N
ATOM     23  H7  UNL     1      11.745  17.380  17.506  1.00  0.00     0.205 HD
ATOM     24  H6  UNL     1      11.053  18.856  15.614  1.00  0.00     0.189 HD
BRANCH  19  25
HETATM   25  N1  UNL     1      10.212  15.175  17.751  1.00  0.00    -0.233 N
ATOM     26  H12 UNL     1      10.707  15.239  18.640  1.00  0.00     0.174 HD
ATOM     27  H11 UNL     1       9.807  14.241  17.680  1.00  0.00     0.174 HD
ENDBRANCH  19  25
ENDBRANCH  16  17
ENDBRANCH   1  16
TORSDOF 3
ENDMDL