MODEL 2
REMARK VINA RESULT: -6.846882340      2.351      4.647
REMARK  4 active torsions:
REMARK  status: ('A' for Active; 'I' for Inactive)
REMARK       I    between atoms: C1_4  and  N2_5
REMARK       I    between atoms: C1_4  and  N4_10
REMARK    1  A    between atoms: N2_5  and  N3_7
REMARK    2  A    between atoms: C4_19  and  N7_20
REMARK    3  A    between atoms: N7_20  and  N8_22
REMARK    4  A    between atoms: N8_22  and  S1_24
ROOT
HETATM    1  N1  UNL     1       9.562  16.327  14.701  1.00  0.00    -0.232 N
ATOM      2  H11 UNL     1       8.806  15.906  14.160  1.00  0.00     0.174 HD
ATOM      3  H12 UNL     1      10.376  15.821  15.047  1.00  0.00     0.174 HD
HETATM    4  C1  UNL     1       9.497  17.590  14.975  1.00  0.00     0.715 C
HETATM    5  N2  UNL     1      10.530  18.166  15.715  1.00  0.00    -0.138 N
ATOM      6  H2  UNL     1      10.813  19.130  15.539  1.00  0.00     0.205 HD
HETATM    7  N4  UNL     1       8.360  18.297  14.493  1.00  0.00     0.079 N
HETATM    8  C2  UNL     1       7.113  18.106  14.922  1.00  0.00     0.366 A
HETATM    9  O1  UNL     1       6.932  17.240  15.817  1.00  0.00    -0.245 OA
HETATM   10  N5  UNL     1       6.041  18.775  14.464  1.00  0.00    -0.259 N
ATOM     11  H5  UNL     1       5.105  18.593  14.825  1.00  0.00     0.175 HD
HETATM   12  C3  UNL     1       6.258  19.697  13.507  1.00  0.00     0.342 A
HETATM   13  O2  UNL     1       5.300  20.375  13.018  1.00  0.00    -0.246 OA
HETATM   14  N6  UNL     1       7.498  19.926  13.041  1.00  0.00    -0.138 N
ATOM     15  H6  UNL     1       7.643  20.628  12.316  1.00  0.00     0.189 HD
HETATM   16  C4  UNL     1       8.550  19.239  13.521  1.00  0.00     0.727 A
ENDROOT
BRANCH  16  17
HETATM   17  N7  UNL     1       9.740  19.455  13.077  1.00  0.00    -0.120 N
ATOM     18  H7  UNL     1      10.413  20.000  13.618  1.00  0.00     0.206 HD
BRANCH  17  19
HETATM   19  N8  UNL     1      10.081  18.920  11.833  1.00  0.00    -0.199 N
ATOM     20  H8  UNL     1      10.572  18.027  11.815  1.00  0.00     0.201 HD
BRANCH  19  21
HETATM   21  S1  UNL     1       9.723  19.671  10.335  1.00  0.00     0.373 S
HETATM   22  O3  UNL     1      10.074  18.811   9.171  1.00  0.00    -0.186 OA
HETATM   23  O4  UNL     1       8.271  20.084  10.235  1.00  0.00    -0.186 OA
ENDBRANCH  19  21
ENDBRANCH  17  19
ENDBRANCH  16  17
BRANCH   5  24
HETATM   24  N3  UNL     1      11.173  17.414  16.697  1.00  0.00    -0.331 N
ATOM     25  H32 UNL     1      12.163  17.195  16.590  1.00  0.00     0.177 HD
ATOM     26  H31 UNL     1      10.645  17.092  17.509  1.00  0.00     0.177 HD
ENDBRANCH   5  24
TORSDOF 4
ENDMDL