MODEL 1
REMARK VINA RESULT: -7.683665451      0.000      0.000
REMARK  4 active torsions:
REMARK  status: ('A' for Active; 'I' for Inactive)
REMARK       I    between atoms: C2_2  and  N1_4
REMARK    1  A    between atoms: N1_4  and  N2_6
REMARK    2  A    between atoms: N2_6  and  C3_8
REMARK    3  A    between atoms: C5_15  and  N5_16
REMARK    4  A    between atoms: N5_16  and  N6_18
ROOT
HETATM    1  C3  UNL     1       7.695  17.013  16.272  1.00  0.00     0.194 C
HETATM    2  N3  UNL     1       8.920  16.978  16.833  1.00  0.00    -0.288 N
ATOM      3  H3  UNL     1       8.978  16.505  17.735  1.00  0.00     0.172 HD
HETATM    4  C4  UNL     1      10.083  17.485  16.364  1.00  0.00     0.340 C
HETATM    5  O2  UNL     1      11.045  17.519  17.181  1.00  0.00    -0.246 OA
HETATM    6  N4  UNL     1      10.340  17.958  15.136  1.00  0.00    -0.140 N
ATOM      7  H4  UNL     1      11.318  17.942  14.846  1.00  0.00     0.189 HD
HETATM    8  C5  UNL     1       9.468  18.450  14.244  1.00  0.00     0.704 C
HETATM    9  N9  UNL     1       8.131  18.502  14.339  1.00  0.00    -0.151 N
ATOM     10  H9  UNL     1       7.648  19.182  13.751  1.00  0.00     0.188 HD
HETATM   11  C7  UNL     1       7.373  17.735  15.143  1.00  0.00     0.305 C
HETATM   12  O3  UNL     1       6.160  17.640  14.836  1.00  0.00    -0.263 OA
ENDROOT
BRANCH   1  13
HETATM   13  N2  UNL     1       6.745  16.335  16.807  1.00  0.00    -0.278 N
ATOM     14  H2  UNL     1       6.307  16.704  17.651  1.00  0.00     0.189 HD
BRANCH  13  15
HETATM   15  N1  UNL     1       6.282  15.135  16.306  1.00  0.00    -0.269 N
HETATM   16  C2  UNL     1       7.041  13.944  16.323  1.00  0.00     0.232 C
HETATM   17  C1  UNL     1       6.500  12.683  15.773  1.00  0.00     0.119 C
HETATM   18  O1  UNL     1       8.197  13.933  16.808  1.00  0.00    -0.272 OA
ATOM     19  H1  UNL     1       5.345  15.107  15.904  1.00  0.00     0.190 HD
ENDBRANCH  13  15
ENDBRANCH   1  13
BRANCH   8  20
HETATM   20  N5  UNL     1       9.926  18.949  13.133  1.00  0.00    -0.130 N
ATOM     21  H5  UNL     1      10.834  18.674  12.758  1.00  0.00     0.205 HD
BRANCH  20  22
HETATM   22  N6  UNL     1       9.117  19.876  12.482  1.00  0.00    -0.262 N
HETATM   23  C6  UNL     1       9.224  20.020  11.211  1.00  0.00     0.216 C
HETATM   24  N7  UNL     1      10.164  19.227  10.513  1.00  0.00    -0.065 NA
HETATM   25  N8  UNL     1       8.392  20.974  10.542  1.00  0.00    -0.065 NA
ATOM     26  H6  UNL     1       8.447  20.435  13.009  1.00  0.00     0.190 HD
ENDBRANCH  20  22
ENDBRANCH   8  20
TORSDOF 4
ENDMDL