MODEL 3
REMARK VINA RESULT: -6.545593587      4.095      6.834
REMARK  5 active torsions:
REMARK  status: ('A' for Active; 'I' for Inactive)
REMARK    1  A    between atoms: C2_5  and  N3_6
REMARK    2  A    between atoms: N3_6  and  N4_8
REMARK    3  A    between atoms: N4_8  and  C3_10
REMARK    4  A    between atoms: C5_17  and  N7_18
REMARK    5  A    between atoms: N7_18  and  N8_20
REMARK       I    between atoms: N8_20  and  C6_21
ROOT
HETATM    1  C1  UNL     1       9.383  19.970  11.290  1.00  0.00     0.180 C
HETATM    2  N1  UNL     1       9.109  19.474  12.650  1.00  0.00    -0.260 N
HETATM    3  N2  UNL     1       9.906  18.529  13.143  1.00  0.00    -0.127 N
ATOM      4  H2  UNL     1      10.687  18.176  12.590  1.00  0.00     0.206 HD
HETATM    5  C2  UNL     1       9.675  18.044  14.376  1.00  0.00     0.714 A
HETATM    6  N6  UNL     1       8.641  18.533  15.070  1.00  0.00    -0.150 N
ATOM      7  H6  UNL     1       8.473  18.159  16.004  1.00  0.00     0.188 HD
HETATM    8  C4  UNL     1       7.823  19.470  14.621  1.00  0.00     0.307 A
HETATM    9  O1  UNL     1       6.840  19.958  15.232  1.00  0.00    -0.263 OA
HETATM   10  C5  UNL     1       8.056  19.996  13.313  1.00  0.00     0.217 A
ENDROOT
BRANCH   5  11
HETATM   11  N3  UNL     1      10.463  17.105  14.853  1.00  0.00    -0.129 N
ATOM     12  H3  UNL     1      11.432  17.300  15.109  1.00  0.00     0.205 HD
BRANCH  11  13
HETATM   13  N4  UNL     1       9.908  15.816  14.994  1.00  0.00    -0.264 N
ATOM     14  H4  UNL     1      10.055  15.130  14.255  1.00  0.00     0.189 HD
BRANCH  13  15
HETATM   15  C3  UNL     1       9.157  15.449  16.125  1.00  0.00     0.200 C
HETATM   16  N5  UNL     1       9.713  15.566  17.429  1.00  0.00    -0.068 NA
HETATM   17  S1  UNL     1       7.635  14.883  16.010  1.00  0.00    -0.043 SA
ENDBRANCH  13  15
ENDBRANCH  11  13
ENDBRANCH   5  11
BRANCH  10  18
HETATM   18  N7  UNL     1       7.311  20.869  12.882  1.00  0.00    -0.208 N
ATOM     19  H7  UNL     1       6.699  20.383  12.226  1.00  0.00     0.204 HD
BRANCH  18  20
HETATM   20  N8  UNL     1       6.928  22.061  12.848  1.00  0.00    -0.266 NA
HETATM   21  C6  UNL     1       6.513  23.353  12.810  1.00  0.00     0.424 C
HETATM   22  N9  UNL     1       6.563  24.080  14.079  1.00  0.00    -0.024 NA
HETATM   23  O2  UNL     1       6.083  24.076  11.875  1.00  0.00    -0.232 OA
ENDBRANCH  18  20
ENDBRANCH  10  18
TORSDOF 5
ENDMDL