MODEL 1
REMARK VINA RESULT: -6.750251872      0.000      0.000
REMARK  4 active torsions:
REMARK  status: ('A' for Active; 'I' for Inactive)
REMARK    1  A    between atoms: N1_1  and  C1_5
REMARK    2  A    between atoms: C1_5  and  N2_6
REMARK    3  A    between atoms: C1_5  and  C2_10
REMARK       I    between atoms: C2_10  and  N3_12
REMARK    4  A    between atoms: N3_12  and  C3_14
ROOT
HETATM    1  C3  UNL     1       7.328  19.807  14.990  1.00  0.00     0.178 A
HETATM    2  N4  UNL     1       8.274  18.922  14.622  1.00  0.00    -0.330 N
ATOM      3  H4  UNL     1       9.043  19.249  14.036  1.00  0.00     0.168 HD
HETATM    4  C4  UNL     1       8.256  17.630  14.991  1.00  0.00     0.147 A
HETATM    5  C5  UNL     1       9.236  16.738  14.603  1.00  0.00     0.280 A
HETATM    6  O2  UNL     1      10.173  17.165  13.881  1.00  0.00    -0.265 OA
HETATM    7  N5  UNL     1       9.158  15.447  15.010  1.00  0.00    -0.273 N
ATOM      8  H5  UNL     1       9.873  14.774  14.733  1.00  0.00     0.173 HD
HETATM    9  C6  UNL     1       8.122  15.065  15.785  1.00  0.00     0.328 A
HETATM   10  O3  UNL     1       8.071  13.864  16.149  1.00  0.00    -0.247 OA
HETATM   11  N6  UNL     1       7.164  15.908  16.171  1.00  0.00    -0.292 N
ATOM     12  H6  UNL     1       6.398  15.577  16.757  1.00  0.00     0.172 HD
HETATM   13  C7  UNL     1       7.211  17.200  15.785  1.00  0.00     0.145 A
HETATM   14  N7  UNL     1       6.234  18.061  16.177  1.00  0.00    -0.304 N
ATOM     15  H7  UNL     1       5.468  17.732  16.764  1.00  0.00     0.171 HD
HETATM   16  C8  UNL     1       6.281  19.349  15.792  1.00  0.00     0.291 A
HETATM   17  O4  UNL     1       5.383  20.131  16.157  1.00  0.00    -0.264 OA
ENDROOT
BRANCH   1  18
HETATM   18  N3  UNL     1       7.307  21.034  14.664  1.00  0.00    -0.305 N
HETATM   19  C2  UNL     1       7.117  21.579  13.399  1.00  0.00     0.281 C
HETATM   20  O1  UNL     1       7.829  21.206  12.442  1.00  0.00    -0.269 OA
ATOM     21  H3  UNL     1       7.448  21.701  15.423  1.00  0.00     0.170 HD
BRANCH  19  22
HETATM   22  C1  UNL     1       6.089  22.603  13.126  1.00  0.00     0.468 C
BRANCH  22  23
HETATM   23  N1  UNL     1       5.264  22.805  14.295  1.00  0.00    -0.042 N
ATOM     24  H13 UNL     1       4.674  22.004  14.520  1.00  0.00     0.277 HD
ATOM     25  H12 UNL     1       5.792  22.818  15.168  1.00  0.00     0.277 HD
ATOM     26  H11 UNL     1       4.738  23.663  14.125  1.00  0.00     0.277 HD
ENDBRANCH  22  23
BRANCH  22  27
HETATM   27  N2  UNL     1       6.809  23.867  12.913  1.00  0.00    -0.042 N
ATOM     28  H23 UNL     1       7.185  24.271  13.771  1.00  0.00     0.277 HD
ATOM     29  H22 UNL     1       7.700  23.751  12.430  1.00  0.00     0.277 HD
ATOM     30  H21 UNL     1       6.160  24.484  12.424  1.00  0.00     0.277 HD
ENDBRANCH  22  27
ENDBRANCH  19  22
ENDBRANCH   1  18
TORSDOF 4
ENDMDL