MODEL 5
REMARK VINA RESULT: -6.953488345      1.613      3.663
REMARK  4 active torsions:
REMARK  status: ('A' for Active; 'I' for Inactive)
REMARK    1  A    between atoms: N1_1  and  C1_5
REMARK    2  A    between atoms: C1_5  and  C2_6
REMARK       I    between atoms: C2_6  and  N2_8
REMARK    3  A    between atoms: N2_8  and  N3_10
REMARK    4  A    between atoms: N3_10  and  C3_12
ROOT
HETATM    1  C3  UNL     1       7.824  20.037  13.848  1.00  0.00     0.191 C
HETATM    2  N4  UNL     1       8.861  19.712  13.059  1.00  0.00    -0.321 N
ATOM      3  H4  UNL     1       9.624  19.228  13.531  1.00  0.00     0.169 HD
HETATM    4  C4  UNL     1       9.054  19.926  11.726  1.00  0.00     0.144 A
HETATM    5  N5  UNL     1       9.978  19.320  10.961  1.00  0.00    -0.292 N
ATOM      6  H5  UNL     1      10.649  18.625  11.288  1.00  0.00     0.172 HD
HETATM    7  C5  UNL     1       9.880  19.773   9.700  1.00  0.00     0.326 A
HETATM    8  O2  UNL     1      10.590  19.426   8.704  1.00  0.00    -0.247 OA
HETATM    9  N6  UNL     1       8.871  20.681   9.683  1.00  0.00    -0.301 N
ATOM     10  H6  UNL     1       8.559  21.197   8.861  1.00  0.00     0.171 HD
HETATM   11  C6  UNL     1       8.346  20.794  10.914  1.00  0.00     0.149 A
HETATM   12  C7  UNL     1       7.298  21.630  11.270  1.00  0.00     0.279 C
HETATM   13  O3  UNL     1       7.129  22.609  10.507  1.00  0.00    -0.265 OA
HETATM   14  N7  UNL     1       6.490  21.470  12.325  1.00  0.00    -0.285 N
ATOM     15  H7  UNL     1       5.597  21.962  12.281  1.00  0.00     0.172 HD
HETATM   16  C8  UNL     1       6.707  20.737  13.446  1.00  0.00     0.293 C
HETATM   17  O4  UNL     1       5.743  20.684  14.248  1.00  0.00    -0.264 OA
ENDROOT
BRANCH   1  18
HETATM   18  N3  UNL     1       7.896  19.655  15.079  1.00  0.00    -0.278 N
ATOM     19  H3  UNL     1       7.249  20.026  15.775  1.00  0.00     0.189 HD
BRANCH  18  20
HETATM   20  N2  UNL     1       8.874  18.725  15.444  1.00  0.00    -0.267 N
HETATM   21  C2  UNL     1       8.541  17.453  15.963  1.00  0.00     0.261 C
HETATM   22  O1  UNL     1       7.338  17.123  16.110  1.00  0.00    -0.270 OA
ATOM     23  H2  UNL     1       9.857  18.972  15.333  1.00  0.00     0.190 HD
BRANCH  21  24
HETATM   24  C1  UNL     1       9.590  16.495  16.340  1.00  0.00     0.333 C
BRANCH  24  25
HETATM   25  N1  UNL     1      10.768  17.207  16.767  1.00  0.00    -0.071 N
ATOM     26  H13 UNL     1      10.719  18.201  16.545  1.00  0.00     0.274 HD
ATOM     27  H12 UNL     1      10.822  17.286  17.783  1.00  0.00     0.274 HD
ATOM     28  H11 UNL     1      11.599  16.766  16.372  1.00  0.00     0.274 HD
ENDBRANCH  24  25
ENDBRANCH  21  24
ENDBRANCH  18  20
ENDBRANCH   1  18
TORSDOF 4
ENDMDL