MODEL 1
REMARK VINA RESULT: -6.691737895      0.000      0.000
REMARK  4 active torsions:
REMARK  status: ('A' for Active; 'I' for Inactive)
REMARK    1  A    between atoms: S1_2  and  N1_5
REMARK    2  A    between atoms: N1_5  and  N2_7
REMARK    3  A    between atoms: N2_7  and  C2_9
REMARK    4  A    between atoms: N6_21  and  N7_23
ROOT
HETATM    1  C2  UNL     1       7.605  19.253  14.927  1.00  0.00     0.171 C
HETATM    2  N3  UNL     1       6.615  18.644  15.595  1.00  0.00    -0.290 N
ATOM      3  H3  UNL     1       6.741  17.646  15.760  1.00  0.00     0.172 HD
HETATM    4  C3  UNL     1       5.462  19.185  16.083  1.00  0.00     0.329 C
HETATM    5  O3  UNL     1       4.652  18.389  16.603  1.00  0.00    -0.246 OA
HETATM    6  N4  UNL     1       5.099  20.496  16.061  1.00  0.00    -0.260 N
ATOM      7  H4  UNL     1       4.209  20.694  16.517  1.00  0.00     0.175 HD
HETATM    8  C4  UNL     1       5.710  21.577  15.543  1.00  0.00     0.329 C
HETATM    9  O4  UNL     1       5.267  22.723  15.881  1.00  0.00    -0.246 OA
HETATM   10  N5  UNL     1       6.753  21.550  14.693  1.00  0.00    -0.290 N
ATOM     11  H5  UNL     1       7.005  22.447  14.277  1.00  0.00     0.172 HD
HETATM   12  C5  UNL     1       7.515  20.496  14.314  1.00  0.00     0.170 C
HETATM   13  N6  UNL     1       8.237  20.674  13.262  1.00  0.00    -0.289 N
ATOM     14  H6  UNL     1       8.199  21.574  12.784  1.00  0.00     0.188 HD
ENDROOT
BRANCH   1  15
HETATM   15  N2  UNL     1       8.752  18.679  14.815  1.00  0.00    -0.273 N
ATOM     16  H2  UNL     1       9.185  18.647  13.893  1.00  0.00     0.189 HD
BRANCH  15  17
HETATM   17  N1  UNL     1       9.432  18.102  15.875  1.00  0.00    -0.226 N
ATOM     18  H1  UNL     1      10.070  18.676  16.427  1.00  0.00     0.200 HD
BRANCH  17  19
HETATM   19  S1  UNL     1       9.229  16.447  16.284  1.00  0.00     0.240 S
HETATM   20  C1  UNL     1       9.220  15.406  14.847  1.00  0.00     0.187 C
HETATM   21  O1  UNL     1      10.375  16.013  17.147  1.00  0.00    -0.205 OA
HETATM   22  O2  UNL     1       7.972  16.241  17.056  1.00  0.00    -0.205 OA
ENDBRANCH  17  19
ENDBRANCH  15  17
ENDBRANCH   1  15
BRANCH  13  23
HETATM   23  N7  UNL     1       9.065  19.679  12.760  1.00  0.00    -0.344 N
ATOM     24  H72 UNL     1      10.024  19.930  12.521  1.00  0.00     0.176 HD
ATOM     25  H71 UNL     1       8.741  18.721  12.629  1.00  0.00     0.176 HD
ENDBRANCH  13  23
TORSDOF 4
ENDMDL