MODEL 4
REMARK VINA RESULT: -6.681851013      1.546      2.841
REMARK  4 active torsions:
REMARK  status: ('A' for Active; 'I' for Inactive)
REMARK    1  A    between atoms: C4_4  and  N1_5
REMARK    2  A    between atoms: C5_10  and  N3_11
REMARK    3  A    between atoms: N3_11  and  C6_13
REMARK    4  A    between atoms: N7_24  and  N8_25
ROOT
HETATM    1  C1  UNL     1       6.246  21.272  11.436  1.00  0.00     0.071 C
HETATM    2  C2  UNL     1       7.395  20.535  12.026  1.00  0.00     0.051 A
HETATM    3  C3  UNL     1       8.525  20.203  11.272  1.00  0.00     0.075 A
HETATM    4  C4  UNL     1       9.560  19.518  11.875  1.00  0.00     0.116 A
HETATM    5  N2  UNL     1       9.480  19.176  13.171  1.00  0.00    -0.175 N
ATOM      6  H2  UNL     1      10.251  18.670  13.606  1.00  0.00     0.186 HD
HETATM    7  C5  UNL     1       8.395  19.492  13.907  1.00  0.00     0.705 A
HETATM    8  N7  UNL     1       7.398  20.157  13.310  1.00  0.00    -0.097 N
ENDROOT
BRANCH   7   9
HETATM    9  N3  UNL     1       8.290  19.174  15.164  1.00  0.00    -0.181 N
ATOM     10  H3  UNL     1       8.207  19.906  15.869  1.00  0.00     0.184 HD
BRANCH   9  11
HETATM   11  C6  UNL     1       8.292  17.807  15.558  1.00  0.00     0.158 A
HETATM   12  C7  UNL     1       9.459  17.197  16.019  1.00  0.00     0.153 A
HETATM   13  N4  UNL     1      10.673  17.952  16.098  1.00  0.00    -0.080 NA
HETATM   14  N5  UNL     1       9.404  15.914  16.375  1.00  0.00    -0.295 N
HETATM   15  C8  UNL     1       8.272  15.178  16.310  1.00  0.00     0.328 A
ATOM     16  H5  UNL     1      10.256  15.466  16.711  1.00  0.00     0.172 HD
HETATM   17  O1  UNL     1       8.270  13.955  16.661  1.00  0.00    -0.247 OA
HETATM   18  N6  UNL     1       7.138  15.729  15.876  1.00  0.00    -0.273 N
HETATM   19  C9  UNL     1       7.160  17.023  15.508  1.00  0.00     0.280 A
ATOM     20  H6  UNL     1       6.277  15.184  15.823  1.00  0.00     0.173 HD
HETATM   21  O2  UNL     1       6.074  17.513  15.102  1.00  0.00    -0.265 OA
ENDBRANCH   9  11
ENDBRANCH   7   9
BRANCH   8  22
HETATM   22  N8  UNL     1       6.263  20.492  14.067  1.00  0.00    -0.324 N
ATOM     23  H82 UNL     1       5.411  20.768  13.577  1.00  0.00     0.178 HD
ATOM     24  H81 UNL     1       6.358  20.439  15.081  1.00  0.00     0.178 HD
ENDBRANCH   8  22
BRANCH   4  25
HETATM   25  N1  UNL     1      10.619  19.203  11.175  1.00  0.00    -0.385 N
ATOM     26  H12 UNL     1      11.364  19.886  11.035  1.00  0.00     0.157 HD
ATOM     27  H11 UNL     1      10.696  18.269  10.772  1.00  0.00     0.157 HD
ENDBRANCH   4  25
TORSDOF 4
ENDMDL