MODEL 5
REMARK VINA RESULT: -6.137955562      2.317      2.893
REMARK  3 active torsions:
REMARK  status: ('A' for Active; 'I' for Inactive)
REMARK    1  A    between atoms: C2_2  and  N1_4
REMARK    2  A    between atoms: C2_2  and  S1_8
REMARK    3  A    between atoms: S1_8  and  N2_11
ROOT
HETATM    1  N2  UNL     1       7.764  19.166  13.730  1.00  0.00    -0.264 N
ATOM      2  H2  UNL     1       8.630  19.371  13.231  1.00  0.00     0.180 HD
HETATM    3  C4  UNL     1       7.613  18.048  14.376  1.00  0.00     0.186 A
HETATM    4  N3  UNL     1       6.428  17.728  15.082  1.00  0.00    -0.172 N
ATOM      5  H3  UNL     1       5.649  18.387  15.098  1.00  0.00     0.186 HD
HETATM    6  C5  UNL     1       6.323  16.492  15.768  1.00  0.00     0.680 A
HETATM    7  N4  UNL     1       5.248  16.160  16.430  1.00  0.00    -0.234 N
ATOM      8  H41 UNL     1       5.173  15.270  16.923  1.00  0.00     0.174 HD
ATOM      9  H42 UNL     1       4.454  16.799  16.461  1.00  0.00     0.174 HD
HETATM   10  N5  UNL     1       7.429  15.601  15.724  1.00  0.00    -0.153 N
ATOM     11  H5  UNL     1       7.350  14.713  16.221  1.00  0.00     0.187 HD
HETATM   12  C6  UNL     1       8.644  15.875  15.029  1.00  0.00     0.313 A
HETATM   13  O3  UNL     1       9.613  15.069  15.005  1.00  0.00    -0.263 OA
HETATM   14  C7  UNL     1       8.764  17.142  14.320  1.00  0.00     0.284 A
HETATM   15  O4  UNL     1       9.805  17.446  13.689  1.00  0.00    -0.278 OA
ENDROOT
BRANCH   1  16
HETATM   16  S1  UNL     1       6.463  20.292  13.741  1.00  0.00     0.266 S
HETATM   17  O1  UNL     1       6.388  21.018  15.054  1.00  0.00    -0.203 OA
HETATM   18  O2  UNL     1       5.174  19.627  13.370  1.00  0.00    -0.203 OA
BRANCH  16  19
HETATM   19  C2  UNL     1       6.781  21.529  12.499  1.00  0.00     0.236 C
HETATM   20  C1  UNL     1       7.578  20.908  11.396  1.00  0.00     0.065 C
HETATM   21  C3  UNL     1       5.417  22.024  12.022  1.00  0.00     0.065 C
BRANCH  19  22
HETATM   22  N1  UNL     1       7.445  22.641  13.121  1.00  0.00    -0.055 N
ATOM     23  H13 UNL     1       8.249  22.327  13.664  1.00  0.00     0.276 HD
ATOM     24  H12 UNL     1       7.925  23.213  12.426  1.00  0.00     0.276 HD
ATOM     25  H11 UNL     1       6.823  23.212  13.693  1.00  0.00     0.276 HD
ENDBRANCH  19  22
ENDBRANCH  16  19
ENDBRANCH   1  16
TORSDOF 3
ENDMDL