MODEL 2
REMARK VINA RESULT: -6.189246517      1.009      1.009
REMARK  2 active torsions:
REMARK  status: ('A' for Active; 'I' for Inactive)
REMARK       I    between atoms: N1_2  and  C2_4
REMARK    1  A    between atoms: C2_4  and  C3_6
REMARK    2  A    between atoms: C4_7  and  C5_8
REMARK       I    between atoms: N5_17  and  C8_18
ROOT
HETATM    1  C3  UNL     1       6.268  16.887  14.998  1.00  0.00     0.134 A
HETATM    2  C4  UNL     1       5.875  18.202  14.963  1.00  0.00     0.103 A
HETATM    3  C6  UNL     1       6.801  19.205  14.628  1.00  0.00     0.138 A
HETATM    4  N3  UNL     1       6.390  20.549  14.595  1.00  0.00    -0.081 NA
HETATM    5  N4  UNL     1       8.049  18.826  14.352  1.00  0.00    -0.295 N
ATOM      6  H4  UNL     1       8.733  19.542  14.106  1.00  0.00     0.171 HD
HETATM    7  C7  UNL     1       8.441  17.548  14.384  1.00  0.00     0.336 A
HETATM    8  O3  UNL     1       9.619  17.206  14.123  1.00  0.00    -0.246 OA
HETATM    9  N5  UNL     1       7.559  16.550  14.707  1.00  0.00    -0.211 N
HETATM   10  C8  UNL     1       8.011  15.209  14.741  1.00  0.00     0.344 C
HETATM   11  N6  UNL     1       9.398  14.919  14.414  1.00  0.00    -0.039 NA
HETATM   12  O4  UNL     1       7.264  14.272  15.039  1.00  0.00    -0.250 OA
ENDROOT
BRANCH   1  13
HETATM   13  C2  UNL     1       5.342  15.837  15.325  1.00  0.00     0.269 C
HETATM   14  N1  UNL     1       5.215  15.316  16.636  1.00  0.00    -0.360 N
HETATM   15  C1  UNL     1       4.279  14.260  16.959  1.00  0.00     0.149 C
ATOM     16  H1  UNL     1       5.803  15.699  17.377  1.00  0.00     0.162 HD
HETATM   17  O1  UNL     1       4.615  15.359  14.427  1.00  0.00    -0.266 OA
ENDBRANCH   1  13
BRANCH   2  18
HETATM   18  C5  UNL     1       4.553  18.629  15.259  1.00  0.00     0.270 C
HETATM   19  N2  UNL     1       3.545  18.873  14.327  1.00  0.00    -0.057 NA
HETATM   20  O2  UNL     1       4.209  18.821  16.486  1.00  0.00    -0.271 OA
ENDBRANCH   2  18
TORSDOF 2
ENDMDL