MODEL 2
REMARK VINA RESULT: -6.810434128      1.644      4.346
REMARK  6 active torsions:
REMARK  status: ('A' for Active; 'I' for Inactive)
REMARK    1  A    between atoms: N1_1  and  C1_4
REMARK    2  A    between atoms: C2_7  and  N3_8
REMARK    3  A    between atoms: N3_8  and  C3_10
REMARK    4  A    between atoms: C3_10  and  C4_11
REMARK    5  A    between atoms: C4_11  and  N4_12
REMARK    6  A    between atoms: C9_23  and  N5_24
ROOT
HETATM    1  C1  UNL     1       6.825  19.854  14.682  1.00  0.00     0.678 A
HETATM    2  N2  UNL     1       5.830  19.238  15.325  1.00  0.00    -0.176 N
ATOM      3  H2  UNL     1       5.039  19.792  15.653  1.00  0.00     0.186 HD
HETATM    4  C2  UNL     1       5.833  17.912  15.555  1.00  0.00     0.133 A
HETATM    5  C5  UNL     1       6.926  17.191  15.093  1.00  0.00     0.092 A
HETATM    6  C6  UNL     1       6.937  15.826  15.327  1.00  0.00     0.242 A
HETATM    7  O1  UNL     1       5.976  15.276  15.940  1.00  0.00    -0.283 OA
HETATM    8  C7  UNL     1       8.002  15.101  14.881  1.00  0.00     0.274 A
HETATM    9  O2  UNL     1       8.037  13.860  15.080  1.00  0.00    -0.280 OA
HETATM   10  C8  UNL     1       9.042  15.697  14.217  1.00  0.00     0.254 A
HETATM   11  O3  UNL     1      10.026  14.998  13.810  1.00  0.00    -0.281 OA
HETATM   12  C9  UNL     1       9.070  17.074  13.961  1.00  0.00     0.109 A
HETATM   13  C10 UNL     1       7.980  17.803  14.420  1.00  0.00     0.097 A
HETATM   14  N6  UNL     1       7.896  19.131  14.232  1.00  0.00    -0.189 N
ATOM     15  H6  UNL     1       8.650  19.613  13.742  1.00  0.00     0.184 HD
ENDROOT
BRANCH   4  16
HETATM   16  N3  UNL     1       4.884  17.298  16.173  1.00  0.00    -0.373 N
ATOM     17  H3  UNL     1       5.020  16.366  16.565  1.00  0.00     0.161 HD
BRANCH  16  18
HETATM   18  C3  UNL     1       3.615  17.986  16.290  1.00  0.00     0.148 C
BRANCH  18  19
HETATM   19  C4  UNL     1       2.554  17.077  16.884  1.00  0.00     0.249 C
BRANCH  19  20
HETATM   20  N4  UNL     1       3.062  15.709  17.005  1.00  0.00    -0.078 N
ATOM     21  H43 UNL     1       2.800  15.134  16.204  1.00  0.00     0.274 HD
ATOM     22  H42 UNL     1       4.075  15.669  16.895  1.00  0.00     0.274 HD
ATOM     23  H41 UNL     1       2.759  15.293  17.885  1.00  0.00     0.274 HD
ENDBRANCH  19  20
ENDBRANCH  18  19
ENDBRANCH  16  18
ENDBRANCH   4  16
BRANCH   1  24
HETATM   24  N1  UNL     1       6.806  21.126  14.469  1.00  0.00    -0.234 N
ATOM     25  H12 UNL     1       6.042  21.676  14.864  1.00  0.00     0.174 HD
ATOM     26  H11 UNL     1       7.532  21.587  13.921  1.00  0.00     0.174 HD
ENDBRANCH   1  24
BRANCH  12  27
HETATM   27  N5  UNL     1      10.047  17.595  13.344  1.00  0.00    -0.394 N
ATOM     28  H52 UNL     1      10.914  17.096  13.144  1.00  0.00     0.156 HD
ATOM     29  H51 UNL     1       9.999  18.560  13.016  1.00  0.00     0.156 HD
ENDBRANCH  12  27
TORSDOF 6
ENDMDL