MODEL 2
REMARK VINA RESULT: -7.427557105      1.599      3.409
REMARK  3 active torsions:
REMARK  status: ('A' for Active; 'I' for Inactive)
REMARK    1  A    between atoms: C2_5  and  C3_6
REMARK    2  A    between atoms: C4_11  and  C5_12
REMARK       I    between atoms: C5_12  and  N5_14
REMARK    3  A    between atoms: N5_14  and  C6_16
ROOT
HETATM    1  C1  UNL     1       5.073  12.215  15.428  1.00  0.00     0.181 C
HETATM    2  N1  UNL     1       5.661  13.554  15.484  1.00  0.00    -0.261 N
HETATM    3  N2  UNL     1       5.058  14.713  15.355  1.00  0.00    -0.292 N
ATOM      4  H2  UNL     1       4.058  14.829  15.191  1.00  0.00     0.187 HD
HETATM    5  C2  UNL     1       5.953  15.747  15.470  1.00  0.00     0.110 A
HETATM    6  C4  UNL     1       7.165  15.179  15.680  1.00  0.00     0.133 A
HETATM    7  C7  UNL     1       6.957  13.773  15.686  1.00  0.00     0.279 A
HETATM    8  O2  UNL     1       7.855  12.923  15.854  1.00  0.00    -0.265 OA
ENDROOT
BRANCH   6   9
HETATM    9  C5  UNL     1       8.441  15.812  15.867  1.00  0.00     0.278 C
HETATM   10  O1  UNL     1       8.930  16.191  16.917  1.00  0.00    -0.266 OA
HETATM   11  N5  UNL     1       9.254  16.037  14.709  1.00  0.00    -0.152 N
ATOM     12  H5  UNL     1       9.846  15.280  14.365  1.00  0.00     0.187 HD
BRANCH  11  13
HETATM   13  C6  UNL     1       9.260  17.165  14.089  1.00  0.00     0.716 A
HETATM   14  N6  UNL     1       8.392  18.178  14.322  1.00  0.00    -0.115 N
HETATM   15  N7  UNL     1       8.685  19.182  13.512  1.00  0.00    -0.213 N
ATOM     16  H6  UNL     1       7.638  18.169  15.009  1.00  0.00     0.207 HD
HETATM   17  N8  UNL     1       9.715  18.806  12.785  1.00  0.00    -0.213 N
ATOM     18  H7  UNL     1       8.204  20.079  13.460  1.00  0.00     0.210 HD
HETATM   19  N9  UNL     1      10.094  17.567  13.116  1.00  0.00    -0.115 N
ATOM     20  H8  UNL     1      10.161  19.378  12.069  1.00  0.00     0.210 HD
ATOM     21  H9  UNL     1      10.864  17.035  12.712  1.00  0.00     0.207 HD
ENDBRANCH  11  13
ENDBRANCH   6   9
BRANCH   5  22
HETATM   22  C3  UNL     1       5.524  17.138  15.362  1.00  0.00     0.139 C
HETATM   23  N3  UNL     1       5.089  17.730  16.461  1.00  0.00    -0.386 N
ATOM     24  H32 UNL     1       5.102  17.134  17.288  1.00  0.00     0.157 HD
ATOM     25  H31 UNL     1       4.789  18.702  16.385  1.00  0.00     0.157 HD
HETATM   26  N4  UNL     1       5.507  17.948  14.237  1.00  0.00    -0.081 NA
ENDBRANCH   5  22
TORSDOF 3
ENDMDL