MODEL 5
REMARK VINA RESULT: -5.983755225      2.375      3.871
REMARK  4 active torsions:
REMARK  status: ('A' for Active; 'I' for Inactive)
REMARK    1  A    between atoms: N1_1  and  N2_4
REMARK       I    between atoms: N2_4  and  C1_6
REMARK    2  A    between atoms: C1_6  and  C2_8
REMARK    3  A    between atoms: C3_9  and  S1_10
REMARK    4  A    between atoms: S1_10  and  N3_11
ROOT
HETATM    1  C2  UNL     1       6.478  15.627  15.311  1.00  0.00     0.141 A
HETATM    2  C3  UNL     1       6.549  17.007  15.096  1.00  0.00     0.174 A
HETATM    3  N4  UNL     1       7.708  17.553  14.634  1.00  0.00    -0.296 N
ATOM      4  H4  UNL     1       7.761  18.559  14.476  1.00  0.00     0.171 HD
HETATM    5  C4  UNL     1       8.765  16.802  14.388  1.00  0.00     0.328 A
HETATM    6  O4  UNL     1       9.822  17.374  13.958  1.00  0.00    -0.247 OA
HETATM    7  N5  UNL     1       8.764  15.484  14.570  1.00  0.00    -0.275 N
ATOM      8  H5  UNL     1       9.595  14.927  14.372  1.00  0.00     0.173 HD
HETATM    9  C5  UNL     1       7.620  14.897  15.032  1.00  0.00     0.268 A
HETATM   10  O5  UNL     1       7.703  13.652  15.174  1.00  0.00    -0.267 OA
ENDROOT
BRANCH   1  11
HETATM   11  C1  UNL     1       5.260  14.966  15.764  1.00  0.00     0.278 C
HETATM   12  N2  UNL     1       5.050  14.485  17.069  1.00  0.00    -0.272 N
ATOM     13  H2  UNL     1       5.776  14.589  17.779  1.00  0.00     0.189 HD
HETATM   14  O1  UNL     1       4.261  14.773  14.982  1.00  0.00    -0.266 OA
BRANCH  12  15
HETATM   15  N1  UNL     1       3.829  13.856  17.388  1.00  0.00    -0.342 N
ATOM     16  H12 UNL     1       3.514  13.064  16.828  1.00  0.00     0.176 HD
ATOM     17  H11 UNL     1       3.277  14.202  18.174  1.00  0.00     0.176 HD
ENDBRANCH  12  15
ENDBRANCH   1  11
BRANCH   2  18
HETATM   18  S1  UNL     1       5.192  18.060  15.414  1.00  0.00     0.273 S
HETATM   19  O2  UNL     1       4.083  17.945  14.415  1.00  0.00    -0.199 OA
HETATM   20  O3  UNL     1       5.687  19.509  15.203  1.00  0.00    -0.199 OA
BRANCH  18  21
HETATM   21  N3  UNL     1       4.595  18.014  16.982  1.00  0.00    -0.323 N
ATOM     22  H32 UNL     1       5.008  17.406  17.690  1.00  0.00     0.169 HD
ATOM     23  H31 UNL     1       3.804  18.630  17.169  1.00  0.00     0.169 HD
ENDBRANCH  18  21
ENDBRANCH   2  18
TORSDOF 4
ENDMDL