MODEL 2
REMARK VINA RESULT: -6.974829426      2.867      6.546
REMARK  2 active torsions:
REMARK  status: ('A' for Active; 'I' for Inactive)
REMARK    1  A    between atoms: C2_2  and  C4_10
REMARK    2  A    between atoms: N1_3  and  N2_5
REMARK       I    between atoms: C4_10  and  N5_12
ROOT
HETATM    1  C4  UNL     1       7.203  19.541  14.143  1.00  0.00     0.269 C
HETATM    2  O1  UNL     1       6.478  20.164  14.940  1.00  0.00    -0.266 OA
HETATM    3  N5  UNL     1       8.125  18.605  14.615  1.00  0.00    -0.313 N
ATOM      4  H5  UNL     1       9.085  18.931  14.724  1.00  0.00     0.169 HD
HETATM    5  C5  UNL     1       7.904  17.395  14.924  1.00  0.00     0.173 A
HETATM    6  C6  UNL     1       9.014  16.580  15.400  1.00  0.00     0.292 A
HETATM    7  O2  UNL     1      10.162  17.123  15.484  1.00  0.00    -0.265 OA
HETATM    8  N6  UNL     1       8.849  15.217  15.767  1.00  0.00    -0.154 N
ATOM      9  H6  UNL     1       9.653  14.681  16.095  1.00  0.00     0.187 HD
HETATM   10  C7  UNL     1       7.581  14.595  15.681  1.00  0.00     0.681 A
HETATM   11  N7  UNL     1       7.434  13.336  16.020  1.00  0.00    -0.234 N
ATOM     12  H71 UNL     1       6.520  12.888  15.958  1.00  0.00     0.174 HD
ATOM     13  H72 UNL     1       8.220  12.777  16.352  1.00  0.00     0.174 HD
HETATM   14  N8  UNL     1       6.484  15.376  15.217  1.00  0.00    -0.154 N
ATOM     15  H8  UNL     1       5.568  14.934  15.152  1.00  0.00     0.187 HD
HETATM   16  C8  UNL     1       6.604  16.743  14.839  1.00  0.00     0.292 A
HETATM   17  O3  UNL     1       5.638  17.436  14.430  1.00  0.00    -0.265 OA
ENDROOT
BRANCH   1  18
HETATM   18  C2  UNL     1       7.083  19.795  12.725  1.00  0.00     0.089 C
HETATM   19  C1  UNL     1       5.779  19.667  12.036  1.00  0.00     0.076 C
HETATM   20  N1  UNL     1       8.134  20.146  12.025  1.00  0.00    -0.298 N
ATOM     21  H1  UNL     1       9.037  20.237  12.491  1.00  0.00     0.187 HD
BRANCH  20  22
HETATM   22  N2  UNL     1       8.046  20.393  10.674  1.00  0.00    -0.276 N
HETATM   23  C3  UNL     1       8.895  19.879   9.852  1.00  0.00     0.215 C
HETATM   24  N3  UNL     1       8.841  20.110   8.452  1.00  0.00    -0.065 NA
HETATM   25  N4  UNL     1       9.940  19.043  10.348  1.00  0.00    -0.065 NA
ATOM     26  H2  UNL     1       7.299  20.991  10.319  1.00  0.00     0.189 HD
ENDBRANCH  20  22
ENDBRANCH   1  18
TORSDOF 2
ENDMDL