MODEL 4
REMARK VINA RESULT: -6.717840517      1.719      3.529
REMARK  4 active torsions:
REMARK  status: ('A' for Active; 'I' for Inactive)
REMARK    1  A    between atoms: N1_1  and  C1_5
REMARK    2  A    between atoms: C1_5  and  C2_6
REMARK    3  A    between atoms: C2_6  and  N2_7
REMARK    4  A    between atoms: N2_7  and  C3_9
ROOT
HETATM    1  C3  UNL     1       7.583  18.939  14.103  1.00  0.00     0.679 A
HETATM    2  N3  UNL     1       7.872  19.170  12.815  1.00  0.00    -0.184 N
ATOM      3  H3  UNL     1       8.358  18.520  12.198  1.00  0.00     0.184 HD
HETATM    4  C4  UNL     1       7.421  20.392  12.456  1.00  0.00     0.148 A
HETATM    5  C5  UNL     1       7.629  20.800  11.165  1.00  0.00     0.279 C
HETATM    6  O1  UNL     1       8.545  20.154  10.600  1.00  0.00    -0.265 OA
HETATM    7  N4  UNL     1       7.059  21.740  10.383  1.00  0.00    -0.273 N
ATOM      8  H4  UNL     1       7.124  21.527   9.387  1.00  0.00     0.173 HD
HETATM    9  C6  UNL     1       6.425  22.894  10.635  1.00  0.00     0.330 C
HETATM   10  O2  UNL     1       6.188  23.540   9.568  1.00  0.00    -0.246 OA
HETATM   11  N5  UNL     1       5.987  23.523  11.748  1.00  0.00    -0.272 N
ATOM     12  H5  UNL     1       5.635  24.456  11.534  1.00  0.00     0.174 HD
HETATM   13  C7  UNL     1       5.890  23.250  13.062  1.00  0.00     0.302 C
HETATM   14  O3  UNL     1       5.416  24.191  13.754  1.00  0.00    -0.264 OA
HETATM   15  C8  UNL     1       6.206  22.137  13.818  1.00  0.00     0.269 C
HETATM   16  O4  UNL     1       5.849  22.217  15.017  1.00  0.00    -0.280 OA
HETATM   17  C9  UNL     1       6.830  20.934  13.582  1.00  0.00     0.137 A
HETATM   18  N6  UNL     1       6.942  20.024  14.578  1.00  0.00    -0.185 N
ATOM     19  H6  UNL     1       6.598  20.140  15.531  1.00  0.00     0.184 HD
ENDROOT
BRANCH   1  20
HETATM   20  N2  UNL     1       7.880  17.867  14.741  1.00  0.00    -0.224 N
ATOM     21  H2  UNL     1       7.233  17.491  15.436  1.00  0.00     0.177 HD
BRANCH  20  22
HETATM   22  C2  UNL     1       9.129  17.190  14.477  1.00  0.00     0.165 C
BRANCH  22  23
HETATM   23  C1  UNL     1       9.816  16.740  15.752  1.00  0.00     0.249 C
BRANCH  23  24
HETATM   24  N1  UNL     1      11.006  17.556  15.910  1.00  0.00    -0.078 N
ATOM     25  H13 UNL     1      11.835  17.139  15.485  1.00  0.00     0.274 HD
ATOM     26  H12 UNL     1      10.985  18.407  15.349  1.00  0.00     0.274 HD
ATOM     27  H11 UNL     1      11.117  17.737  16.907  1.00  0.00     0.274 HD
ENDBRANCH  23  24
ENDBRANCH  22  23
ENDBRANCH  20  22
ENDBRANCH   1  20
TORSDOF 4
ENDMDL