MODEL 2
REMARK VINA RESULT: -5.731128919      2.379      2.963
REMARK  3 active torsions:
REMARK  status: ('A' for Active; 'I' for Inactive)
REMARK       I    between atoms: N1_2  and  C3_5
REMARK    1  A    between atoms: C3_5  and  C4_7
REMARK    2  A    between atoms: C5_8  and  C6_9
REMARK       I    between atoms: C6_9  and  N3_11
REMARK    3  A    between atoms: N3_11  and  N4_13
ROOT
HETATM    1  C1  UNL     1       4.102  17.838  13.261  1.00  0.00     0.172 C
HETATM    2  N1  UNL     1       4.001  18.243  14.651  1.00  0.00    -0.255 N
HETATM    3  C2  UNL     1       2.887  19.013  15.002  1.00  0.00     0.186 C
HETATM    4  N2  UNL     1       1.954  19.642  15.307  1.00  0.00    -0.172 NA
HETATM    5  C3  UNL     1       4.998  17.866  15.601  1.00  0.00     0.274 C
HETATM    6  O1  UNL     1       4.841  18.262  16.785  1.00  0.00    -0.266 OA
ENDROOT
BRANCH   5   7
HETATM    7  C4  UNL     1       6.154  17.067  15.250  1.00  0.00     0.133 A
HETATM    8  C5  UNL     1       6.163  15.691  15.334  1.00  0.00     0.127 A
HETATM    9  N5  UNL     1       7.279  14.985  14.982  1.00  0.00    -0.303 N
HETATM   10  C7  UNL     1       8.377  15.607  14.553  1.00  0.00     0.327 A
ATOM     11  H5  UNL     1       7.272  13.968  15.049  1.00  0.00     0.171 HD
HETATM   12  O3  UNL     1       9.393  14.907  14.236  1.00  0.00    -0.247 OA
HETATM   13  N6  UNL     1       8.383  16.945  14.466  1.00  0.00    -0.275 N
HETATM   14  C8  UNL     1       7.313  17.681  14.800  1.00  0.00     0.267 A
ATOM     15  H6  UNL     1       9.226  17.416  14.137  1.00  0.00     0.173 HD
HETATM   16  O4  UNL     1       7.390  18.930  14.694  1.00  0.00    -0.267 OA
BRANCH   8  17
HETATM   17  C6  UNL     1       4.983  14.990  15.806  1.00  0.00     0.287 C
HETATM   18  O2  UNL     1       3.995  14.810  15.048  1.00  0.00    -0.264 OA
HETATM   19  N3  UNL     1       4.868  14.474  17.123  1.00  0.00    -0.271 N
ATOM     20  H3  UNL     1       5.640  14.592  17.779  1.00  0.00     0.189 HD
BRANCH  19  21
HETATM   21  N4  UNL     1       3.701  13.801  17.535  1.00  0.00    -0.342 N
ATOM     22  H42 UNL     1       3.352  13.033  16.961  1.00  0.00     0.176 HD
ATOM     23  H41 UNL     1       3.214  14.075  18.388  1.00  0.00     0.176 HD
ENDBRANCH  19  21
ENDBRANCH   8  17
ENDBRANCH   5   7
TORSDOF 3
ENDMDL