MODEL 5
REMARK VINA RESULT: -6.376005733      3.198      5.657
REMARK  4 active torsions:
REMARK  status: ('A' for Active; 'I' for Inactive)
REMARK    1  A    between atoms: N1_1  and  N2_4
REMARK       I    between atoms: N2_4  and  C1_6
REMARK    2  A    between atoms: C1_6  and  C2_8
REMARK       I    between atoms: C2_8  and  N3_10
REMARK    3  A    between atoms: N3_10  and  C3_12
REMARK    4  A    between atoms: C5_19  and  S1_20
ROOT
HETATM    1  C3  UNL     1       7.148  17.966  14.407  1.00  0.00     0.154 A
HETATM    2  N4  UNL     1       7.271  18.915  13.484  1.00  0.00    -0.292 N
ATOM      3  H4  UNL     1       6.501  19.488  13.140  1.00  0.00     0.172 HD
HETATM    4  C4  UNL     1       8.561  19.021  13.059  1.00  0.00     0.327 A
HETATM    5  O3  UNL     1       9.040  19.802  12.204  1.00  0.00    -0.247 OA
HETATM    6  N5  UNL     1       9.277  18.110  13.735  1.00  0.00    -0.294 N
ATOM      7  H5  UNL     1      10.279  17.944  13.641  1.00  0.00     0.171 HD
HETATM    8  C5  UNL     1       8.441  17.458  14.559  1.00  0.00     0.199 A
ENDROOT
BRANCH   1   9
HETATM    9  N3  UNL     1       6.050  17.474  15.146  1.00  0.00    -0.302 N
HETATM   10  C2  UNL     1       5.099  18.292  15.809  1.00  0.00     0.316 C
HETATM   11  O2  UNL     1       5.227  19.538  15.748  1.00  0.00    -0.262 OA
ATOM     12  H3  UNL     1       5.932  16.462  15.207  1.00  0.00     0.171 HD
BRANCH  10  13
HETATM   13  C1  UNL     1       3.986  17.700  16.557  1.00  0.00     0.327 C
HETATM   14  N2  UNL     1       3.766  16.301  16.592  1.00  0.00    -0.268 N
ATOM     15  H2  UNL     1       4.402  15.687  16.082  1.00  0.00     0.190 HD
HETATM   16  O1  UNL     1       3.223  18.480  17.172  1.00  0.00    -0.261 OA
BRANCH  14  17
HETATM   17  N1  UNL     1       2.706  15.739  17.305  1.00  0.00    -0.342 N
ATOM     18  H12 UNL     1       1.779  15.757  16.879  1.00  0.00     0.176 HD
ATOM     19  H11 UNL     1       2.837  15.320  18.225  1.00  0.00     0.176 HD
ENDBRANCH  14  17
ENDBRANCH  10  13
ENDBRANCH   1   9
BRANCH   8  20
HETATM   20  S1  UNL     1       8.955  16.178  15.633  1.00  0.00     0.158 S
HETATM   21  O4  UNL     1       9.387  15.022  14.741  1.00  0.00    -0.590 OA
HETATM   22  O5  UNL     1       7.856  15.672  16.490  1.00  0.00    -0.590 OA
HETATM   23  O6  UNL     1      10.259  16.634  16.556  1.00  0.00    -0.590 OA
ENDBRANCH   8  20
TORSDOF 4
ENDMDL