MODEL 1
REMARK VINA RESULT: -7.333376659      0.000      0.000
REMARK  3 active torsions:
REMARK  status: ('A' for Active; 'I' for Inactive)
REMARK       I    between atoms: N1_1  and  C1_4
REMARK       I    between atoms: C1_4  and  N3_6
REMARK       I    between atoms: N3_6  and  C2_8
REMARK    1  A    between atoms: C2_8  and  C3_10
REMARK    2  A    between atoms: C3_10  and  C4_11
REMARK    3  A    between atoms: N8_24  and  O3_25
ROOT
HETATM    1  C4  UNL     1       8.673  17.602  14.540  1.00  0.00     0.138 A
HETATM    2  N4  UNL     1       7.576  18.243  14.978  1.00  0.00    -0.335 N
ATOM      3  H4  UNL     1       7.110  17.929  15.829  1.00  0.00     0.167 HD
HETATM    4  C5  UNL     1       7.091  19.294  14.299  1.00  0.00     0.151 A
HETATM    5  C6  UNL     1       6.042  20.163  14.423  1.00  0.00     0.290 A
HETATM    6  O2  UNL     1       5.208  20.111  15.370  1.00  0.00    -0.264 OA
HETATM    7  N5  UNL     1       6.086  21.027  13.393  1.00  0.00    -0.263 N
ATOM      8  H5  UNL     1       5.429  21.789  13.225  1.00  0.00     0.190 HD
HETATM    9  N6  UNL     1       7.123  20.720  12.640  1.00  0.00    -0.280 N
ATOM     10  H6  UNL     1       7.391  21.218  11.790  1.00  0.00     0.189 HD
HETATM   11  C7  UNL     1       7.776  19.666  13.145  1.00  0.00     0.169 A
HETATM   12  N7  UNL     1       8.871  19.010  12.725  1.00  0.00    -0.254 N
ATOM     13  H7  UNL     1       9.351  19.307  11.875  1.00  0.00     0.191 HD
HETATM   14  N8  UNL     1       9.323  17.980  13.418  1.00  0.00    -0.148 N
ENDROOT
BRANCH   1  15
HETATM   15  C3  UNL     1       9.164  16.458  15.316  1.00  0.00     0.184 C
BRANCH  15  16
HETATM   16  C2  UNL     1       8.580  15.182  14.908  1.00  0.00     0.231 C
HETATM   17  N3  UNL     1       7.542  14.523  15.704  1.00  0.00    -0.301 N
HETATM   18  C1  UNL     1       7.018  13.354  15.308  1.00  0.00     0.188 C
ATOM     19  H3  UNL     1       7.215  14.956  16.568  1.00  0.00     0.171 HD
HETATM   20  N1  UNL     1       6.531  12.274  14.948  1.00  0.00    -0.373 N
HETATM   21  N2  UNL     1       5.961  13.265  16.704  1.00  0.00    -0.064 NA
ATOM     22  H12 UNL     1       6.132  11.384  14.647  1.00  0.00     0.158 HD
ATOM     23  H11 UNL     1       7.146  12.325  14.137  1.00  0.00     0.158 HD
HETATM   24  O1  UNL     1       8.956  14.616  13.855  1.00  0.00    -0.273 OA
ENDBRANCH  15  16
ENDBRANCH   1  15
BRANCH  14  25
HETATM   25  O3  UNL     1      10.431  17.261  13.055  1.00  0.00    -0.267 OA
ATOM     26  H3  UNL     1      10.761  17.379  12.172  1.00  0.00     0.247 HD
ENDBRANCH  14  25
TORSDOF 3
ENDMDL