MODEL 3
REMARK VINA RESULT: -7.386249835      2.328      3.137
REMARK  4 active torsions:
REMARK  status: ('A' for Active; 'I' for Inactive)
REMARK    1  A    between atoms: C2_2  and  C4_4
REMARK    2  A    between atoms: C8_8  and  O1_9
REMARK    3  A    between atoms: C15_18  and  O3_19
REMARK    4  A    between atoms: N1_24  and  O4_25
ROOT
HETATM    1  C4  UNL     1      20.237   4.206  36.819  1.00  0.00     0.051 C
HETATM    2  C5  UNL     1      18.785   4.291  36.527  1.00  0.00     0.013 C
HETATM    3  C6  UNL     1      18.717   3.672  35.141  1.00  0.00     0.011 C
HETATM    4  C7  UNL     1      19.888   4.202  34.410  1.00  0.00     0.058 C
HETATM    5  C8  UNL     1      20.965   4.345  35.496  1.00  0.00     0.100 C
HETATM    6  C9  UNL     1      21.349   5.770  35.328  1.00  0.00     0.183 C
HETATM    7  O2  UNL     1      20.115   6.371  35.003  1.00  0.00    -0.369 OA
HETATM    8  C10 UNL     1      19.784   5.576  33.890  1.00  0.00     0.074 C
HETATM    9  C11 UNL     1      18.545   5.960  33.214  1.00  0.00     0.047 C
HETATM   10  C12 UNL     1      21.008   5.866  33.006  1.00  0.00     0.015 C
HETATM   11  C13 UNL     1      21.131   4.670  32.098  1.00  0.00     0.020 C
HETATM   12  C14 UNL     1      20.772   7.073  32.139  1.00  0.00     0.048 C
HETATM   13  C15 UNL     1      22.071   7.741  31.818  1.00  0.00     0.148 C
HETATM   14  C16 UNL     1      22.733   8.168  33.090  1.00  0.00     0.073 C
HETATM   15  C17 UNL     1      22.173   9.519  33.553  1.00  0.00     0.043 C
HETATM   16  C18 UNL     1      24.203   8.451  32.748  1.00  0.00     0.043 C
HETATM   17  N1  UNL     1      22.687   7.273  34.156  1.00  0.00    -0.277 N
HETATM   18  C19 UNL     1      22.088   6.014  34.001  1.00  0.00     0.152 C
ENDROOT
BRANCH   1  19
HETATM   19  C2  UNL     1      20.696   3.039  37.581  1.00  0.00    -0.086 C
HETATM   20  C1  UNL     1      20.016   1.919  37.771  1.00  0.00     0.014 C
HETATM   21  C3  UNL     1      22.065   3.128  38.213  1.00  0.00     0.043 C
ENDBRANCH   1  19
BRANCH   5  22
HETATM   22  O1  UNL     1      21.983   3.448  35.325  1.00  0.00    -0.386 OA
ATOM     23  H1  UNL     1      22.493   3.589  34.536  1.00  0.00     0.210 HD
ENDBRANCH   5  22
BRANCH  17  24
HETATM   24  O4  UNL     1      23.850   7.142  34.842  1.00  0.00    -0.291 OA
ATOM     25  H4  UNL     1      24.035   7.847  35.452  1.00  0.00     0.244 HD
ENDBRANCH  17  24
BRANCH  13  26
HETATM   26  O3  UNL     1      22.964   6.950  31.127  1.00  0.00    -0.393 OA
ATOM     27  H3  UNL     1      23.606   7.433  30.621  1.00  0.00     0.210 HD
ENDBRANCH  13  26
TORSDOF 4
ENDMDL