MODEL 4
REMARK VINA RESULT: -4.530018448      1.855      4.552
REMARK  4 active torsions:
REMARK  status: ('A' for Active; 'I' for Inactive)
REMARK    1  A    between atoms: C2_2  and  C3_3
REMARK    2  A    between atoms: C10_10  and  O1_11
REMARK    3  A    between atoms: C15_19  and  O4_20
REMARK    4  A    between atoms: C16_22  and  O5_23
ROOT
HETATM    1  C3  UNL     1      22.427   5.357  33.342  1.00  0.00     0.036 C
HETATM    2  C4  UNL     1      22.847   6.696  32.921  1.00  0.00    -0.024 A
HETATM    3  C5  UNL     1      23.312   7.104  31.594  1.00  0.00     0.012 A
HETATM    4  C6  UNL     1      21.929   7.481  31.974  1.00  0.00     0.012 A
HETATM    5  C7  UNL     1      23.338   7.419  34.151  1.00  0.00    -0.005 C
HETATM    6  C8  UNL     1      23.145   8.934  33.901  1.00  0.00     0.019 C
HETATM    7  C9  UNL     1      22.614   7.160  35.409  1.00  0.00     0.053 C
HETATM    8  C10 UNL     1      22.105   5.783  35.708  1.00  0.00     0.096 C
HETATM    9  C11 UNL     1      22.625   5.185  37.015  1.00  0.00     0.077 C
HETATM   10  C12 UNL     1      23.326   3.846  36.803  1.00  0.00     0.171 C
HETATM   11  O2  UNL     1      22.452   3.118  35.997  1.00  0.00    -0.234 OA
HETATM   12  O3  UNL     1      22.464   3.635  34.834  1.00  0.00    -0.225 OA
HETATM   13  C13 UNL     1      22.919   4.933  34.698  1.00  0.00     0.138 C
HETATM   14  C14 UNL     1      24.286   5.194  35.143  1.00  0.00     0.068 C
HETATM   15  C15 UNL     1      25.269   5.794  34.259  1.00  0.00     0.155 C
HETATM   16  C16 UNL     1      24.838   7.277  34.194  1.00  0.00     0.156 C
HETATM   17  C17 UNL     1      24.613   3.962  35.965  1.00  0.00    -0.009 C
HETATM   18  C18 UNL     1      24.900   2.759  35.168  1.00  0.00     0.018 C
HETATM   19  C19 UNL     1      25.737   4.172  36.955  1.00  0.00     0.018 C
ENDROOT
BRANCH   1  20
HETATM   20  C2  UNL     1      22.352   4.233  32.386  1.00  0.00     0.004 C
HETATM   21  C1  UNL     1      21.211   4.222  31.407  1.00  0.00     0.005 C
ENDBRANCH   1  20
BRANCH   8  22
HETATM   22  O1  UNL     1      20.763   5.614  35.530  1.00  0.00    -0.386 OA
ATOM     23  H1  UNL     1      20.369   6.188  34.883  1.00  0.00     0.210 HD
ENDBRANCH   8  22
BRANCH  16  24
HETATM   24  O5  UNL     1      25.543   8.012  33.305  1.00  0.00    -0.392 OA
ATOM     25  H5  UNL     1      25.060   8.378  32.573  1.00  0.00     0.210 HD
ENDBRANCH  16  24
BRANCH  15  26
HETATM   26  O4  UNL     1      25.554   5.269  33.051  1.00  0.00    -0.392 OA
ATOM     27  H4  UNL     1      26.130   4.521  32.953  1.00  0.00     0.210 HD
ENDBRANCH  15  26
TORSDOF 4
ENDMDL