MODEL 1
REMARK VINA RESULT: -6.551704159      0.000      0.000
REMARK  5 active torsions:
REMARK  status: ('A' for Active; 'I' for Inactive)
REMARK    1  A    between atoms: C2_2  and  C4_4
REMARK    2  A    between atoms: C4_4  and  O1_5
REMARK    3  A    between atoms: C4_4  and  C5_7
REMARK    4  A    between atoms: C8_11  and  O3_12
REMARK    5  A    between atoms: C17_22  and  O4_23
ROOT
HETATM    1  C5  UNL     1      23.675   3.450  36.930  1.00  0.00     0.183 C
HETATM    2  O2  UNL     1      23.550   3.850  35.596  1.00  0.00    -0.344 OA
HETATM    3  C6  UNL     1      22.480   4.697  35.509  1.00  0.00     0.169 C
HETATM    4  C7  UNL     1      21.525   4.336  36.617  1.00  0.00     0.102 C
HETATM    5  C8  UNL     1      22.286   3.278  37.387  1.00  0.00     0.154 C
HETATM    6  C9  UNL     1      22.971   6.106  35.656  1.00  0.00     0.078 C
HETATM    7  C10 UNL     1      23.149   6.855  34.382  1.00  0.00    -0.033 C
HETATM    8  C11 UNL     1      24.565   6.573  33.863  1.00  0.00     0.016 C
HETATM    9  C12 UNL     1      23.158   8.346  34.749  1.00  0.00     0.016 C
HETATM   10  C13 UNL     1      22.146   6.552  33.328  1.00  0.00    -0.003 C
HETATM   11  C14 UNL     1      21.426   7.819  32.924  1.00  0.00     0.019 C
HETATM   12  C15 UNL     1      22.785   5.992  32.061  1.00  0.00     0.016 C
HETATM   13  C16 UNL     1      21.728   5.168  31.382  1.00  0.00     0.036 C
HETATM   14  C17 UNL     1      20.657   4.908  32.385  1.00  0.00     0.153 C
HETATM   15  C18 UNL     1      21.187   5.461  33.721  1.00  0.00     0.094 C
HETATM   16  C19 UNL     1      19.979   5.986  34.440  1.00  0.00     0.050 C
HETATM   17  O5  UNL     1      21.836   4.439  34.319  1.00  0.00    -0.341 OA
ENDROOT
BRANCH   1  18
HETATM   18  C4  UNL     1      24.532   2.195  36.891  1.00  0.00     0.153 C
BRANCH  18  19
HETATM   19  C2  UNL     1      25.870   2.298  37.519  1.00  0.00     0.009 C
HETATM   20  C1  UNL     1      25.985   3.015  38.809  1.00  0.00     0.012 C
HETATM   21  C3  UNL     1      26.866   2.956  36.556  1.00  0.00     0.012 C
ENDBRANCH  18  19
BRANCH  18  22
HETATM   22  O1  UNL     1      24.819   1.981  35.491  1.00  0.00    -0.393 OA
ATOM     23  H1  UNL     1      23.962   1.879  35.094  1.00  0.00     0.210 HD
ENDBRANCH  18  22
ENDBRANCH   1  18
BRANCH   5  24
HETATM   24  O3  UNL     1      22.111   3.558  38.767  1.00  0.00    -0.393 OA
ATOM     25  H3  UNL     1      21.209   3.481  39.055  1.00  0.00     0.210 HD
ENDBRANCH   5  24
BRANCH  14  26
HETATM   26  O4  UNL     1      19.436   5.468  32.056  1.00  0.00    -0.393 OA
ATOM     27  H4  UNL     1      18.987   5.867  32.792  1.00  0.00     0.210 HD
ENDBRANCH  14  26
TORSDOF 5
ENDMDL