MODEL 5
REMARK VINA RESULT: -5.183486665      1.755      4.995
REMARK  4 active torsions:
REMARK  status: ('A' for Active; 'I' for Inactive)
REMARK    1  A    between atoms: C10_12  and  O3_13
REMARK    2  A    between atoms: C14_18  and  O4_19
REMARK    3  A    between atoms: C15_21  and  C16_22
REMARK    4  A    between atoms: C16_22  and  O5_23
ROOT
HETATM    1  C1  UNL     1      20.220   3.825  33.998  1.00  0.00     0.010 C
HETATM    2  C2  UNL     1      20.768   5.232  33.873  1.00  0.00    -0.012 C
HETATM    3  C3  UNL     1      20.020   6.092  32.883  1.00  0.00     0.005 C
HETATM    4  C4  UNL     1      19.507   7.425  33.388  1.00  0.00     0.003 C
HETATM    5  C5  UNL     1      19.771   8.640  32.597  1.00  0.00     0.038 C
HETATM    6  C6  UNL     1      20.800   9.637  32.891  1.00  0.00     0.066 C
HETATM    7  C7  UNL     1      20.433  10.375  34.168  1.00  0.00     0.046 C
HETATM    8  O1  UNL     1      20.683  10.600  31.853  1.00  0.00    -0.356 OA
HETATM    9  C8  UNL     1      21.197  10.208  30.659  1.00  0.00     0.339 C
HETATM   10  O2  UNL     1      22.513   9.750  30.656  1.00  0.00    -0.359 OA
HETATM   11  C9  UNL     1      22.581   8.673  31.604  1.00  0.00     0.159 C
HETATM   12  C10 UNL     1      23.765   7.825  31.398  1.00  0.00     0.148 C
HETATM   13  C11 UNL     1      23.506   6.304  31.584  1.00  0.00     0.040 C
HETATM   14  C12 UNL     1      22.901   6.163  32.870  1.00  0.00     0.008 C
HETATM   15  C13 UNL     1      22.265   5.027  33.520  1.00  0.00     0.024 C
HETATM   16  C14 UNL     1      23.089   5.459  34.757  1.00  0.00     0.134 C
HETATM   17  C15 UNL     1      23.890   6.441  33.960  1.00  0.00     0.011 C
HETATM   18  C17 UNL     1      23.844   7.868  34.391  1.00  0.00     0.015 C
HETATM   19  C18 UNL     1      22.655   8.681  34.157  1.00  0.00     0.011 C
HETATM   20  C19 UNL     1      22.283   9.328  32.897  1.00  0.00     0.051 C
ENDROOT
BRANCH  17  21
HETATM   21  C16 UNL     1      25.286   5.920  33.758  1.00  0.00     0.176 C
BRANCH  21  22
HETATM   22  O5  UNL     1      26.216   6.955  33.828  1.00  0.00    -0.400 OA
ATOM     23  H5  UNL     1      27.013   6.664  34.256  1.00  0.00     0.209 HD
ENDBRANCH  21  22
ENDBRANCH  17  21
BRANCH  16  24
HETATM   24  O4  UNL     1      22.381   5.942  35.818  1.00  0.00    -0.394 OA
ATOM     25  H4  UNL     1      22.249   6.882  35.844  1.00  0.00     0.210 HD
ENDBRANCH  16  24
BRANCH  12  26
HETATM   26  O3  UNL     1      24.043   7.896  29.999  1.00  0.00    -0.393 OA
ATOM     27  H3  UNL     1      24.357   7.032  29.761  1.00  0.00     0.210 HD
ENDBRANCH  12  26
TORSDOF 4
ENDMDL