MODEL 3
REMARK VINA RESULT: -8.335541274      2.291      4.157
REMARK  3 active torsions:
REMARK  status: ('A' for Active; 'I' for Inactive)
REMARK    1  A    between atoms: C12_13  and  O2_14
REMARK    2  A    between atoms: C16_19  and  O3_20
REMARK    3  A    between atoms: C19_25  and  O5_26
ROOT
HETATM    1  C1  UNL     1      21.231   9.651  33.778  1.00  0.00     0.018 C
HETATM    2  C2  UNL     1      21.776   8.401  33.067  1.00  0.00    -0.012 C
HETATM    3  C3  UNL     1      23.257   8.492  33.125  1.00  0.00     0.012 C
HETATM    4  C4  UNL     1      23.608   7.725  34.411  1.00  0.00     0.009 C
HETATM    5  C5  UNL     1      23.591   6.243  33.967  1.00  0.00     0.033 C
HETATM    6  C6  UNL     1      24.400   5.521  34.939  1.00  0.00     0.012 C
HETATM    7  C7  UNL     1      25.890   5.834  34.642  1.00  0.00     0.020 C
HETATM    8  C8  UNL     1      24.252   5.994  36.386  1.00  0.00     0.181 C
HETATM    9  O1  UNL     1      23.206   5.460  37.050  1.00  0.00    -0.374 OA
HETATM   10  C9  UNL     1      22.497   4.478  36.484  1.00  0.00     0.111 C
HETATM   11  C10 UNL     1      21.298   4.861  35.714  1.00  0.00     0.046 C
HETATM   12  C11 UNL     1      21.472   4.840  34.240  1.00  0.00     0.042 C
HETATM   13  C12 UNL     1      22.219   5.961  33.623  1.00  0.00     0.067 C
HETATM   14  C13 UNL     1      21.260   7.167  33.694  1.00  0.00     0.031 C
HETATM   15  C14 UNL     1      20.004   6.872  32.900  1.00  0.00     0.011 C
HETATM   16  C15 UNL     1      19.746   8.109  32.026  1.00  0.00     0.033 C
HETATM   17  C16 UNL     1      21.203   8.448  31.668  1.00  0.00     0.126 C
HETATM   18  C17 UNL     1      22.320   3.295  37.435  1.00  0.00     0.209 C
HETATM   19  O4  UNL     1      23.607   2.896  37.027  1.00  0.00    -0.377 OA
HETATM   20  C18 UNL     1      23.265   3.422  35.755  1.00  0.00     0.187 C
HETATM   21  C19 UNL     1      24.390   4.032  34.976  1.00  0.00     0.161 C
ENDROOT
BRANCH  13  22
HETATM   22  O2  UNL     1      22.128   5.654  32.225  1.00  0.00    -0.389 OA
ATOM     23  H2  UNL     1      21.270   5.294  32.034  1.00  0.00     0.210 HD
ENDBRANCH  13  22
BRANCH  21  24
HETATM   24  O5  UNL     1      24.599   3.447  33.723  1.00  0.00    -0.392 OA
ATOM     25  H5  UNL     1      24.272   3.974  33.003  1.00  0.00     0.210 HD
ENDBRANCH  21  24
BRANCH  17  26
HETATM   26  O3  UNL     1      21.305   9.707  31.114  1.00  0.00    -0.395 OA
ATOM     27  H3  UNL     1      22.074  10.169  31.425  1.00  0.00     0.210 HD
ENDBRANCH  17  26
TORSDOF 3
ENDMDL