MODEL 3
REMARK VINA RESULT: -8.028098325      2.954      4.261
REMARK  4 active torsions:
REMARK  status: ('A' for Active; 'I' for Inactive)
REMARK    1  A    between atoms: C5_6  and  O2_7
REMARK    2  A    between atoms: C5_6  and  C6_9
REMARK    3  A    between atoms: C6_9  and  O3_10
REMARK    4  A    between atoms: C18_24  and  O5_25
ROOT
HETATM    1  C1  UNL     1      21.290   5.259  31.863  1.00  0.00     0.018 C
HETATM    2  C2  UNL     1      22.139   5.926  32.959  1.00  0.00    -0.015 C
HETATM    3  C3  UNL     1      21.291   7.031  33.523  1.00  0.00     0.177 C
HETATM    4  O1  UNL     1      21.924   8.199  33.814  1.00  0.00    -0.387 OA
HETATM    5  C4  UNL     1      22.673   8.733  32.804  1.00  0.00     0.208 C
HETATM    6  C5  UNL     1      22.999   7.782  31.706  1.00  0.00     0.104 C
HETATM    7  C7  UNL     1      23.374   6.432  32.288  1.00  0.00     0.034 C
HETATM    8  C8  UNL     1      24.622   6.546  33.036  1.00  0.00     0.009 C
HETATM    9  C9  UNL     1      25.170   5.322  33.714  1.00  0.00     0.012 C
HETATM   10  C10 UNL     1      24.598   4.907  34.985  1.00  0.00    -0.010 C
HETATM   11  C11 UNL     1      25.088   5.529  36.249  1.00  0.00     0.178 C
HETATM   12  O4  UNL     1      24.024   5.534  37.158  1.00  0.00    -0.384 OA
HETATM   13  C12 UNL     1      22.890   5.018  36.490  1.00  0.00     0.136 C
HETATM   14  C13 UNL     1      23.149   5.386  35.091  1.00  0.00     0.027 C
HETATM   15  C14 UNL     1      22.373   4.836  33.995  1.00  0.00     0.020 C
HETATM   16  C15 UNL     1      22.846   3.554  36.788  1.00  0.00     0.005 C
HETATM   17  C16 UNL     1      23.266   3.398  38.259  1.00  0.00     0.020 C
HETATM   18  C17 UNL     1      21.430   3.003  36.723  1.00  0.00     0.020 C
HETATM   19  C18 UNL     1      23.705   2.718  35.911  1.00  0.00     0.129 C
HETATM   20  C19 UNL     1      24.734   3.418  35.127  1.00  0.00     0.044 C
ENDROOT
BRANCH   6  21
HETATM   21  O2  UNL     1      21.808   7.612  30.938  1.00  0.00    -0.385 OA
ATOM     22  H2  UNL     1      21.420   6.789  31.211  1.00  0.00     0.210 HD
ENDBRANCH   6  21
BRANCH   6  23
HETATM   23  C6  UNL     1      23.980   8.369  30.746  1.00  0.00     0.204 C
BRANCH  23  24
HETATM   24  O3  UNL     1      23.576   8.464  29.430  1.00  0.00    -0.398 OA
ATOM     25  H3  UNL     1      24.161   8.098  28.777  1.00  0.00     0.209 HD
ENDBRANCH  23  24
ENDBRANCH   6  23
BRANCH  19  26
HETATM   26  O5  UNL     1      24.316   1.739  36.732  1.00  0.00    -0.395 OA
ATOM     27  H5  UNL     1      23.674   1.475  37.380  1.00  0.00     0.210 HD
ENDBRANCH  19  26
TORSDOF 4
ENDMDL