MODEL 2
REMARK VINA RESULT: -8.454718623      1.982      5.484
REMARK  4 active torsions:
REMARK  status: ('A' for Active; 'I' for Inactive)
REMARK    1  A    between atoms: O1_2  and  C2_3
REMARK    2  A    between atoms: C4_5  and  O2_6
REMARK    3  A    between atoms: C18_22  and  O4_23
REMARK    4  A    between atoms: C19_25  and  O5_26
ROOT
HETATM    1  C2  UNL     1      24.856   4.097  36.883  1.00  0.00     0.155 C
HETATM    2  C3  UNL     1      23.421   4.328  37.241  1.00  0.00     0.079 C
HETATM    3  C4  UNL     1      22.577   3.056  37.078  1.00  0.00     0.199 C
HETATM    4  C5  UNL     1      21.296   3.269  36.578  1.00  0.00    -0.075 C
HETATM    5  C6  UNL     1      20.265   3.423  36.163  1.00  0.00    -0.104 C
HETATM    6  C7  UNL     1      18.961   3.597  35.622  1.00  0.00     0.094 C
HETATM    7  C8  UNL     1      17.943   4.131  36.587  1.00  0.00     0.012 C
HETATM    8  C9  UNL     1      18.018   5.594  36.817  1.00  0.00     0.001 C
HETATM    9  C10 UNL     1      18.730   6.372  35.768  1.00  0.00     0.000 C
HETATM   10  C11 UNL     1      17.828   6.749  34.594  1.00  0.00     0.000 C
HETATM   11  C12 UNL     1      18.649   7.622  33.669  1.00  0.00     0.002 C
HETATM   12  C13 UNL     1      19.344   6.799  32.626  1.00  0.00     0.026 C
HETATM   13  C14 UNL     1      20.676   7.436  32.248  1.00  0.00     0.167 C
HETATM   14  O3  UNL     1      21.647   6.854  33.074  1.00  0.00    -0.391 OA
HETATM   15  C15 UNL     1      22.906   6.986  32.480  1.00  0.00     0.167 C
HETATM   16  C16 UNL     1      24.007   6.864  33.492  1.00  0.00     0.029 C
HETATM   17  C17 UNL     1      24.775   5.560  33.366  1.00  0.00     0.036 C
HETATM   18  C18 UNL     1      24.435   4.613  34.481  1.00  0.00     0.149 C
HETATM   19  C19 UNL     1      25.320   4.890  35.695  1.00  0.00     0.175 C
ENDROOT
BRANCH   1  20
HETATM   20  O1  UNL     1      25.732   4.303  37.920  1.00  0.00    -0.388 OA
HETATM   21  C1  UNL     1      26.017   3.173  38.660  1.00  0.00     0.202 C
ENDBRANCH   1  20
BRANCH  19  22
HETATM   22  O5  UNL     1      25.463   6.231  35.942  1.00  0.00    -0.390 OA
ATOM     23  H5  UNL     1      25.679   6.744  35.173  1.00  0.00     0.210 HD
ENDBRANCH  19  22
BRANCH   3  24
HETATM   24  O2  UNL     1      22.527   2.355  38.291  1.00  0.00    -0.383 OA
ATOM     25  H2  UNL     1      23.088   2.775  38.933  1.00  0.00     0.211 HD
ENDBRANCH   3  24
BRANCH  18  26
HETATM   26  O4  UNL     1      24.751   3.323  34.042  1.00  0.00    -0.393 OA
ATOM     27  H4  UNL     1      24.704   3.328  33.093  1.00  0.00     0.210 HD
ENDBRANCH  18  26
TORSDOF 4
ENDMDL