MODEL 2
REMARK VINA RESULT: -5.961841390      1.642      5.427
REMARK  4 active torsions:
REMARK  status: ('A' for Active; 'I' for Inactive)
REMARK    1  A    between atoms: C3_3  and  O1_4
REMARK    2  A    between atoms: C4_6  and  O2_7
REMARK    3  A    between atoms: C4_6  and  C5_9
REMARK    4  A    between atoms: C17_23  and  O5_24
ROOT
HETATM    1  C1  UNL     1      23.213   7.758  34.193  1.00  0.00     0.014 C
HETATM    2  C2  UNL     1      22.928   6.383  34.818  1.00  0.00     0.025 C
HETATM    3  C3  UNL     1      24.230   5.782  35.148  1.00  0.00     0.157 C
HETATM    4  C4  UNL     1      24.191   4.864  36.379  1.00  0.00     0.087 C
HETATM    5  C8  UNL     1      23.571   3.570  35.892  1.00  0.00     0.041 C
HETATM    6  C9  UNL     1      22.089   3.879  35.673  1.00  0.00     0.009 C
HETATM    7  C10 UNL     1      21.802   4.216  34.251  1.00  0.00     0.005 C
HETATM    8  C11 UNL     1      20.324   4.400  34.032  1.00  0.00     0.029 C
HETATM    9  C12 UNL     1      19.421   4.237  35.195  1.00  0.00     0.009 C
HETATM   10  C13 UNL     1      18.718   5.579  35.264  1.00  0.00     0.008 C
HETATM   11  C14 UNL     1      19.910   6.517  35.012  1.00  0.00     0.020 C
HETATM   12  C15 UNL     1      19.268   7.855  34.620  1.00  0.00     0.013 C
HETATM   13  C16 UNL     1      20.597   5.888  33.899  1.00  0.00     0.112 C
HETATM   14  O3  UNL     1      20.110   6.369  32.659  1.00  0.00    -0.225 OA
HETATM   15  O4  UNL     1      20.212   5.386  31.791  1.00  0.00    -0.207 OA
HETATM   16  C17 UNL     1      21.531   5.281  31.431  1.00  0.00     0.294 C
HETATM   17  C18 UNL     1      22.483   5.878  32.427  1.00  0.00     0.077 C
HETATM   18  C19 UNL     1      22.051   5.646  33.876  1.00  0.00     0.009 C
ENDROOT
BRANCH   4  19
HETATM   19  O2  UNL     1      23.408   5.375  37.383  1.00  0.00    -0.387 OA
ATOM     20  H2  UNL     1      23.749   5.167  38.246  1.00  0.00     0.210 HD
ENDBRANCH   4  19
BRANCH   4  21
HETATM   21  C5  UNL     1      25.638   4.665  36.787  1.00  0.00     0.022 A
HETATM   22  C6  UNL     1      25.822   3.705  37.951  1.00  0.00     0.008 A
HETATM   23  C7  UNL     1      26.307   3.361  36.587  1.00  0.00     0.008 A
ENDBRANCH   4  21
BRANCH   3  24
HETATM   24  O1  UNL     1      24.879   5.095  34.169  1.00  0.00    -0.392 OA
ATOM     25  H1  UNL     1      24.750   4.155  34.125  1.00  0.00     0.210 HD
ENDBRANCH   3  24
BRANCH  16  26
HETATM   26  O5  UNL     1      21.908   3.982  31.050  1.00  0.00    -0.368 OA
ATOM     27  H5  UNL     1      21.194   3.469  30.690  1.00  0.00     0.212 HD
ENDBRANCH  16  26
TORSDOF 4
ENDMDL