MODEL 2
REMARK VINA RESULT: -8.050794734      2.669      5.749
REMARK  4 active torsions:
REMARK  status: ('A' for Active; 'I' for Inactive)
REMARK    1  A    between atoms: C2_2  and  C4_4
REMARK    2  A    between atoms: C11_12  and  O2_13
REMARK    3  A    between atoms: C16_20  and  O4_21
REMARK    4  A    between atoms: C19_25  and  O5_26
ROOT
HETATM    1  C4  UNL     1      19.258   5.274  35.466  1.00  0.00     0.171 C
HETATM    2  O1  UNL     1      19.122   6.661  35.606  1.00  0.00    -0.353 OA
HETATM    3  C5  UNL     1      18.083   7.026  34.752  1.00  0.00     0.180 C
HETATM    4  C6  UNL     1      18.151   6.096  33.572  1.00  0.00    -0.017 C
HETATM    5  C7  UNL     1      18.496   6.892  32.364  1.00  0.00     0.018 C
HETATM    6  C8  UNL     1      16.783   5.471  33.273  1.00  0.00     0.018 C
HETATM    7  C9  UNL     1      19.171   5.082  33.992  1.00  0.00     0.061 C
HETATM    8  C10 UNL     1      20.408   5.037  33.228  1.00  0.00     0.043 C
HETATM    9  C11 UNL     1      21.666   5.569  33.812  1.00  0.00     0.132 C
HETATM   10  C12 UNL     1      22.278   4.696  34.874  1.00  0.00     0.045 A
HETATM   11  C13 UNL     1      21.128   3.897  35.472  1.00  0.00     0.187 C
HETATM   12  O3  UNL     1      20.346   4.800  36.101  1.00  0.00    -0.353 OA
HETATM   13  C14 UNL     1      23.564   4.129  34.856  1.00  0.00     0.039 A
HETATM   14  C15 UNL     1      24.900   4.624  34.445  1.00  0.00     0.040 C
HETATM   15  C16 UNL     1      25.749   4.689  35.673  1.00  0.00     0.118 C
HETATM   16  C17 UNL     1      25.104   4.376  36.963  1.00  0.00     0.034 C
HETATM   17  C18 UNL     1      23.667   4.785  37.129  1.00  0.00     0.042 C
HETATM   18  C19 UNL     1      23.156   5.265  35.840  1.00  0.00     0.075 A
ENDROOT
BRANCH   9  19
HETATM   19  O2  UNL     1      21.611   6.912  34.175  1.00  0.00    -0.395 OA
ATOM     20  H2  UNL     1      20.758   7.315  34.066  1.00  0.00     0.210 HD
ENDBRANCH   9  19
BRANCH  18  21
HETATM   21  O5  UNL     1      23.593   6.569  35.547  1.00  0.00    -0.388 OA
ATOM     22  H5  UNL     1      23.535   6.814  34.631  1.00  0.00     0.210 HD
ENDBRANCH  18  21
BRANCH   1  23
HETATM   23  C2  UNL     1      18.068   4.693  36.218  1.00  0.00     0.040 C
HETATM   24  C1  UNL     1      18.171   3.243  36.496  1.00  0.00     0.015 C
HETATM   25  C3  UNL     1      18.067   5.422  37.568  1.00  0.00     0.015 C
ENDBRANCH   1  23
BRANCH  15  26
HETATM   26  O4  UNL     1      26.403   5.921  35.682  1.00  0.00    -0.396 OA
ATOM     27  H4  UNL     1      26.105   6.420  34.930  1.00  0.00     0.210 HD
ENDBRANCH  15  26
TORSDOF 4
ENDMDL