MODEL 1
REMARK VINA RESULT: -6.290913443      0.000      0.000
REMARK  5 active torsions:
REMARK  status: ('A' for Active; 'I' for Inactive)
REMARK    1  A    between atoms: C2_2  and  N1_3
REMARK    2  A    between atoms: N1_3  and  C3_5
REMARK    3  A    between atoms: C4_8  and  C5_9
REMARK    4  A    between atoms: C5_9  and  N3_10
REMARK    5  A    between atoms: C6_17  and  N5_18
ROOT
HETATM    1  C3  UNL     1      28.066  52.074  59.905  1.00  0.00     0.694 A
HETATM    2  N2  UNL     1      28.104  51.865  61.233  1.00  0.00    -0.175 N
ATOM      3  H2  UNL     1      28.138  52.663  61.868  1.00  0.00     0.185 HD
HETATM    4  C4  UNL     1      28.097  50.609  61.738  1.00  0.00     0.174 A
HETATM    5  N4  UNL     1      28.052  49.576  60.860  1.00  0.00    -0.175 N
ATOM      6  H4  UNL     1      28.046  48.624  61.225  1.00  0.00     0.185 HD
HETATM    7  C6  UNL     1      28.014  49.755  59.529  1.00  0.00     0.691 A
HETATM    8  N6  UNL     1      28.021  51.031  59.056  1.00  0.00    -0.023 N
ATOM      9  H6  UNL     1      27.993  51.198  58.051  1.00  0.00     0.203 HD
ENDROOT
BRANCH   4  10
HETATM   10  C5  UNL     1      28.138  50.410  63.196  1.00  0.00     0.433 C
HETATM   11  F1  UNL     1      28.642  51.488  63.853  1.00  0.00    -0.211 F
BRANCH  10  12
HETATM   12  N3  UNL     1      28.845  49.177  63.504  1.00  0.00    -0.041 N
ATOM     13  H33 UNL     1      29.345  48.809  62.695  1.00  0.00     0.278 HD
ATOM     14  H32 UNL     1      29.648  49.337  64.113  1.00  0.00     0.278 HD
ATOM     15  H31 UNL     1      28.195  48.496  63.896  1.00  0.00     0.278 HD
ENDBRANCH  10  12
ENDBRANCH   4  10
BRANCH   1  16
HETATM   16  N1  UNL     1      28.073  53.294  59.444  1.00  0.00    -0.226 N
ATOM     17  H1  UNL     1      27.196  53.711  59.130  1.00  0.00     0.177 HD
BRANCH  16  18
HETATM   18  C2  UNL     1      29.288  54.068  59.364  1.00  0.00     0.133 C
HETATM   19  C1  UNL     1      30.152  53.483  58.278  1.00  0.00     0.027 C
ENDBRANCH  16  18
ENDBRANCH   1  16
BRANCH   7  20
HETATM   20  N5  UNL     1      27.970  48.805  58.668  1.00  0.00    -0.234 N
ATOM     21  H52 UNL     1      28.646  48.047  58.768  1.00  0.00     0.174 HD
ATOM     22  H51 UNL     1      27.309  48.757  57.893  1.00  0.00     0.174 HD
ENDBRANCH   7  20
TORSDOF 5
ENDMDL