MODEL 5
REMARK VINA RESULT: -6.191120892      1.492      4.268
REMARK  3 active torsions:
REMARK  status: ('A' for Active; 'I' for Inactive)
REMARK    1  A    between atoms: C2_3  and  N2_4
REMARK    2  A    between atoms: N2_4  and  C3_6
REMARK    3  A    between atoms: C5_13  and  N5_14
ROOT
HETATM    1  N1  UNL     1      30.417  53.760  58.403  1.00  0.00    -0.196 NA
HETATM    2  C1  UNL     1      29.785  54.006  59.348  1.00  0.00     0.079 C
HETATM    3  C2  UNL     1      28.969  54.312  60.534  1.00  0.00     0.262 C
ENDROOT
BRANCH   3   4
HETATM    4  N2  UNL     1      27.869  53.404  60.546  1.00  0.00    -0.213 N
ATOM      5  H2  UNL     1      26.928  53.797  60.543  1.00  0.00     0.178 HD
BRANCH   4   6
HETATM    6  C3  UNL     1      27.984  52.117  60.562  1.00  0.00     0.695 A
HETATM    7  N3  UNL     1      28.036  51.436  59.403  1.00  0.00    -0.165 N
HETATM    8  C4  UNL     1      28.155  50.097  59.362  1.00  0.00     0.208 A
ATOM      9  H3  UNL     1      27.985  51.953  58.525  1.00  0.00     0.186 HD
HETATM   10 CL1  UNL     1      28.222  49.233  57.821  1.00  0.00    -0.044 Cl
HETATM   11  N4  UNL     1      28.220  49.439  60.528  1.00  0.00    -0.165 N
HETATM   12  C5  UNL     1      28.167  50.132  61.696  1.00  0.00     0.692 A
ATOM     13  H4  UNL     1      28.310  48.423  60.538  1.00  0.00     0.186 HD
HETATM   14  N6  UNL     1      28.049  51.461  61.732  1.00  0.00    -0.022 N
ATOM     15  H6  UNL     1      28.010  51.962  62.620  1.00  0.00     0.203 HD
BRANCH  12  16
HETATM   16  N5  UNL     1      28.236  49.427  62.770  1.00  0.00    -0.234 N
ATOM     17  H52 UNL     1      27.400  49.109  63.259  1.00  0.00     0.174 HD
ATOM     18  H51 UNL     1      29.176  49.207  63.098  1.00  0.00     0.174 HD
ENDBRANCH  12  16
ENDBRANCH   4   6
ENDBRANCH   3   4
TORSDOF 3
ENDMDL