MODEL 3
REMARK VINA RESULT: -5.271873225      2.225      3.165
REMARK  4 active torsions:
REMARK  status: ('A' for Active; 'I' for Inactive)
REMARK    1  A    between atoms: N1_2  and  C2_4
REMARK    2  A    between atoms: C3_7  and  N3_8
REMARK    3  A    between atoms: C5_15  and  C6_16
REMARK    4  A    between atoms: C6_16  and  N5_17
ROOT
HETATM    1  C2  UNL     1      28.218  52.239  59.685  1.00  0.00     0.127 A
HETATM    2  N2  UNL     1      27.960  52.109  61.010  1.00  0.00    -0.177 N
ATOM      3  H2  UNL     1      27.939  52.923  61.625  1.00  0.00     0.186 HD
HETATM    4  C3  UNL     1      27.733  50.876  61.486  1.00  0.00     0.678 A
HETATM    5  N4  UNL     1      27.757  49.785  60.687  1.00  0.00    -0.181 N
ATOM      6  H4  UNL     1      27.578  48.865  61.089  1.00  0.00     0.185 HD
HETATM    7  C4  UNL     1      28.012  49.892  59.363  1.00  0.00     0.131 A
HETATM    8 CL1  UNL     1      28.033  48.438  58.358  1.00  0.00    -0.063 Cl
HETATM    9  C5  UNL     1      28.247  51.133  58.846  1.00  0.00     0.051 A
ENDROOT
BRANCH   9  10
HETATM   10  C6  UNL     1      28.534  51.330  57.410  1.00  0.00     0.275 C
BRANCH  10  11
HETATM   11  N5  UNL     1      27.342  51.146  56.663  1.00  0.00    -0.075 N
ATOM     12  H53 UNL     1      26.757  51.982  56.657  1.00  0.00     0.274 HD
ATOM     13  H52 UNL     1      27.519  51.086  55.660  1.00  0.00     0.274 HD
ATOM     14  H51 UNL     1      26.844  50.329  57.016  1.00  0.00     0.274 HD
ENDBRANCH  10  11
ENDBRANCH   9  10
BRANCH   1  15
HETATM   15  N1  UNL     1      28.435  53.421  59.226  1.00  0.00    -0.380 N
HETATM   16  C1  UNL     1      29.606  54.148  59.647  1.00  0.00     0.147 C
ATOM     17  H1  UNL     1      27.781  53.842  58.566  1.00  0.00     0.160 HD
ENDBRANCH   1  15
BRANCH   4  18
HETATM   18  N3  UNL     1      27.485  50.708  62.733  1.00  0.00    -0.234 N
ATOM     19  H32 UNL     1      28.006  51.269  63.408  1.00  0.00     0.174 HD
ATOM     20  H31 UNL     1      26.783  50.028  63.025  1.00  0.00     0.174 HD
ENDBRANCH   4  18
TORSDOF 4
ENDMDL