MODEL 5
REMARK VINA RESULT: -4.860055604      2.107      3.495
REMARK  3 active torsions:
REMARK  status: ('A' for Active; 'I' for Inactive)
REMARK    1  A    between atoms: N1_1  and  C1_4
REMARK    2  A    between atoms: C2_9  and  C3_10
REMARK    3  A    between atoms: C3_10  and  N4_11
ROOT
HETATM    1  C1  UNL     1      28.012  49.602  58.800  1.00  0.00     0.691 A
HETATM    2  N2  UNL     1      28.221  50.696  58.049  1.00  0.00    -0.132 N
ATOM      3  H2  UNL     1      28.293  50.612  57.035  1.00  0.00     0.205 HD
HETATM    4  N3  UNL     1      28.332  51.881  58.624  1.00  0.00    -0.286 N
ATOM      5  H3  UNL     1      28.491  52.702  58.040  1.00  0.00     0.187 HD
HETATM    6  C2  UNL     1      28.242  52.035  59.965  1.00  0.00     0.086 A
HETATM    7  C4  UNL     1      28.029  50.893  60.700  1.00  0.00     0.121 A
HETATM    8 BR1  UNL     1      27.893  51.058  62.606  1.00  0.00    -0.029 Br
HETATM    9  N5  UNL     1      27.910  49.671  60.148  1.00  0.00    -0.182 N
ATOM     10  H5  UNL     1      27.751  48.840  60.717  1.00  0.00     0.185 HD
ENDROOT
BRANCH   6  11
HETATM   11  C3  UNL     1      28.364  53.346  60.638  1.00  0.00     0.290 C
BRANCH  11  12
HETATM   12  N4  UNL     1      29.243  54.209  59.910  1.00  0.00    -0.074 N
ATOM     13  H43 UNL     1      29.209  54.025  58.908  1.00  0.00     0.274 HD
ATOM     14  H42 UNL     1      28.906  55.171  59.901  1.00  0.00     0.274 HD
ATOM     15  H41 UNL     1      30.194  54.146  60.275  1.00  0.00     0.274 HD
ENDBRANCH  11  12
ENDBRANCH   6  11
BRANCH   1  16
HETATM   16  N1  UNL     1      27.894  48.412  58.293  1.00  0.00    -0.233 N
ATOM     17  H12 UNL     1      28.558  48.184  57.553  1.00  0.00     0.174 HD
ATOM     18  H11 UNL     1      27.188  47.745  58.607  1.00  0.00     0.174 HD
ENDBRANCH   1  16
TORSDOF 3
ENDMDL