MODEL 4
REMARK VINA RESULT: -5.024994391      0.673      2.007
REMARK  3 active torsions:
REMARK  status: ('A' for Active; 'I' for Inactive)
REMARK    1  A    between atoms: N1_1  and  C1_4
REMARK    2  A    between atoms: C2_5  and  C3_6
REMARK    3  A    between atoms: N4_11  and  N5_12
ROOT
HETATM    1  C1  UNL     1      29.137  51.593  59.354  1.00  0.00     0.161 A
HETATM    2  C2  UNL     1      28.243  51.570  60.418  1.00  0.00     0.080 A
HETATM    3  N2  UNL     1      27.933  52.854  60.624  1.00  0.00    -0.282 N
ATOM      4  H2  UNL     1      27.293  53.191  61.344  1.00  0.00     0.184 HD
HETATM    5  N3  UNL     1      28.582  53.636  59.756  1.00  0.00     0.002 NA
HETATM    6  N4  UNL     1      29.323  52.869  58.974  1.00  0.00    -0.169 N
ENDROOT
BRANCH   1   7
HETATM    7  N1  UNL     1      29.673  50.525  58.838  1.00  0.00    -0.381 N
ATOM      8  H12 UNL     1      29.220  49.630  58.653  1.00  0.00     0.157 HD
ATOM      9  H11 UNL     1      30.651  50.462  58.556  1.00  0.00     0.157 HD
ENDBRANCH   1   7
BRANCH   2  10
HETATM   10  C3  UNL     1      27.740  50.380  61.171  1.00  0.00     0.147 C
HETATM   11 BR1  UNL     1      27.887  50.711  63.074  1.00  0.00    -0.090 Br
ENDBRANCH   2  10
BRANCH   6  12
HETATM   12  N5  UNL     1      30.168  53.295  57.920  1.00  0.00    -0.324 N
ATOM     13  H52 UNL     1      31.148  53.048  57.785  1.00  0.00     0.178 HD
ATOM     14  H51 UNL     1      29.893  53.911  57.155  1.00  0.00     0.178 HD
ENDBRANCH   6  12
TORSDOF 3
ENDMDL