MODEL 3
REMARK VINA RESULT: -4.826698934      1.566      2.088
REMARK  5 active torsions:
REMARK  status: ('A' for Active; 'I' for Inactive)
REMARK    1  A    between atoms: N1_1  and  C1_4
REMARK    2  A    between atoms: C3_6  and  C4_7
REMARK    3  A    between atoms: C4_7  and  N2_8
REMARK    4  A    between atoms: N2_8  and  N3_10
REMARK    5  A    between atoms: C5_13  and  N4_14
ROOT
HETATM    1  C1  UNL     1      28.185  52.973  60.425  1.00  0.00     0.101 C
HETATM    2  C2  UNL     1      27.845  51.861  61.189  1.00  0.00     0.064 C
HETATM    3  C3  UNL     1      28.099  50.536  60.852  1.00  0.00     0.028 C
HETATM    4  C5  UNL     1      28.242  50.025  59.579  1.00  0.00     0.112 C
HETATM    5  N5  UNL     1      28.961  50.639  58.604  1.00  0.00    -0.318 N
ATOM      6  H5  UNL     1      29.308  50.024  57.868  1.00  0.00     0.170 HD
HETATM    7  C6  UNL     1      29.287  51.955  58.465  1.00  0.00     0.182 C
HETATM    8 CL1  UNL     1      30.466  52.353  57.239  1.00  0.00    -0.045 Cl
HETATM    9  N6  UNL     1      28.775  52.985  59.199  1.00  0.00    -0.319 N
ATOM     10  H6  UNL     1      28.844  53.905  58.762  1.00  0.00     0.170 HD
ENDROOT
BRANCH   3  11
HETATM   11  C4  UNL     1      28.249  49.625  61.974  1.00  0.00     0.121 C
BRANCH  11  12
HETATM   12  N2  UNL     1      27.298  49.248  62.738  1.00  0.00    -0.318 N
ATOM     13  H2  UNL     1      27.427  49.297  63.748  1.00  0.00     0.185 HD
BRANCH  12  14
HETATM   14  N3  UNL     1      26.093  48.772  62.236  1.00  0.00    -0.345 N
ATOM     15  H32 UNL     1      25.792  47.839  62.518  1.00  0.00     0.176 HD
ATOM     16  H31 UNL     1      25.513  49.324  61.604  1.00  0.00     0.176 HD
ENDBRANCH  12  14
ENDBRANCH  11  12
ENDBRANCH   3  11
BRANCH   4  17
HETATM   17  N4  UNL     1      27.643  48.937  59.294  1.00  0.00    -0.385 N
ATOM     18  H42 UNL     1      27.004  48.541  59.984  1.00  0.00     0.157 HD
ATOM     19  H41 UNL     1      27.845  48.495  58.398  1.00  0.00     0.157 HD
ENDBRANCH   4  17
BRANCH   1  20
HETATM   20  N1  UNL     1      27.894  54.089  60.978  1.00  0.00    -0.385 N
ATOM     21  H12 UNL     1      27.031  54.559  60.706  1.00  0.00     0.157 HD
ATOM     22  H11 UNL     1      28.584  54.405  61.660  1.00  0.00     0.157 HD
ENDBRANCH   1  20
TORSDOF 5
ENDMDL