MODEL 2
REMARK VINA RESULT: -6.374795874      1.391      2.557
REMARK  1 active torsions:
REMARK  status: ('A' for Active; 'I' for Inactive)
REMARK    1  A    between atoms: C2_3  and  N2_4
ROOT
HETATM    1  N1  UNL     1      30.402  48.180  64.486  1.00  0.00    -0.196 NA
HETATM    2  C1  UNL     1      29.346  48.512  64.128  1.00  0.00     0.079 C
HETATM    3  C2  UNL     1      28.014  48.929  63.649  1.00  0.00     0.262 C
ENDROOT
BRANCH   3   4
HETATM    4  N2  UNL     1      28.061  50.324  63.308  1.00  0.00    -0.212 N
HETATM    5  C3  UNL     1      28.052  50.766  62.120  1.00  0.00     0.708 C
HETATM    6  N3  UNL     1      28.104  52.183  61.981  1.00  0.00    -0.130 N
HETATM    7  N7  UNL     1      27.990  49.800  61.059  1.00  0.00    -0.021 N
HETATM    8  N4  UNL     1      28.271  52.896  60.789  1.00  0.00    -0.261 N
ATOM      9  H3  UNL     1      28.011  52.733  62.835  1.00  0.00     0.205 HD
HETATM   10  C4  UNL     1      28.301  52.486  59.425  1.00  0.00     0.208 C
ATOM     11  H4  UNL     1      28.394  53.899  60.922  1.00  0.00     0.190 HD
HETATM   12 CL1  UNL     1      28.449  53.767  58.207  1.00  0.00    -0.043 Cl
HETATM   13  N5  UNL     1      28.230  51.276  58.993  1.00  0.00    -0.164 N
HETATM   14  C5  UNL     1      28.109  50.027  59.660  1.00  0.00     0.692 C
ATOM     15  H5  UNL     1      28.269  51.199  57.976  1.00  0.00     0.186 HD
HETATM   16  N6  UNL     1      28.103  48.961  58.932  1.00  0.00    -0.234 N
ATOM     17  H62 UNL     1      28.188  49.125  57.929  1.00  0.00     0.174 HD
ATOM     18  H61 UNL     1      28.015  48.064  59.411  1.00  0.00     0.174 HD
ATOM     19  H7  UNL     1      27.842  48.831  61.343  1.00  0.00     0.203 HD
ATOM     20  H2  UNL     1      28.103  51.001  64.069  1.00  0.00     0.178 HD
ENDBRANCH   3   4
TORSDOF 1
ENDMDL