MODEL 3
REMARK VINA RESULT: -6.235445875      2.408      4.301
REMARK  2 active torsions:
REMARK  status: ('A' for Active; 'I' for Inactive)
REMARK    1  A    between atoms: N1_1  and  C1_4
REMARK    2  A    between atoms: C3_11  and  N4_12
ROOT
HETATM    1  C1  UNL     1      27.945  52.392  60.878  1.00  0.00     0.692 A
HETATM    2  N2  UNL     1      27.785  51.621  61.968  1.00  0.00    -0.165 N
ATOM      3  H2  UNL     1      27.552  52.057  62.860  1.00  0.00     0.186 HD
HETATM    4  C2  UNL     1      27.925  50.285  61.902  1.00  0.00     0.208 A
HETATM    5 CL1  UNL     1      27.717  49.290  63.313  1.00  0.00    -0.044 Cl
HETATM    6  N3  UNL     1      28.232  49.676  60.743  1.00  0.00    -0.164 N
ATOM      7  H3  UNL     1      28.337  48.662  60.704  1.00  0.00     0.186 HD
HETATM    8  C3  UNL     1      28.400  50.423  59.631  1.00  0.00     0.701 A
HETATM    9  N7  UNL     1      28.254  51.756  59.723  1.00  0.00    -0.022 N
ATOM     10  H7  UNL     1      28.382  52.318  58.880  1.00  0.00     0.203 HD
ENDROOT
BRANCH   8  11
HETATM   11  N4  UNL     1      28.724  49.760  58.421  1.00  0.00    -0.165 N
HETATM   12  C4  UNL     1      29.667  50.089  57.638  1.00  0.00     0.215 C
HETATM   13  N5  UNL     1      30.501  51.189  57.928  1.00  0.00    -0.066 NA
HETATM   14  N6  UNL     1      29.889  49.345  56.455  1.00  0.00    -0.066 NA
ATOM     15  H4  UNL     1      28.154  48.955  58.160  1.00  0.00     0.186 HD
ENDBRANCH   8  11
BRANCH   1  16
HETATM   16  N1  UNL     1      27.810  53.672  60.941  1.00  0.00    -0.234 N
ATOM     17  H12 UNL     1      26.921  54.134  60.745  1.00  0.00     0.174 HD
ATOM     18  H11 UNL     1      28.595  54.275  61.189  1.00  0.00     0.174 HD
ENDBRANCH   1  16
TORSDOF 2
ENDMDL