MODEL 4
REMARK VINA RESULT: -6.071508221      1.314      2.440
REMARK  3 active torsions:
REMARK  status: ('A' for Active; 'I' for Inactive)
REMARK    1  A    between atoms: C2_2  and  N1_3
REMARK    2  A    between atoms: N1_3  and  C3_5
REMARK    3  A    between atoms: C5_15  and  N6_16
ROOT
HETATM    1  C3  UNL     1      28.138  50.602  60.616  1.00  0.00     0.148 A
HETATM    2  N2  UNL     1      27.583  49.404  60.374  1.00  0.00    -0.269 N
ATOM      3  H2  UNL     1      27.136  48.896  61.136  1.00  0.00     0.190 HD
HETATM    4  N3  UNL     1      27.606  48.866  59.157  1.00  0.00    -0.239 N
ATOM      5  H3  UNL     1      27.172  47.953  59.021  1.00  0.00     0.208 HD
HETATM    6  N4  UNL     1      28.164  49.455  58.116  1.00  0.00    -0.268 N
ATOM      7  H4  UNL     1      28.156  49.003  57.202  1.00  0.00     0.190 HD
HETATM    8  C4  UNL     1      28.743  50.660  58.274  1.00  0.00     0.168 A
HETATM    9  N5  UNL     1      29.386  51.507  57.422  1.00  0.00    -0.173 N
ATOM     10  H5  UNL     1      29.550  51.352  56.427  1.00  0.00     0.186 HD
HETATM   11  C5  UNL     1      29.765  52.584  58.129  1.00  0.00     0.678 A
HETATM   12  N7  UNL     1      29.373  52.422  59.386  1.00  0.00    -0.184 N
ATOM     13  H7  UNL     1      29.535  53.097  60.134  1.00  0.00     0.184 HD
HETATM   14  C6  UNL     1      28.729  51.242  59.544  1.00  0.00     0.140 A
ENDROOT
BRANCH   1  15
HETATM   15  N1  UNL     1      28.148  51.174  61.770  1.00  0.00    -0.374 N
ATOM     16  H1  UNL     1      28.594  52.089  61.841  1.00  0.00     0.161 HD
BRANCH  15  17
HETATM   17  C2  UNL     1      27.581  50.621  62.957  1.00  0.00     0.117 C
HETATM   18  C1  UNL     1      28.561  49.659  63.595  1.00  0.00     0.026 C
ENDBRANCH  15  17
ENDBRANCH   1  15
BRANCH  11  19
HETATM   19  N6  UNL     1      30.402  53.610  57.676  1.00  0.00    -0.234 N
ATOM     20  H62 UNL     1      30.395  54.540  58.095  1.00  0.00     0.174 HD
ATOM     21  H61 UNL     1      30.995  53.633  56.846  1.00  0.00     0.174 HD
ENDBRANCH  11  19
TORSDOF 3
ENDMDL