MODEL 2
REMARK VINA RESULT: -3.373784204      1.410      2.066
REMARK  1 active torsions:
REMARK  status: ('A' for Active; 'I' for Inactive)
REMARK    1  A    between atoms: N1_3  and  C5_6
ROOT
HETATM    1  C1  UNL     1      -2.148   5.700  22.643  1.00  0.00     0.044 C
HETATM    2  C2  UNL     1      -2.117   6.132  21.503  1.00  0.00     0.105 C
HETATM    3  N1  UNL     1      -2.061   6.628  20.191  1.00  0.00    -0.003 N
HETATM    4  C3  UNL     1      -0.947   7.533  20.065  1.00  0.00     0.290 C
HETATM    5  C4  UNL     1      -1.705   5.473  19.344  1.00  0.00     0.290 C
ENDROOT
BRANCH   3   6
HETATM    6  C5  UNL     1      -3.302   7.128  19.735  1.00  0.00     0.255 A
HETATM    7  C6  UNL     1      -3.447   8.571  19.422  1.00  0.00     0.268 A
HETATM    8  N2  UNL     1      -4.472   8.774  20.416  1.00  0.00    -0.071 N
HETATM    9  C7  UNL     1      -4.393   7.354  20.715  1.00  0.00     0.268 A
ATOM     10  H22 UNL     1      -4.356   9.470  21.152  1.00  0.00     0.277 HD
ATOM     11  H21 UNL     1      -5.361   9.207  20.169  1.00  0.00     0.277 HD
ENDBRANCH   3   6
TORSDOF 1
ENDMDL