MODEL 2
REMARK VINA RESULT: -3.225666669      0.839      1.569
REMARK  1 active torsions:
REMARK  status: ('A' for Active; 'I' for Inactive)
REMARK    1  A    between atoms: C2_2  and  N1_3
ROOT
HETATM    1  N1  UNL     1      -2.988   7.358  20.282  1.00  0.00     0.011 N
HETATM    2  C3  UNL     1      -2.691   6.696  21.563  1.00  0.00     0.268 C
HETATM    3  C4  UNL     1      -1.437   6.270  20.858  1.00  0.00     0.058 C
HETATM    4  C5  UNL     1      -1.972   5.482  19.702  1.00  0.00     0.150 C
HETATM    5  N2  UNL     1      -3.103   6.361  19.334  1.00  0.00    -0.046 NA
HETATM    6  C6  UNL     1      -1.553   7.696  20.300  1.00  0.00     0.268 C
ENDROOT
BRANCH   1   7
HETATM    7  C2  UNL     1      -3.894   8.419  20.304  1.00  0.00     0.256 C
HETATM    8  C1  UNL     1      -3.386   9.713  19.705  1.00  0.00     0.036 C
ENDBRANCH   1   7
TORSDOF 1
ENDMDL