MODEL 5
REMARK VINA RESULT: -3.767596549      1.036      1.585
REMARK  1 active torsions:
REMARK  status: ('A' for Active; 'I' for Inactive)
REMARK    1  A    between atoms: C2_2  and  N1_4
ROOT
HETATM    1  N1  UNL     1      -2.799   7.181  20.347  1.00  0.00     0.024 N
HETATM    2  C4  UNL     1      -3.860   6.873  21.270  1.00  0.00     0.298 A
HETATM    3  C5  UNL     1      -2.432   6.583  21.566  1.00  0.00     0.256 A
HETATM    4  C6  UNL     1      -1.798   5.517  20.720  1.00  0.00     0.179 C
HETATM    5  N2  UNL     1      -2.347   6.161  19.531  1.00  0.00    -0.044 NA
ENDROOT
BRANCH   1   6
HETATM    6  C2  UNL     1      -2.512   8.533  19.996  1.00  0.00     0.204 C
HETATM    7  C1  UNL     1      -3.879   9.135  19.623  1.00  0.00     0.042 C
HETATM    8  C3  UNL     1      -1.641   8.682  18.776  1.00  0.00     0.042 C
ENDBRANCH   1   6
TORSDOF 1
ENDMDL