MODEL 2
REMARK VINA RESULT: -3.206323456      1.412      3.576
REMARK  1 active torsions:
REMARK  status: ('A' for Active; 'I' for Inactive)
REMARK    1  A    between atoms: N1_2  and  C2_3
ROOT
HETATM    1  C1  UNL     1      -3.934   6.861  19.633  1.00  0.00     0.275 C
HETATM    2  N1  UNL     1      -2.713   7.443  20.088  1.00  0.00    -0.041 N
HETATM    3  C5  UNL     1      -2.264   6.842  21.354  1.00  0.00     0.267 C
HETATM    4  C6  UNL     1      -1.753   5.509  20.877  1.00  0.00     0.262 C
HETATM    5  N2  UNL     1      -1.478   5.680  19.447  1.00  0.00    -0.049 N
ATOM      6  H21 UNL     1      -2.046   5.089  18.840  1.00  0.00     0.279 HD
ATOM      7  H22 UNL     1      -0.574   5.312  19.149  1.00  0.00     0.279 HD
HETATM    8  C7  UNL     1      -1.647   7.124  19.212  1.00  0.00     0.467 C
ENDROOT
BRANCH   2   9
HETATM    9  C2  UNL     1      -2.910   8.846  20.331  1.00  0.00     0.192 A
HETATM   10  C3  UNL     1      -3.945   9.640  19.665  1.00  0.00     0.035 A
HETATM   11  C4  UNL     1      -2.471   9.877  19.349  1.00  0.00     0.035 A
ENDBRANCH   2   9
TORSDOF 1
ENDMDL