MODEL 3
REMARK VINA RESULT: -2.644548778      1.321      2.465
REMARK  0 active torsions:
REMARK  status: ('A' for Active; 'I' for Inactive)
ROOT
HETATM    1  C1  UNL     1      -3.889   5.027  24.563  1.00  0.00     0.299 C
HETATM    2  N1  UNL     1      -2.771   4.134  24.220  1.00  0.00     0.029 N
HETATM    3  C2  UNL     1      -3.022   2.899  24.957  1.00  0.00     0.299 C
HETATM    4  C3  UNL     1      -1.519   4.699  24.662  1.00  0.00     0.291 C
HETATM    5  C4  UNL     1      -0.621   4.584  23.472  1.00  0.00     0.291 C
HETATM    6  N2  UNL     1      -1.535   4.452  22.371  1.00  0.00     0.029 N
HETATM    7  C5  UNL     1      -1.699   5.720  21.697  1.00  0.00     0.299 C
HETATM    8  C6  UNL     1      -0.978   3.548  21.349  1.00  0.00     0.299 C
HETATM    9  N3  UNL     1      -2.687   3.909  22.861  1.00  0.00     0.165 NA
ENDROOT
TORSDOF 0
ENDMDL