MODEL 5
REMARK VINA RESULT: -3.228218823      0.962      3.041
REMARK  0 active torsions:
REMARK  status: ('A' for Active; 'I' for Inactive)
ROOT
HETATM    1  C1  UNL     1      -1.439   8.118  18.896  1.00  0.00     0.055 C
HETATM    2  C2  UNL     1      -1.862   6.887  19.681  1.00  0.00     0.236 C
HETATM    3  N1  UNL     1      -3.314   6.940  19.780  1.00  0.00    -0.051 N
ATOM      4  H11 UNL     1      -3.700   6.069  20.142  1.00  0.00     0.279 HD
ATOM      5  H12 UNL     1      -3.755   6.934  18.860  1.00  0.00     0.279 HD
HETATM    6  C3  UNL     1      -3.741   8.095  20.578  1.00  0.00     0.467 C
HETATM    7  N2  UNL     1      -3.367   9.283  19.888  1.00  0.00    -0.040 N
HETATM    8  C4  UNL     1      -1.987   9.325  19.558  1.00  0.00     0.241 C
HETATM    9  C5  UNL     1      -3.939  10.563  20.231  1.00  0.00     0.267 A
HETATM   10  C6  UNL     1      -4.375   9.849  19.039  1.00  0.00     0.267 A
ENDROOT
TORSDOF 0
ENDMDL