MODEL 3
REMARK VINA RESULT: -2.841749736      5.668      6.632
REMARK  0 active torsions:
REMARK  status: ('A' for Active; 'I' for Inactive)
ROOT
HETATM    1  C1  UNL     1      -0.666   1.994  21.812  1.00  0.00     0.297 C
HETATM    2  N1  UNL     1      -0.252   1.515  20.543  1.00  0.00     0.007 N
HETATM    3  C2  UNL     1      -1.350   1.133  19.668  1.00  0.00     0.262 C
HETATM    4  C3  UNL     1      -0.740   1.265  18.267  1.00  0.00     0.053 C
HETATM    5  C4  UNL     1       0.680   1.641  18.599  1.00  0.00     0.110 C
HETATM    6  C5  UNL     1       1.423   0.524  19.283  1.00  0.00     0.053 C
HETATM    7  C6  UNL     1       0.644   0.383  20.588  1.00  0.00     0.262 C
HETATM    8  N2  UNL     1       0.421   2.502  19.770  1.00  0.00    -0.042 NA
ENDROOT
TORSDOF 0
ENDMDL