MODEL 5
REMARK VINA RESULT: -3.112405401      1.200      3.333
REMARK  0 active torsions:
REMARK  status: ('A' for Active; 'I' for Inactive)
ROOT
HETATM    1  C1  UNL     1      -3.681   8.598  19.404  1.00  0.00     0.056 A
HETATM    2  C2  UNL     1      -4.039   7.162  19.730  1.00  0.00     0.241 A
HETATM    3  N1  UNL     1      -2.806   6.965  20.442  1.00  0.00    -0.042 N
HETATM    4  C3  UNL     1      -2.404   8.335  20.166  1.00  0.00     0.241 A
HETATM    5  C4  UNL     1      -1.990   5.953  19.818  1.00  0.00     0.267 C
HETATM    6  C5  UNL     1      -1.314   5.218  20.938  1.00  0.00     0.262 C
HETATM    7  N2  UNL     1      -2.102   5.495  22.100  1.00  0.00    -0.049 N
ATOM      8  H21 UNL     1      -1.534   5.602  22.940  1.00  0.00     0.279 HD
ATOM      9  H22 UNL     1      -2.649   4.689  22.402  1.00  0.00     0.279 HD
HETATM   10  C6  UNL     1      -2.916   6.643  21.838  1.00  0.00     0.467 C
ENDROOT
TORSDOF 0
ENDMDL