MODEL 3
REMARK VINA RESULT: -4.383088476      0.835      4.069
REMARK  3 active torsions:
REMARK  status: ('A' for Active; 'I' for Inactive)
REMARK    1  A    between atoms: N1_2  and  C2_3
REMARK    2  A    between atoms: N1_2  and  C4_8
REMARK    3  A    between atoms: C2_3  and  C3_4
ROOT
HETATM    1  C1  UNL     1      -4.691   7.256  20.886  1.00  0.00     0.160 C
HETATM    2  N1  UNL     1      -3.436   7.605  20.272  1.00  0.00    -0.344 N
ENDROOT
BRANCH   2   3
HETATM    3  C2  UNL     1      -2.420   6.900  20.520  1.00  0.00    -0.027 C
BRANCH   3   4
HETATM    4  C3  UNL     1      -1.429   6.108  20.817  1.00  0.00     0.156 C
HETATM    5  N2  UNL     1      -0.688   5.306  21.504  1.00  0.00    -0.401 N
ATOM      6  H22 UNL     1      -1.259   5.299  22.350  1.00  0.00     0.156 HD
ATOM      7  H21 UNL     1       0.088   4.686  21.737  1.00  0.00     0.156 HD
ENDBRANCH   3   4
ENDBRANCH   2   3
BRANCH   2   8
HETATM    8  C4  UNL     1      -3.327   8.718  19.406  1.00  0.00     0.143 C
HETATM    9  C5  UNL     1      -2.043   9.509  19.473  1.00  0.00     0.259 C
HETATM   10  N3  UNL     1      -2.860  10.689  19.147  1.00  0.00    -0.071 N
HETATM   11  C6  UNL     1      -3.927  10.026  19.914  1.00  0.00     0.259 C
ATOM     12  H32 UNL     1      -2.549  11.637  19.363  1.00  0.00     0.277 HD
ATOM     13  H31 UNL     1      -3.000  10.998  18.185  1.00  0.00     0.277 HD
ENDBRANCH   2   8
TORSDOF 3
ENDMDL