MODEL 4
REMARK VINA RESULT: -3.187359618      1.125      2.257
REMARK  1 active torsions:
REMARK  status: ('A' for Active; 'I' for Inactive)
REMARK    1  A    between atoms: C2_2  and  N1_3
ROOT
HETATM    1  N1  UNL     1      -2.090   6.761  20.141  1.00  0.00     0.006 N
HETATM    2  C3  UNL     1      -1.674   5.589  19.403  1.00  0.00     0.297 C
HETATM    3  C4  UNL     1      -3.423   7.115  19.769  1.00  0.00     0.261 C
HETATM    4  C5  UNL     1      -4.178   7.311  21.079  1.00  0.00     0.047 C
HETATM    5  C6  UNL     1      -3.376   6.390  21.997  1.00  0.00     0.144 C
HETATM    6  N2  UNL     1      -2.043   6.587  21.515  1.00  0.00    -0.047 NA
ENDROOT
BRANCH   1   7
HETATM    7  C2  UNL     1      -1.154   7.832  19.766  1.00  0.00     0.255 C
HETATM    8  C1  UNL     1      -1.871   8.865  18.958  1.00  0.00     0.036 C
ENDBRANCH   1   7
TORSDOF 1
ENDMDL