MODEL 2
REMARK VINA RESULT: -5.552483138      4.198      7.169
REMARK  7 active torsions:
REMARK  status: ('A' for Active; 'I' for Inactive)
REMARK    1  A    between atoms: C2_2  and  O2_4
REMARK    2  A    between atoms: O2_4  and  C3_5
REMARK    3  A    between atoms: C11_14  and  C12_15
REMARK    4  A    between atoms: C12_15  and  O4_17
REMARK    5  A    between atoms: O4_17  and  C13_18
REMARK    6  A    between atoms: C14_20  and  N1_21
REMARK       I    between atoms: N1_21  and  C16_23
REMARK    7  A    between atoms: C16_23  and  C17_25
ROOT
HETATM    1  C3  UNL     1      47.467  75.621 -28.929  1.00  0.00     0.161 C
HETATM    2  C4  UNL     1      46.179  75.681 -28.112  1.00  0.00     0.042 C
HETATM    3  C5  UNL     1      44.941  75.941 -28.954  1.00  0.00     0.030 C
HETATM    4 BR1  UNL     1      46.079  77.292 -26.994  1.00  0.00    -0.083 Br
HETATM    5  C6  UNL     1      45.891  74.547 -27.231  1.00  0.00     0.024 C
HETATM    6  C7  UNL     1      46.943  73.508 -27.034  1.00  0.00     0.012 C
HETATM    7  C8  UNL     1      47.704  73.313 -28.262  1.00  0.00    -0.031 C
HETATM    8  C9  UNL     1      46.800  72.843 -29.351  1.00  0.00     0.016 C
HETATM    9  C10 UNL     1      48.960  72.610 -28.371  1.00  0.00     0.033 C
HETATM   10  C11 UNL     1      49.495  73.894 -29.047  1.00  0.00     0.081 C
HETATM   11  C14 UNL     1      50.593  74.369 -28.088  1.00  0.00     0.110 C
HETATM   12  C21 UNL     1      49.443  75.014 -27.412  1.00  0.00     0.019 C
HETATM   13  C22 UNL     1      49.555  76.365 -26.892  1.00  0.00     0.013 C
HETATM   14  C23 UNL     1      48.445  74.623 -28.495  1.00  0.00     0.019 C
ENDROOT
BRANCH  11  15
HETATM   15  N1  UNL     1      51.734  74.989 -28.582  1.00  0.00    -0.349 N
HETATM   16  C15 UNL     1      51.528  76.216 -29.403  1.00  0.00     0.153 C
HETATM   17  C16 UNL     1      53.096  74.675 -28.468  1.00  0.00     0.227 C
HETATM   18  O6  UNL     1      53.352  73.634 -27.794  1.00  0.00    -0.273 OA
BRANCH  17  19
HETATM   19  C17 UNL     1      54.264  75.365 -29.006  1.00  0.00     0.030 C
HETATM   20  C18 UNL     1      54.322  75.476 -30.509  1.00  0.00     0.025 C
HETATM   21  C19 UNL     1      55.548  74.565 -28.644  1.00  0.00     0.025 C
HETATM   22  C20 UNL     1      54.470  76.703 -28.337  1.00  0.00     0.025 C
ENDBRANCH  17  19
ENDBRANCH  11  15
BRANCH  10  23
HETATM   23  C12 UNL     1      49.902  73.649 -30.406  1.00  0.00     0.277 C
HETATM   24  O3  UNL     1      49.408  74.115 -31.426  1.00  0.00    -0.264 OA
BRANCH  23  25
HETATM   25  O4  UNL     1      50.996  72.771 -30.616  1.00  0.00    -0.252 OA
BRANCH  25  26
HETATM   26  C13 UNL     1      50.892  71.784 -31.583  1.00  0.00     0.406 C
HETATM   27  O5  UNL     1      51.492  70.670 -31.493  1.00  0.00    -0.276 OA
ENDBRANCH  25  26
ENDBRANCH  23  25
ENDBRANCH  10  23
BRANCH   1  28
HETATM   28  O2  UNL     1      47.326  75.965 -30.245  1.00  0.00    -0.314 OA
BRANCH  28  29
HETATM   29  C2  UNL     1      47.724  76.965 -31.036  1.00  0.00     0.255 C
HETATM   30  C1  UNL     1      48.414  78.189 -30.557  1.00  0.00     0.126 C
HETATM   31  O1  UNL     1      47.440  76.725 -32.210  1.00  0.00    -0.266 OA
ENDBRANCH  28  29
ENDBRANCH   1  28
TORSDOF 7
ENDMDL