MODEL 2
REMARK VINA RESULT: -7.850891877      4.886      7.703
REMARK  3 active torsions:
REMARK  status: ('A' for Active; 'I' for Inactive)
REMARK    1  A    between atoms: O1_2  and  C2_3
REMARK    2  A    between atoms: C2_3  and  C3_4
REMARK    3  A    between atoms: C14_17  and  S1_18
ROOT
HETATM    1  C3  UNL     1      53.526  69.366 -32.108  1.00  0.00     0.067 C
HETATM    2  C4  UNL     1      52.442  69.583 -32.836  1.00  0.00     0.015 C
HETATM    3  C5  UNL     1      52.565  70.964 -33.340  1.00  0.00     0.051 C
HETATM    4  C6  UNL     1      51.311  71.727 -33.573  1.00  0.00     0.034 C
HETATM    5  C7  UNL     1      51.211  71.857 -35.112  1.00  0.00     0.010 C
HETATM    6  C8  UNL     1      52.038  72.962 -35.651  1.00  0.00     0.031 C
HETATM    7  C9  UNL     1      53.178  73.440 -34.804  1.00  0.00     0.277 C
HETATM    8  N1  UNL     1      52.860  73.521 -33.432  1.00  0.00     0.129 N
HETATM    9  C10 UNL     1      53.805  72.920 -32.499  1.00  0.00     0.396 C
HETATM   10  O2  UNL     1      53.564  73.688 -31.295  1.00  0.00    -0.313 OA
HETATM   11  C11 UNL     1      52.214  73.736 -30.896  1.00  0.00     0.081 A
HETATM   12  C12 UNL     1      51.991  74.042 -29.556  1.00  0.00     0.051 A
HETATM   13  C13 UNL     1      50.692  74.103 -29.104  1.00  0.00    -0.002 A
HETATM   14  C14 UNL     1      50.387  74.403 -27.794  1.00  0.00     0.071 A
HETATM   15  C16 UNL     1      49.071  74.463 -27.369  1.00  0.00     0.043 A
HETATM   16  C17 UNL     1      48.008  74.229 -28.212  1.00  0.00     0.013 A
HETATM   17 BR1  UNL     1      46.195  74.320 -27.590  1.00  0.00    -0.051 Br
HETATM   18  C18 UNL     1      48.297  73.929 -29.519  1.00  0.00     0.031 A
HETATM   19  C19 UNL     1      49.612  73.864 -29.963  1.00  0.00    -0.022 A
HETATM   20  C20 UNL     1      49.896  73.567 -31.277  1.00  0.00     0.024 A
HETATM   21  C21 UNL     1      51.170  73.493 -31.777  1.00  0.00     0.010 A
HETATM   22  C22 UNL     1      51.502  73.188 -33.162  1.00  0.00     0.266 C
HETATM   23  C23 UNL     1      53.364  71.551 -32.197  1.00  0.00     0.196 C
HETATM   24  O5  UNL     1      54.332  70.528 -32.108  1.00  0.00    -0.343 OA
ENDROOT
BRANCH  14  25
HETATM   25  S1  UNL     1      51.686  74.691 -26.665  1.00  0.00     0.172 S
HETATM   26  C15 UNL     1      51.196  74.483 -24.975  1.00  0.00     0.167 C
HETATM   27  O3  UNL     1      52.136  76.110 -26.827  1.00  0.00    -0.223 OA
HETATM   28  O4  UNL     1      52.873  73.821 -27.000  1.00  0.00    -0.223 OA
ENDBRANCH  14  25
BRANCH   1  29
HETATM   29  C2  UNL     1      53.807  68.063 -31.404  1.00  0.00     0.231 C
BRANCH  29  30
HETATM   30  O1  UNL     1      52.611  67.474 -30.996  1.00  0.00    -0.390 OA
HETATM   31  C1  UNL     1      52.913  66.168 -30.614  1.00  0.00     0.201 C
ENDBRANCH  29  30
ENDBRANCH   1  29
TORSDOF 3
ENDMDL