MODEL 3
REMARK VINA RESULT: -7.338863397      3.666      6.888
REMARK  10 active torsions:
REMARK  status: ('A' for Active; 'I' for Inactive)
REMARK    1  A    between atoms: C2_2  and  C3_3
REMARK    2  A    between atoms: C3_3  and  N1_4
REMARK    3  A    between atoms: C10_11  and  C11_12
REMARK    4  A    between atoms: C12_13  and  C13_14
REMARK    5  A    between atoms: N2_20  and  O1_21
REMARK    6  A    between atoms: C22_27  and  C23_28
REMARK    7  A    between atoms: C23_28  and  O3_30
REMARK    8  A    between atoms: C25_32  and  C26_33
REMARK    9  A    between atoms: C26_33  and  O5_35
REMARK   10  A    between atoms: O5_35  and  C27_36
ROOT
HETATM    1  N1  UNL     1      52.426  71.293 -31.512  1.00  0.00    -0.364 N
HETATM    2  C4  UNL     1      53.577  71.652 -30.816  1.00  0.00     0.073 C
HETATM    3  C5  UNL     1      54.110  73.009 -31.051  1.00  0.00     0.068 C
HETATM    4  C6  UNL     1      53.507  74.140 -30.303  1.00  0.00     0.054 C
HETATM    5  C7  UNL     1      52.065  73.896 -30.080  1.00  0.00    -0.051 A
HETATM    6  C8  UNL     1      51.809  74.233 -28.748  1.00  0.00     0.009 A
HETATM    7  C9  UNL     1      50.515  74.122 -28.240  1.00  0.00     0.021 A
HETATM    8  C10 UNL     1      49.470  73.684 -29.023  1.00  0.00     0.018 A
HETATM    9  C18 UNL     1      49.751  73.358 -30.331  1.00  0.00     0.028 A
HETATM   10  C19 UNL     1      51.018  73.455 -30.866  1.00  0.00    -0.048 A
HETATM   11  C20 UNL     1      50.915  73.024 -32.282  1.00  0.00     0.069 C
HETATM   12  C21 UNL     1      52.050  72.131 -32.600  1.00  0.00     0.132 C
HETATM   13  C22 UNL     1      53.218  72.834 -33.274  1.00  0.00     0.053 C
HETATM   14  C25 UNL     1      54.223  73.265 -32.546  1.00  0.00     0.041 C
ENDROOT
BRANCH   8  15
HETATM   15  C11 UNL     1      48.140  73.581 -28.506  1.00  0.00    -0.060 C
HETATM   16  C12 UNL     1      47.004  73.521 -28.063  1.00  0.00    -0.041 C
BRANCH  16  17
HETATM   17  C13 UNL     1      45.669  73.478 -27.535  1.00  0.00     0.118 A
HETATM   18  C14 UNL     1      44.910  72.319 -27.497  1.00  0.00     0.083 A
HETATM   19  C15 UNL     1      43.638  72.294 -26.985  1.00  0.00     0.120 A
HETATM   20  F1  UNL     1      42.963  71.132 -26.982  1.00  0.00    -0.206 F
HETATM   21  C16 UNL     1      43.095  73.456 -26.495  1.00  0.00     0.062 A
HETATM   22  C17 UNL     1      43.845  74.608 -26.533  1.00  0.00     0.127 A
HETATM   23  N2  UNL     1      45.086  74.591 -27.040  1.00  0.00    -0.228 N
BRANCH  23  24
HETATM   24  O1  UNL     1      45.854  75.744 -27.084  1.00  0.00    -0.282 OA
ATOM     25  H1  UNL     1      45.666  76.392 -26.415  1.00  0.00     0.245 HD
ENDBRANCH  23  24
ENDBRANCH  16  17
ENDBRANCH   8  15
BRANCH   1  26
HETATM   26  C3  UNL     1      52.230  69.916 -31.715  1.00  0.00     0.063 C
BRANCH  26  27
HETATM   27  C2  UNL     1      51.754  69.489 -33.060  1.00  0.00     0.040 C
HETATM   28  C1  UNL     1      51.782  68.049 -33.397  1.00  0.00     0.010 C
ENDBRANCH  26  27
ENDBRANCH   1  26
BRANCH  13  29
HETATM   29  C23 UNL     1      53.055  72.946 -34.718  1.00  0.00     0.291 C
HETATM   30  O2  UNL     1      53.176  72.041 -35.531  1.00  0.00    -0.260 OA
BRANCH  29  31
HETATM   31  O3  UNL     1      52.722  74.205 -35.293  1.00  0.00    -0.323 OA
HETATM   32  C24 UNL     1      51.418  74.368 -35.845  1.00  0.00     0.213 C
ENDBRANCH  29  31
ENDBRANCH  13  29
BRANCH  14  33
HETATM   33  C26 UNL     1      55.425  73.953 -32.959  1.00  0.00     0.290 C
HETATM   34  O4  UNL     1      55.505  74.987 -33.590  1.00  0.00    -0.260 OA
BRANCH  33  35
HETATM   35  O5  UNL     1      56.663  73.368 -32.593  1.00  0.00    -0.318 OA
BRANCH  35  36
HETATM   36  C27 UNL     1      57.824  74.206 -32.584  1.00  0.00     0.174 C
HETATM   37  C28 UNL     1      59.024  73.304 -32.619  1.00  0.00     0.034 C
ENDBRANCH  35  36
ENDBRANCH  33  35
ENDBRANCH  14  33
TORSDOF 10
ENDMDL