MODEL 1
REMARK VINA RESULT: -7.182445777      0.000      0.000
REMARK  6 active torsions:
REMARK  status: ('A' for Active; 'I' for Inactive)
REMARK    1  A    between atoms: C2_2  and  C3_3
REMARK       I    between atoms: N1_6  and  C5_8
REMARK    2  A    between atoms: C5_8  and  C6_10
REMARK    3  A    between atoms: C10_14  and  C12_16
REMARK    4  A    between atoms: C16_20  and  C17_21
REMARK    5  A    between atoms: C17_21  and  O3_23
REMARK    6  A    between atoms: O3_23  and  C18_24
ROOT
HETATM    1  C3  UNL     1      55.995  73.763 -32.583  1.00  0.00    -0.041 C
HETATM    2  C4  UNL     1      57.084  73.320 -32.307  1.00  0.00    -0.017 C
HETATM    3 BR1  UNL     1      58.783  72.610 -31.904  1.00  0.00     0.011 Br
ENDROOT
BRANCH   1   4
HETATM    4  C2  UNL     1      54.701  74.275 -32.932  1.00  0.00     0.063 C
HETATM    5  C1  UNL     1      54.558  75.398 -33.899  1.00  0.00     0.079 C
HETATM    6  N1  UNL     1      53.639  73.752 -32.394  1.00  0.00    -0.323 N
HETATM    7  C5  UNL     1      52.331  74.248 -32.726  1.00  0.00     0.231 C
ATOM      8  H1  UNL     1      53.736  72.983 -31.731  1.00  0.00     0.169 HD
HETATM    9  O1  UNL     1      52.058  74.325 -33.946  1.00  0.00    -0.272 OA
BRANCH   7  10
HETATM   10  C6  UNL     1      51.357  74.649 -31.648  1.00  0.00     0.117 C
HETATM   11  C7  UNL     1      52.096  75.692 -30.846  1.00  0.00     0.044 C
HETATM   12  C8  UNL     1      51.559  75.708 -29.395  1.00  0.00     0.085 C
HETATM   13  C9  UNL     1      50.059  75.958 -29.603  1.00  0.00     0.037 C
HETATM   14  N3  UNL     1      51.742  74.416 -28.902  1.00  0.00    -0.385 N
HETATM   15  C10 UNL     1      49.502  74.612 -29.170  1.00  0.00    -0.015 C
HETATM   16  C11 UNL     1      49.371  74.700 -27.642  1.00  0.00     0.018 C
HETATM   17  C15 UNL     1      50.596  73.642 -29.450  1.00  0.00     0.128 C
HETATM   18  C16 UNL     1      51.076  73.408 -30.827  1.00  0.00     0.032 C
HETATM   19  C24 UNL     1      52.265  74.075 -27.700  1.00  0.00     0.116 C
BRANCH  15  20
HETATM   20  C12 UNL     1      48.146  74.349 -29.682  1.00  0.00    -0.012 C
HETATM   21  C13 UNL     1      47.177  75.264 -28.900  1.00  0.00     0.010 C
HETATM   22  C14 UNL     1      47.640  72.951 -29.304  1.00  0.00     0.010 C
ENDBRANCH  15  20
BRANCH  18  23
HETATM   23  C17 UNL     1      50.526  72.324 -31.612  1.00  0.00     0.289 C
HETATM   24  O2  UNL     1      49.625  72.337 -32.443  1.00  0.00    -0.260 OA
BRANCH  23  25
HETATM   25  O3  UNL     1      51.093  71.041 -31.417  1.00  0.00    -0.296 OA
BRANCH  25  26
HETATM   26  C18 UNL     1      52.309  70.659 -32.014  1.00  0.00     0.274 A
HETATM   27  C19 UNL     1      53.454  70.454 -31.182  1.00  0.00     0.264 A
HETATM   28  O4  UNL     1      54.232  71.148 -30.497  1.00  0.00    -0.269 OA
HETATM   29  N2  UNL     1      53.380  69.067 -31.439  1.00  0.00    -0.291 N
HETATM   30  C20 UNL     1      53.709  67.735 -31.385  1.00  0.00     0.100 A
HETATM   31  C23 UNL     1      52.338  69.200 -32.203  1.00  0.00     0.058 A
HETATM   32  C21 UNL     1      52.829  67.027 -32.149  1.00  0.00     0.020 A
HETATM   33  C22 UNL     1      51.951  67.936 -32.677  1.00  0.00     0.030 A
ENDBRANCH  25  26
ENDBRANCH  23  25
ENDBRANCH  18  23
ENDBRANCH   7  10
ENDBRANCH   1   4
TORSDOF 6
ENDMDL