MODEL 4
REMARK VINA RESULT: -8.911664815      2.408      5.038
REMARK  4 active torsions:
REMARK  status: ('A' for Active; 'I' for Inactive)
REMARK    1  A    between atoms: C2_2  and  C4_4
REMARK    2  A    between atoms: C4_4  and  C5_5
REMARK    3  A    between atoms: C7_9  and  N2_10
REMARK    4  A    between atoms: C9_12  and  C10_13
ROOT
HETATM    1  C5  UNL     1      51.619  71.227 -32.734  1.00  0.00     0.225 C
HETATM    2  C6  UNL     1      50.482  72.095 -32.548  1.00  0.00     0.249 C
HETATM    3  O1  UNL     1      49.288  71.743 -32.693  1.00  0.00    -0.271 OA
HETATM    4  N1  UNL     1      50.893  73.425 -32.168  1.00  0.00    -0.281 N
HETATM    5  C7  UNL     1      50.197  74.345 -31.330  1.00  0.00     0.129 C
HETATM    6  C17 UNL     1      50.332  75.584 -31.651  1.00  0.00     0.034 C
HETATM    7  C18 UNL     1      51.129  76.045 -32.794  1.00  0.00    -0.013 C
HETATM    8  C19 UNL     1      50.106  76.187 -33.967  1.00  0.00     0.020 C
HETATM    9  C20 UNL     1      51.437  77.471 -32.413  1.00  0.00     0.020 C
HETATM   10  C21 UNL     1      52.276  75.205 -33.230  1.00  0.00     0.038 C
HETATM   11  C22 UNL     1      52.672  75.296 -34.698  1.00  0.00     0.028 C
HETATM   12  C23 UNL     1      52.841  76.782 -34.974  1.00  0.00     0.238 C
HETATM   13  N4  UNL     1      53.584  77.136 -33.780  1.00  0.00    -0.070 N
ATOM     14  H41 UNL     1      53.192  77.895 -33.223  1.00  0.00     0.277 HD
ATOM     15  H42 UNL     1      54.479  77.600 -33.937  1.00  0.00     0.277 HD
HETATM   16  C24 UNL     1      53.653  75.840 -33.123  1.00  0.00     0.199 C
HETATM   17  C25 UNL     1      54.143  75.107 -34.383  1.00  0.00     0.041 C
HETATM   18  C26 UNL     1      52.168  73.830 -32.680  1.00  0.00     0.230 C
HETATM   19  S1  UNL     1      52.689  72.424 -33.531  1.00  0.00     0.183 S
HETATM   20  O2  UNL     1      52.375  72.364 -34.959  1.00  0.00    -0.225 OA
HETATM   21  O3  UNL     1      54.032  71.847 -33.158  1.00  0.00    -0.225 OA
ENDROOT
BRANCH   5  22
HETATM   22  N2  UNL     1      49.371  73.888 -30.229  1.00  0.00    -0.251 N
HETATM   23  C8  UNL     1      48.268  74.526 -29.835  1.00  0.00     0.132 A
HETATM   24  C9  UNL     1      47.736  73.811 -28.760  1.00  0.00     0.012 A
HETATM   25  C16 UNL     1      48.582  72.746 -28.567  1.00  0.00     0.121 A
HETATM   26  N3  UNL     1      49.550  72.834 -29.474  1.00  0.00    -0.303 N
ATOM     27  H3  UNL     1      50.322  72.174 -29.567  1.00  0.00     0.186 HD
BRANCH  24  28
HETATM   28  C10 UNL     1      46.517  74.158 -28.014  1.00  0.00     0.015 A
HETATM   29  C11 UNL     1      46.392  75.389 -27.417  1.00  0.00     0.015 A
HETATM   30  C12 UNL     1      45.269  75.735 -26.719  1.00  0.00     0.001 A
HETATM   31  C13 UNL     1      44.232  74.844 -26.602  1.00  0.00     0.003 A
HETATM   32  C14 UNL     1      44.305  73.581 -27.188  1.00  0.00     0.043 A
HETATM   33  C15 UNL     1      45.460  73.281 -27.882  1.00  0.00     0.127 A
HETATM   34  F1  UNL     1      45.566  72.067 -28.462  1.00  0.00    -0.205 F
ENDBRANCH  24  28
ENDBRANCH   5  22
BRANCH   1  35
HETATM   35  C4  UNL     1      51.562  69.896 -33.176  1.00  0.00     0.005 C
BRANCH  35  36
HETATM   36  C2  UNL     1      52.328  68.725 -32.788  1.00  0.00    -0.090 C
HETATM   37  C1  UNL     1      53.153  68.752 -31.544  1.00  0.00     0.042 C
HETATM   38  C3  UNL     1      51.657  67.378 -33.010  1.00  0.00     0.042 C
ENDBRANCH  35  36
ENDBRANCH   1  35
TORSDOF 4
ENDMDL