MODEL 5
REMARK VINA RESULT: -7.274562076      3.222      6.688
REMARK  4 active torsions:
REMARK  status: ('A' for Active; 'I' for Inactive)
REMARK    1  A    between atoms: C12_14  and  C13_15
REMARK    2  A    between atoms: C13_15  and  N1_16
REMARK    3  A    between atoms: N2_25  and  C21_26
REMARK    4  A    between atoms: C21_26  and  C22_27
ROOT
HETATM    1 BR1  UNL     1      47.616  76.749 -29.652  1.00  0.00    -0.051 Br
HETATM    2  C1  UNL     1      48.356  75.024 -29.933  1.00  0.00     0.018 A
HETATM    3  C2  UNL     1      49.273  74.737 -30.819  1.00  0.00    -0.026 A
HETATM    4  C3  UNL     1      49.801  75.791 -31.685  1.00  0.00     0.066 C
HETATM    5  C4  UNL     1      51.120  75.500 -32.362  1.00  0.00     0.088 C
HETATM    6  C5  UNL     1      52.104  74.846 -31.400  1.00  0.00     0.027 C
HETATM    7  C6  UNL     1      52.535  73.463 -31.841  1.00  0.00     0.024 C
HETATM    8  C7  UNL     1      51.387  72.736 -32.384  1.00  0.00     0.067 C
HETATM    9  C8  UNL     1      50.378  72.427 -31.300  1.00  0.00     0.073 C
HETATM   10  C9  UNL     1      49.567  73.285 -30.721  1.00  0.00     0.002 A
HETATM   11  C10 UNL     1      48.701  72.790 -29.670  1.00  0.00     0.016 A
HETATM   12  C11 UNL     1      47.983  73.824 -29.204  1.00  0.00     0.020 A
HETATM   13  O1  UNL     1      50.815  71.136 -31.395  1.00  0.00    -0.336 OA
HETATM   14  C12 UNL     1      51.469  71.274 -32.710  1.00  0.00     0.115 C
HETATM   15  C18 UNL     1      50.519  71.148 -33.829  1.00  0.00     0.047 C
HETATM   16  C19 UNL     1      50.661  72.514 -34.590  1.00  0.00     0.030 C
HETATM   17  C20 UNL     1      50.596  73.454 -33.452  1.00  0.00     0.102 C
HETATM   18  N2  UNL     1      50.998  74.798 -33.587  1.00  0.00    -0.382 N
ENDROOT
BRANCH  14  19
HETATM   19  C13 UNL     1      52.815  70.686 -32.675  1.00  0.00     0.098 C
BRANCH  19  20
HETATM   20  N1  UNL     1      52.963  69.316 -32.546  1.00  0.00    -0.386 N
HETATM   21  C14 UNL     1      52.104  68.372 -33.118  1.00  0.00     0.148 C
HETATM   22  C15 UNL     1      52.824  67.003 -33.046  1.00  0.00     0.187 C
HETATM   23  O2  UNL     1      52.813  66.666 -31.704  1.00  0.00    -0.388 OA
HETATM   24  C16 UNL     1      53.569  67.518 -30.936  1.00  0.00     0.187 C
HETATM   25  C17 UNL     1      53.440  68.966 -31.220  1.00  0.00     0.148 C
ENDBRANCH  19  20
ENDBRANCH  14  19
BRANCH  18  26
HETATM   26  C21 UNL     1      51.331  75.334 -34.812  1.00  0.00     0.064 C
BRANCH  26  27
HETATM   27  C22 UNL     1      50.521  76.394 -35.451  1.00  0.00     0.028 C
HETATM   28  C23 UNL     1      49.025  76.051 -35.299  1.00  0.00     0.036 C
HETATM   29  C24 UNL     1      48.624  75.277 -36.525  1.00  0.00     0.168 C
HETATM   30  O3  UNL     1      48.418  76.171 -37.584  1.00  0.00    -0.391 OA
HETATM   31  C25 UNL     1      49.376  77.180 -37.515  1.00  0.00     0.168 C
HETATM   32  C26 UNL     1      50.681  76.616 -36.925  1.00  0.00     0.036 C
ENDBRANCH  26  27
ENDBRANCH  18  26
TORSDOF 4
ENDMDL