MODEL 1
REMARK VINA RESULT: -5.923855971      0.000      0.000
REMARK  5 active torsions:
REMARK  status: ('A' for Active; 'I' for Inactive)
REMARK    1  A    between atoms: C2_2  and  C3_3
REMARK    2  A    between atoms: N1_14  and  O3_15
REMARK    3  A    between atoms: C16_21  and  C17_22
REMARK    4  A    between atoms: C16_21  and  S1_24
REMARK    5  A    between atoms: S1_24  and  C18_27
ROOT
HETATM    1  C3  UNL     1      53.956  74.389 -30.806  1.00  0.00     0.019 C
HETATM    2  C4  UNL     1      53.605  74.156 -29.291  1.00  0.00     0.026 C
HETATM    3  C5  UNL     1      54.816  75.598 -30.691  1.00  0.00    -0.010 C
HETATM    4  C6  UNL     1      54.732  76.716 -31.337  1.00  0.00     0.011 C
HETATM    5  C7  UNL     1      53.653  76.814 -32.307  1.00  0.00     0.002 C
HETATM    6  C8  UNL     1      53.517  77.951 -33.012  1.00  0.00     0.027 C
HETATM    7  C9  UNL     1      52.739  75.714 -32.516  1.00  0.00     0.182 C
HETATM    8  O1  UNL     1      51.938  75.874 -33.473  1.00  0.00    -0.291 OA
HETATM    9  C10 UNL     1      52.770  74.521 -31.651  1.00  0.00     0.149 C
HETATM   10  C11 UNL     1      51.654  74.849 -30.655  1.00  0.00     0.266 C
HETATM   11  O2  UNL     1      51.371  75.987 -30.173  1.00  0.00    -0.269 OA
HETATM   12  N1  UNL     1      51.011  73.677 -30.378  1.00  0.00    -0.213 N
HETATM   13  C12 UNL     1      51.075  72.844 -31.558  1.00  0.00     0.082 C
HETATM   14  C13 UNL     1      51.088  71.433 -31.050  1.00  0.00     0.046 C
HETATM   15  C14 UNL     1      49.762  73.141 -32.288  1.00  0.00     0.046 C
HETATM   16  C15 UNL     1      52.244  73.300 -32.319  1.00  0.00    -0.004 C
HETATM   17  C16 UNL     1      52.652  72.709 -33.466  1.00  0.00     0.058 C
ENDROOT
BRANCH  17  18
HETATM   18  C17 UNL     1      53.806  73.313 -34.266  1.00  0.00     0.136 C
HETATM   19 BR1  UNL     1      53.163  74.255 -35.851  1.00  0.00    -0.091 Br
ENDBRANCH  17  18
BRANCH  17  20
HETATM   20  S1  UNL     1      52.049  71.328 -34.292  1.00  0.00     0.204 S
HETATM   21  O4  UNL     1      50.636  71.275 -34.679  1.00  0.00    -0.217 OA
HETATM   22  O5  UNL     1      52.785  71.102 -35.634  1.00  0.00    -0.217 OA
BRANCH  20  23
HETATM   23  C18 UNL     1      52.384  69.832 -33.406  1.00  0.00     0.064 A
HETATM   24  C19 UNL     1      51.641  68.708 -33.449  1.00  0.00     0.024 A
HETATM   25  C20 UNL     1      51.970  67.580 -32.737  1.00  0.00     0.002 A
HETATM   26  C21 UNL     1      53.082  67.522 -31.932  1.00  0.00     0.000 A
HETATM   27  C22 UNL     1      53.849  68.661 -31.880  1.00  0.00     0.002 A
HETATM   28  C23 UNL     1      53.524  69.791 -32.590  1.00  0.00     0.024 A
ENDBRANCH  20  23
ENDBRANCH  17  20
BRANCH   1  29
HETATM   29  C2  UNL     1      54.923  73.309 -31.184  1.00  0.00    -0.022 C
HETATM   30  C1  UNL     1      55.233  72.330 -30.403  1.00  0.00     0.008 C
ENDBRANCH   1  29
BRANCH  12  31
HETATM   31  O3  UNL     1      50.363  73.283 -29.218  1.00  0.00    -0.284 OA
ATOM     32  H3  UNL     1      49.902  73.811 -28.577  1.00  0.00     0.245 HD
ENDBRANCH  12  31
TORSDOF 5
ENDMDL