MODEL 3
REMARK VINA RESULT: -8.151630764      0.989      1.178
REMARK  5 active torsions:
REMARK  status: ('A' for Active; 'I' for Inactive)
REMARK    1  A    between atoms: C2_2  and  C3_3
REMARK    2  A    between atoms: C3_3  and  C4_4
REMARK    3  A    between atoms: C4_4  and  O1_5
REMARK    4  A    between atoms: O1_5  and  C5_6
REMARK    5  A    between atoms: C5_6  and  C6_8
ROOT
HETATM    1  C6  UNL     1      50.201  72.666 -31.729  1.00  0.00     0.057 A
HETATM    2  C7  UNL     1      49.078  72.684 -30.893  1.00  0.00     0.032 A
HETATM    3  C8  UNL     1      49.021  73.432 -29.736  1.00  0.00    -0.007 A
HETATM    4  C9  UNL     1      50.138  74.199 -29.398  1.00  0.00     0.048 A
HETATM    5  C10 UNL     1      51.247  74.193 -30.206  1.00  0.00     0.050 A
HETATM    6  C11 UNL     1      51.276  73.436 -31.358  1.00  0.00     0.029 A
HETATM    7 BR1  UNL     1      52.823  73.438 -32.470  1.00  0.00    -0.050 Br
HETATM    8  N1  UNL     1      50.265  75.023 -28.257  1.00  0.00    -0.321 N
HETATM    9  C12 UNL     1      51.603  75.461 -27.975  1.00  0.00     0.159 C
HETATM   10  C13 UNL     1      49.208  75.438 -27.395  1.00  0.00     0.240 C
HETATM   11  O3  UNL     1      49.519  76.487 -26.741  1.00  0.00    -0.272 OA
HETATM   12  C14 UNL     1      47.880  74.940 -27.100  1.00  0.00     0.191 C
HETATM   13  C15 UNL     1      46.920  76.086 -27.070  1.00  0.00     0.179 C
HETATM   14  O4  UNL     1      47.372  77.221 -27.446  1.00  0.00    -0.291 OA
HETATM   15  C16 UNL     1      45.516  76.143 -26.675  1.00  0.00     0.038 A
HETATM   16  C17 UNL     1      45.118  77.402 -26.240  1.00  0.00     0.017 A
HETATM   17  C18 UNL     1      43.815  77.582 -25.840  1.00  0.00     0.001 A
HETATM   18  C19 UNL     1      42.917  76.538 -25.869  1.00  0.00     0.002 A
HETATM   19  C20 UNL     1      43.328  75.284 -26.306  1.00  0.00     0.031 A
HETATM   20  C21 UNL     1      44.624  75.085 -26.709  1.00  0.00     0.051 A
HETATM   21  N2  UNL     1      44.854  73.724 -27.130  1.00  0.00    -0.317 N
HETATM   22  C22 UNL     1      43.831  72.757 -26.799  1.00  0.00     0.159 C
HETATM   23  C23 UNL     1      46.017  73.302 -27.841  1.00  0.00     0.255 C
HETATM   24  O5  UNL     1      45.853  72.200 -28.440  1.00  0.00    -0.267 OA
HETATM   25  C24 UNL     1      47.347  73.918 -27.993  1.00  0.00     0.032 C
HETATM   26  C25 UNL     1      47.763  73.275 -29.068  1.00  0.00     0.027 C
ENDROOT
BRANCH   1  27
HETATM   27  C5  UNL     1      50.189  71.857 -32.929  1.00  0.00     0.294 C
HETATM   28  O2  UNL     1      49.557  72.272 -33.953  1.00  0.00    -0.259 OA
BRANCH  27  29
HETATM   29  O1  UNL     1      50.818  70.651 -33.057  1.00  0.00    -0.317 OA
BRANCH  29  30
HETATM   30  C4  UNL     1      51.939  70.471 -33.942  1.00  0.00     0.179 C
BRANCH  30  31
HETATM   31  C3  UNL     1      52.778  69.357 -33.363  1.00  0.00     0.026 C
BRANCH  31  32
HETATM   32  C2  UNL     1      51.940  68.261 -32.777  1.00  0.00    -0.002 C
HETATM   33  C1  UNL     1      52.701  66.979 -32.608  1.00  0.00     0.005 C
ENDBRANCH  31  32
ENDBRANCH  30  31
ENDBRANCH  29  30
ENDBRANCH  27  29
ENDBRANCH   1  27
TORSDOF 5
ENDMDL