MODEL 4
REMARK VINA RESULT: -7.800076840      5.420      7.974
REMARK  4 active torsions:
REMARK  status: ('A' for Active; 'I' for Inactive)
REMARK    1  A    between atoms: C11_11  and  O1_12
REMARK    2  A    between atoms: O1_12  and  C12_13
REMARK    3  A    between atoms: C12_13  and  C13_14
REMARK    4  A    between atoms: C15_16  and  O2_17
ROOT
HETATM    1  C1  UNL     1      53.439  67.325 -31.839  1.00  0.00     0.014 C
HETATM    2  C2  UNL     1      52.907  68.465 -32.198  1.00  0.00    -0.089 C
HETATM    3  C3  UNL     1      52.702  69.539 -31.178  1.00  0.00     0.036 C
HETATM    4  C4  UNL     1      52.069  70.753 -31.769  1.00  0.00     0.051 C
HETATM    5  C5  UNL     1      52.710  71.233 -33.045  1.00  0.00     0.189 C
HETATM    6  C6  UNL     1      53.100  70.093 -33.966  1.00  0.00     0.051 C
HETATM    7  C7  UNL     1      52.479  68.779 -33.584  1.00  0.00     0.036 C
HETATM    8  C8  UNL     1      53.952  71.985 -32.750  1.00  0.00    -0.011 A
HETATM    9  C9  UNL     1      55.183  71.529 -32.284  1.00  0.00     0.013 A
HETATM   10  C10 UNL     1      56.219  72.390 -32.071  1.00  0.00     0.037 A
HETATM   11  C11 UNL     1      56.021  73.724 -32.328  1.00  0.00     0.069 A
HETATM   12  C21 UNL     1      54.805  74.170 -32.789  1.00  0.00     0.046 A
HETATM   13  C22 UNL     1      53.725  73.305 -33.015  1.00  0.00    -0.013 A
HETATM   14  C23 UNL     1      52.362  73.474 -33.485  1.00  0.00     0.272 C
HETATM   15  C24 UNL     1      52.285  74.252 -34.805  1.00  0.00     0.181 C
HETATM   16  S1  UNL     1      50.562  74.205 -35.246  1.00  0.00     0.148 S
HETATM   17  O3  UNL     1      49.977  75.528 -34.766  1.00  0.00    -0.228 OA
HETATM   18  O4  UNL     1      50.419  74.251 -36.760  1.00  0.00    -0.228 OA
HETATM   19  C25 UNL     1      49.700  72.843 -34.561  1.00  0.00     0.170 C
HETATM   20  C26 UNL     1      50.496  71.973 -33.663  1.00  0.00     0.290 C
HETATM   21  N2  UNL     1      51.916  72.150 -33.787  1.00  0.00     0.113 N
ENDROOT
BRANCH  11  22
HETATM   22  O1  UNL     1      57.037  74.648 -32.131  1.00  0.00    -0.351 OA
BRANCH  22  23
HETATM   23  C12 UNL     1      57.522  74.950 -30.852  1.00  0.00     0.182 C
BRANCH  23  24
HETATM   24  C13 UNL     1      58.674  73.994 -30.557  1.00  0.00     0.041 C
HETATM   25  C14 UNL     1      59.858  74.492 -31.330  1.00  0.00     0.040 C
HETATM   26  C15 UNL     1      60.813  73.384 -31.717  1.00  0.00     0.123 C
HETATM   27  C17 UNL     1      61.387  72.653 -30.558  1.00  0.00     0.063 C
HETATM   28  C18 UNL     1      61.143  73.315 -29.228  1.00  0.00     0.281 C
HETATM   29  N1  UNL     1      59.866  73.006 -28.653  1.00  0.00     0.080 N
HETATM   30  C19 UNL     1      59.451  71.645 -28.871  1.00  0.00     0.317 C
HETATM   31  F1  UNL     1      59.993  73.158 -27.300  1.00  0.00    -0.018 F
HETATM   32  C20 UNL     1      58.875  73.963 -29.078  1.00  0.00     0.285 C
BRANCH  26  33
HETATM   33  O2  UNL     1      60.157  72.575 -32.630  1.00  0.00    -0.391 OA
HETATM   34  C16 UNL     1      59.824  73.223 -33.806  1.00  0.00     0.202 C
ENDBRANCH  26  33
ENDBRANCH  23  24
ENDBRANCH  22  23
ENDBRANCH  11  22
TORSDOF 4
ENDMDL