MODEL 3
REMARK VINA RESULT: -8.040845222      2.270      3.598
REMARK  7 active torsions:
REMARK  status: ('A' for Active; 'I' for Inactive)
REMARK    1  A    between atoms: N2_10  and  C9_12
REMARK    2  A    between atoms: C9_12  and  C10_13
REMARK    3  A    between atoms: C12_15  and  O1_16
REMARK    4  A    between atoms: C18_25  and  C19_26
REMARK    5  A    between atoms: C20_27  and  C21_28
REMARK    6  A    between atoms: C21_28  and  O2_29
REMARK    7  A    between atoms: O2_29  and  C22_30
ROOT
HETATM    1  N1  UNL     1      44.195  74.267 -27.302  1.00  0.00    -0.191 NA
HETATM    2  C1  UNL     1      45.299  74.128 -27.617  1.00  0.00     0.099 C
HETATM    3  C2  UNL     1      46.671  73.978 -28.011  1.00  0.00     0.045 A
HETATM    4  C3  UNL     1      47.498  73.024 -27.458  1.00  0.00     0.025 A
HETATM    5  C4  UNL     1      48.808  72.931 -27.878  1.00  0.00     0.039 A
HETATM    6  C5  UNL     1      49.262  73.802 -28.849  1.00  0.00     0.082 A
HETATM    7  C6  UNL     1      48.438  74.765 -29.410  1.00  0.00     0.042 A
HETATM    8  C7  UNL     1      47.120  74.864 -28.992  1.00  0.00     0.040 A
HETATM    9  C8  UNL     1      48.775  75.779 -30.456  1.00  0.00     0.113 C
HETATM   10  N2  UNL     1      48.053  76.761 -30.485  1.00  0.00    -0.375 N
ATOM     11  H2  UNL     1      47.376  76.602 -29.739  1.00  0.00     0.161 HD
HETATM   12  N3  UNL     1      49.876  75.577 -31.340  1.00  0.00    -0.355 N
HETATM   13  C13 UNL     1      49.579  76.082 -32.663  1.00  0.00     0.130 C
HETATM   14  C14 UNL     1      50.055  75.187 -33.765  1.00  0.00     0.062 C
HETATM   15  C15 UNL     1      50.761  73.961 -33.315  1.00  0.00    -0.009 A
HETATM   16  C16 UNL     1      50.890  72.874 -34.195  1.00  0.00     0.124 A
HETATM   17  F1  UNL     1      50.345  73.008 -35.429  1.00  0.00    -0.205 F
HETATM   18  C17 UNL     1      51.549  71.739 -33.790  1.00  0.00     0.063 A
HETATM   19  C18 UNL     1      52.105  71.599 -32.534  1.00  0.00     0.021 A
HETATM   20  C26 UNL     1      51.965  72.676 -31.694  1.00  0.00     0.030 A
HETATM   21  C27 UNL     1      51.310  73.837 -32.062  1.00  0.00    -0.022 A
HETATM   22  C28 UNL     1      51.170  74.978 -31.140  1.00  0.00     0.144 C
HETATM   23  C29 UNL     1      51.465  74.605 -29.709  1.00  0.00     0.206 C
HETATM   24  O4  UNL     1      50.616  73.606 -29.192  1.00  0.00    -0.348 OA
ENDROOT
BRANCH  10  25
HETATM   25  C9  UNL     1      47.693  77.967 -31.014  1.00  0.00     0.128 C
BRANCH  25  26
HETATM   26  C10 UNL     1      46.169  78.039 -31.221  1.00  0.00     0.035 A
HETATM   27  C11 UNL     1      45.505  79.077 -30.373  1.00  0.00     0.041 A
HETATM   28  C12 UNL     1      45.285  77.577 -30.122  1.00  0.00     0.124 A
BRANCH  28  29
HETATM   29  O1  UNL     1      44.016  77.088 -30.428  1.00  0.00    -0.395 OA
ATOM     30  H1  UNL     1      43.274  77.681 -30.410  1.00  0.00     0.210 HD
ENDBRANCH  28  29
ENDBRANCH  25  26
ENDBRANCH  10  25
BRANCH  19  31
HETATM   31  C19 UNL     1      52.792  70.396 -32.142  1.00  0.00    -0.065 C
HETATM   32  C20 UNL     1      53.373  69.393 -31.798  1.00  0.00    -0.075 C
BRANCH  32  33
HETATM   33  C21 UNL     1      54.086  68.173 -31.353  1.00  0.00     0.262 C
BRANCH  33  34
HETATM   34  O2  UNL     1      53.475  67.103 -31.989  1.00  0.00    -0.372 OA
BRANCH  34  35
HETATM   35  C22 UNL     1      52.161  66.924 -31.600  1.00  0.00     0.148 C
HETATM   36  C23 UNL     1      52.118  65.671 -30.720  1.00  0.00     0.060 C
HETATM   37  C24 UNL     1      51.304  64.705 -31.552  1.00  0.00     0.170 C
HETATM   38  O3  UNL     1      50.431  65.507 -32.288  1.00  0.00    -0.389 OA
HETATM   39  C25 UNL     1      51.233  66.575 -32.723  1.00  0.00     0.199 C
ENDBRANCH  34  35
ENDBRANCH  33  34
ENDBRANCH  32  33
ENDBRANCH  19  31
TORSDOF 7
ENDMDL