MODEL 4
REMARK VINA RESULT: -3.815981273      0.920      1.100
REMARK  2 active torsions:
REMARK  status: ('A' for Active; 'I' for Inactive)
REMARK    1  A    between atoms: N1_2  and  C4_5
REMARK    2  A    between atoms: C4_5  and  C5_6
ROOT
HETATM    1  C5  UNL     1      52.255  68.649 -30.509  1.00  0.00     0.213 C
HETATM    2  C6  UNL     1      52.868  67.731 -29.506  1.00  0.00     0.062 C
HETATM    3  C7  UNL     1      52.897  66.616 -30.553  1.00  0.00     0.235 C
HETATM    4  N2  UNL     1      52.584  67.656 -31.540  1.00  0.00    -0.069 N
ATOM      5  H21 UNL     1      53.286  67.892 -32.241  1.00  0.00     0.277 HD
ATOM      6  H22 UNL     1      51.892  67.452 -32.262  1.00  0.00     0.277 HD
ENDROOT
BRANCH   1   7
HETATM    7  C4  UNL     1      52.933  69.933 -30.793  1.00  0.00     0.269 C
BRANCH   7   8
HETATM    8  N1  UNL     1      52.139  71.104 -30.669  1.00  0.00    -0.077 N
HETATM    9  C1  UNL     1      52.858  72.338 -30.869  1.00  0.00     0.271 C
HETATM   10  C2  UNL     1      51.601  71.135 -29.307  1.00  0.00     0.271 C
HETATM   11  C3  UNL     1      51.010  71.110 -31.582  1.00  0.00     0.271 C
ENDBRANCH   7   8
ENDBRANCH   1   7
TORSDOF 2
ENDMDL