MODEL 5
REMARK VINA RESULT: -3.138095741      1.374      2.346
REMARK  1 active torsions:
REMARK  status: ('A' for Active; 'I' for Inactive)
REMARK    1  A    between atoms: N1_2  and  C4_5
ROOT
HETATM    1  C4  UNL     1      53.176  69.505 -30.652  1.00  0.00     0.240 C
HETATM    2  C5  UNL     1      52.643  68.166 -30.966  1.00  0.00     0.267 C
HETATM    3  N2  UNL     1      52.640  67.830 -29.538  1.00  0.00    -0.071 N
ATOM      4  H21 UNL     1      52.772  66.869 -29.222  1.00  0.00     0.277 HD
ATOM      5  H22 UNL     1      51.780  67.866 -28.989  1.00  0.00     0.277 HD
HETATM    6  C6  UNL     1      53.669  68.814 -29.373  1.00  0.00     0.267 C
ENDROOT
BRANCH   1   7
HETATM    7  N1  UNL     1      52.318  70.603 -30.454  1.00  0.00    -0.071 N
HETATM    8  C1  UNL     1      51.044  70.542 -31.099  1.00  0.00     0.272 C
HETATM    9  C2  UNL     1      52.973  71.837 -30.934  1.00  0.00     0.272 C
HETATM   10  C3  UNL     1      52.062  70.903 -29.035  1.00  0.00     0.272 C
ENDBRANCH   1   7
TORSDOF 1
ENDMDL