MODEL 2
REMARK VINA RESULT: -3.707762085      1.265      1.896
REMARK  1 active torsions:
REMARK  status: ('A' for Active; 'I' for Inactive)
REMARK    1  A    between atoms: C2_2  and  N1_3
ROOT
HETATM    1  N1  UNL     1      52.924  68.948 -30.001  1.00  0.00     0.011 N
HETATM    2  C3  UNL     1      54.031  69.858 -29.663  1.00  0.00     0.268 C
HETATM    3  C4  UNL     1      53.120  70.906 -30.232  1.00  0.00     0.058 C
HETATM    4  C5  UNL     1      52.929  70.433 -31.640  1.00  0.00     0.150 C
HETATM    5  N2  UNL     1      52.781  68.986 -31.374  1.00  0.00    -0.046 NA
HETATM    6  C6  UNL     1      52.075  70.047 -29.505  1.00  0.00     0.268 C
ENDROOT
BRANCH   1   7
HETATM    7  C2  UNL     1      52.860  67.734 -29.318  1.00  0.00     0.256 C
HETATM    8  C1  UNL     1      52.884  66.499 -30.193  1.00  0.00     0.036 C
ENDBRANCH   1   7
TORSDOF 1
ENDMDL