MODEL 1
REMARK VINA RESULT: -4.814663560      0.000      0.000
REMARK  3 active torsions:
REMARK  status: ('A' for Active; 'I' for Inactive)
REMARK    1  A    between atoms: N1_1  and  N2_4
REMARK    2  A    between atoms: C1_6  and  N3_7
REMARK    3  A    between atoms: N3_7  and  C2_9
ROOT
HETATM    1  N2  UNL     1      51.531  64.717 -28.750  1.00  0.00    -0.303 N
ATOM      2  H2  UNL     1      51.336  64.416 -27.795  1.00  0.00     0.187 HD
HETATM    3  C1  UNL     1      52.686  65.184 -28.632  1.00  0.00     0.192 C
ENDROOT
BRANCH   3   4
HETATM    4  N3  UNL     1      52.935  66.437 -27.956  1.00  0.00    -0.381 N
ATOM      5  H3  UNL     1      52.758  66.637 -26.972  1.00  0.00     0.160 HD
BRANCH   4   6
HETATM    6  C2  UNL     1      53.469  67.337 -28.908  1.00  0.00     0.082 C
HETATM    7  C3  UNL     1      53.426  68.820 -28.528  1.00  0.00     0.025 C
HETATM    8  C4  UNL     1      53.353  69.042 -30.046  1.00  0.00     0.004 C
HETATM    9  C5  UNL     1      52.532  67.741 -30.049  1.00  0.00     0.025 C
ENDBRANCH   4   6
ENDBRANCH   3   4
BRANCH   1  10
HETATM   10  N1  UNL     1      50.481  64.399 -29.327  1.00  0.00    -0.344 N
ATOM     11  H12 UNL     1      50.804  64.483 -30.290  1.00  0.00     0.176 HD
ATOM     12  H11 UNL     1      49.506  64.110 -29.413  1.00  0.00     0.176 HD
ENDBRANCH   1  10
TORSDOF 3
ENDMDL