MODEL 4
REMARK VINA RESULT: -3.525008956      1.940      2.377
REMARK  2 active torsions:
REMARK  status: ('A' for Active; 'I' for Inactive)
REMARK    1  A    between atoms: C2_2  and  N1_3
REMARK    2  A    between atoms: N1_3  and  C5_6
ROOT
HETATM    1  C5  UNL     1      52.167  68.709 -29.791  1.00  0.00     0.254 A
HETATM    2  C6  UNL     1      52.011  67.747 -30.905  1.00  0.00     0.252 A
HETATM    3  N2  UNL     1      53.055  66.773 -31.202  1.00  0.00    -0.058 N
ATOM      4  H21 UNL     1      53.769  66.653 -31.920  1.00  0.00     0.278 HD
ATOM      5  H22 UNL     1      53.091  65.809 -31.532  1.00  0.00     0.278 HD
HETATM    6  C7  UNL     1      52.962  67.433 -29.932  1.00  0.00     0.252 A
ENDROOT
BRANCH   1   7
HETATM    7  N1  UNL     1      52.818  69.975 -29.950  1.00  0.00    -0.067 N
HETATM    8  C3  UNL     1      54.172  69.917 -29.377  1.00  0.00     0.272 C
HETATM    9  C4  UNL     1      52.991  70.329 -31.344  1.00  0.00     0.272 C
BRANCH   7  10
HETATM   10  C2  UNL     1      52.031  71.015 -29.334  1.00  0.00     0.232 C
HETATM   11  C1  UNL     1      50.760  71.316 -30.107  1.00  0.00     0.035 C
ENDBRANCH   7  10
ENDBRANCH   1   7
TORSDOF 2
ENDMDL