MODEL 3
REMARK VINA RESULT: -3.836573660      1.320      2.357
REMARK  1 active torsions:
REMARK  status: ('A' for Active; 'I' for Inactive)
REMARK    1  A    between atoms: C3_3  and  N1_4
ROOT
HETATM    1  C1  UNL     1      53.333  67.409 -28.711  1.00  0.00     0.098 C
HETATM    2  C2  UNL     1      53.643  68.561 -28.978  1.00  0.00    -0.160 C
HETATM    3  C3  UNL     1      54.004  69.937 -29.317  1.00  0.00     0.318 C
ENDROOT
BRANCH   3   4
HETATM    4  N1  UNL     1      52.959  70.619 -30.049  1.00  0.00    -0.037 N
HETATM    5  C4  UNL     1      53.371  71.983 -30.353  1.00  0.00     0.275 C
HETATM    6  C5  UNL     1      51.740  70.683 -29.292  1.00  0.00     0.267 C
HETATM    7  C6  UNL     1      50.704  71.013 -30.372  1.00  0.00     0.262 C
HETATM    8  N2  UNL     1      51.160  70.203 -31.466  1.00  0.00    -0.049 N
HETATM    9  C7  UNL     1      52.551  69.914 -31.241  1.00  0.00     0.468 C
ATOM     10  H22 UNL     1      50.597  69.364 -31.601  1.00  0.00     0.279 HD
ATOM     11  H21 UNL     1      50.985  70.630 -32.375  1.00  0.00     0.279 HD
ENDBRANCH   3   4
TORSDOF 1
ENDMDL