MODEL 3
REMARK VINA RESULT: -4.741407615      1.536      4.158
REMARK  1 active torsions:
REMARK  status: ('A' for Active; 'I' for Inactive)
REMARK    1  A    between atoms: C2_4  and  C3_5
ROOT
HETATM    1  C3  UNL     1      53.312  67.780 -29.505  1.00  0.00     0.223 C
HETATM    2  C4  UNL     1      52.196  68.254 -30.364  1.00  0.00     0.038 C
HETATM    3  C5  UNL     1      52.014  69.719 -30.441  1.00  0.00     0.004 C
HETATM    4  C6  UNL     1      52.519  70.504 -29.293  1.00  0.00     0.027 C
HETATM    5  C7  UNL     1      53.697  69.893 -28.589  1.00  0.00     0.233 C
HETATM    6  N2  UNL     1      53.378  68.530 -28.276  1.00  0.00    -0.066 N
ATOM      7  H21 UNL     1      54.026  68.121 -27.602  1.00  0.00     0.278 HD
ATOM      8  H22 UNL     1      52.526  68.446 -27.720  1.00  0.00     0.278 HD
ENDROOT
BRANCH   1   9
HETATM    9  C2  UNL     1      53.012  66.348 -29.120  1.00  0.00     0.087 C
HETATM   10  N1  UNL     1      51.897  65.816 -29.410  1.00  0.00    -0.405 N
HETATM   11  C1  UNL     1      51.656  64.461 -29.028  1.00  0.00     0.145 C
ATOM     12  H1  UNL     1      51.185  66.347 -29.909  1.00  0.00     0.158 HD
ENDBRANCH   1   9
TORSDOF 1
ENDMDL