MODEL 4
REMARK VINA RESULT: -4.122157039      2.088      2.361
REMARK  1 active torsions:
REMARK  status: ('A' for Active; 'I' for Inactive)
REMARK    1  A    between atoms: C3_3  and  C4_4
ROOT
HETATM    1  C1  UNL     1      52.969  65.695 -27.879  1.00  0.00     0.012 C
HETATM    2  C2  UNL     1      52.996  66.524 -28.755  1.00  0.00    -0.115 C
HETATM    3  C3  UNL     1      53.016  67.513 -29.821  1.00  0.00     0.126 C
ENDROOT
BRANCH   3   4
HETATM    4  C4  UNL     1      53.746  68.762 -29.390  1.00  0.00     0.199 C
HETATM    5  C5  UNL     1      53.463  69.958 -30.273  1.00  0.00     0.066 C
HETATM    6  C6  UNL     1      52.299  70.140 -29.348  1.00  0.00     0.184 C
HETATM    7  C7  UNL     1      52.005  71.561 -28.941  1.00  0.00     0.040 C
HETATM    8  N1  UNL     1      53.075  69.485 -28.328  1.00  0.00    -0.066 N
ATOM      9  H12 UNL     1      52.623  68.991 -27.560  1.00  0.00     0.278 HD
ATOM     10  H11 UNL     1      53.605  70.023 -27.643  1.00  0.00     0.278 HD
ENDBRANCH   3   4
TORSDOF 1
ENDMDL