MODEL 3
REMARK VINA RESULT: -4.150818013      2.584      3.807
REMARK  2 active torsions:
REMARK  status: ('A' for Active; 'I' for Inactive)
REMARK    1  A    between atoms: C2_2  and  N1_3
REMARK    2  A    between atoms: C4_5  and  O1_6
ROOT
HETATM    1  N1  UNL     1      53.302  68.354 -29.739  1.00  0.00    -0.054 N
HETATM    2  C3  UNL     1      52.722  68.254 -31.025  1.00  0.00     0.272 C
HETATM    3  C4  UNL     1      52.241  69.680 -31.036  1.00  0.00     0.177 C
HETATM    4  C5  UNL     1      52.573  69.590 -29.541  1.00  0.00     0.246 A
HETATM    5  C6  UNL     1      53.995  69.501 -29.267  1.00  0.00     0.274 A
ENDROOT
BRANCH   1   6
HETATM    6  C2  UNL     1      53.111  67.248 -28.845  1.00  0.00     0.234 C
HETATM    7  C1  UNL     1      52.569  66.087 -29.648  1.00  0.00     0.035 C
ENDBRANCH   1   6
BRANCH   3   8
HETATM    8  O1  UNL     1      50.899  69.824 -31.317  1.00  0.00    -0.392 OA
ATOM      9  H1  UNL     1      50.715  70.354 -32.084  1.00  0.00     0.210 HD
ENDBRANCH   3   8
TORSDOF 2
ENDMDL