MODEL 4
REMARK VINA RESULT: -6.633096018      5.115      8.312
REMARK  4 active torsions:
REMARK  status: ('A' for Active; 'I' for Inactive)
REMARK    1  A    between atoms: C10_18  and  N6_19
REMARK    2  A    between atoms: N6_19  and  C11_20
REMARK    3  A    between atoms: C11_20  and  C12_21
REMARK    4  A    between atoms: C12_21  and  N7_22
ROOT
HETATM    1  C1  UNL     1      40.679  24.358  62.084  1.00  0.00     0.091 C
HETATM    2  C2  UNL     1      39.762  24.329  60.888  1.00  0.00     0.097 C
HETATM    3  N1  UNL     1      38.583  23.990  61.186  1.00  0.00    -0.284 N
HETATM    4  C3  UNL     1      38.282  23.689  62.538  1.00  0.00     0.179 C
HETATM    5  N2  UNL     1      37.483  23.889  60.294  1.00  0.00    -0.295 N
ATOM      6  H2  UNL     1      36.726  23.263  60.570  1.00  0.00     0.187 HD
HETATM    7  C4  UNL     1      37.326  24.575  59.048  1.00  0.00     0.081 A
HETATM    8  C5  UNL     1      36.129  24.833  58.413  1.00  0.00     0.121 A
HETATM    9  N3  UNL     1      36.448  25.491  57.270  1.00  0.00    -0.349 N
ATOM     10  H3  UNL     1      35.775  25.821  56.579  1.00  0.00     0.167 HD
HETATM   11  C6  UNL     1      37.792  25.645  57.179  1.00  0.00     0.123 A
HETATM   12  C7  UNL     1      38.371  25.074  58.293  1.00  0.00     0.082 A
HETATM   13  C8  UNL     1      39.833  25.014  58.582  1.00  0.00     0.127 C
HETATM   14  N4  UNL     1      40.459  24.699  59.670  1.00  0.00    -0.325 N
HETATM   15  C9  UNL     1      41.885  24.666  59.684  1.00  0.00     0.159 C
HETATM   16  N5  UNL     1      40.892  25.346  57.705  1.00  0.00    -0.315 N
ATOM     17  H5  UNL     1      41.819  25.382  58.130  1.00  0.00     0.170 HD
HETATM   18  C10 UNL     1      40.840  25.644  56.280  1.00  0.00     0.196 C
HETATM   19  C18 UNL     1      39.644  26.300  55.689  1.00  0.00     0.067 C
HETATM   20  C19 UNL     1      39.960  27.071  54.470  1.00  0.00     0.074 C
HETATM   21  N8  UNL     1      38.399  26.297  56.064  1.00  0.00    -0.336 N
HETATM   22  C20 UNL     1      37.463  27.055  55.264  1.00  0.00     0.158 C
ENDROOT
BRANCH  18  23
HETATM   23  N6  UNL     1      41.749  25.373  55.558  1.00  0.00    -0.427 NA
BRANCH  23  24
HETATM   24  C11 UNL     1      42.768  25.069  54.749  1.00  0.00     0.248 C
BRANCH  24  25
HETATM   25  C12 UNL     1      42.283  24.016  53.730  1.00  0.00     0.270 C
BRANCH  25  26
HETATM   26  N7  UNL     1      43.321  23.708  52.774  1.00  0.00    -0.068 N
HETATM   27  C13 UNL     1      43.836  24.983  52.303  1.00  0.00     0.272 C
HETATM   28  C14 UNL     1      42.853  22.973  51.649  1.00  0.00     0.237 C
HETATM   29  C15 UNL     1      43.403  21.582  51.714  1.00  0.00     0.029 C
HETATM   30  C16 UNL     1      44.464  21.624  52.776  1.00  0.00     0.029 C
HETATM   31  C17 UNL     1      44.425  22.992  53.362  1.00  0.00     0.237 C
ENDBRANCH  25  26
ENDBRANCH  24  25
ENDBRANCH  23  24
ENDBRANCH  18  23
TORSDOF 4
ENDMDL