MODEL 1
REMARK VINA RESULT: -6.518489895      0.000      0.000
REMARK  4 active torsions:
REMARK  status: ('A' for Active; 'I' for Inactive)
REMARK    1  A    between atoms: C2_2  and  C18_27
REMARK    2  A    between atoms: N1_3  and  C3_5
REMARK    3  A    between atoms: N2_7  and  C4_9
REMARK    4  A    between atoms: C4_9  and  C5_10
ROOT
HETATM    1  C5  UNL     1      41.906  25.000  52.947  1.00  0.00     0.009 A
HETATM    2  C6  UNL     1      42.295  25.218  51.625  1.00  0.00     0.101 A
HETATM    3  N3  UNL     1      41.979  26.482  51.275  1.00  0.00    -0.368 N
ATOM      4  H3  UNL     1      42.148  26.918  50.368  1.00  0.00     0.165 HD
HETATM    5  C7  UNL     1      41.409  27.051  52.324  1.00  0.00     0.018 A
HETATM    6  C8  UNL     1      41.087  28.531  52.242  1.00  0.00     0.069 C
HETATM    7  C9  UNL     1      41.330  26.171  53.393  1.00  0.00     0.035 A
HETATM    8  C10 UNL     1      40.727  26.561  54.649  1.00  0.00     0.172 C
HETATM    9  C11 UNL     1      39.321  27.164  54.300  1.00  0.00     0.240 C
HETATM   10  N4  UNL     1      38.709  28.057  55.150  1.00  0.00    -0.051 N
HETATM   11  C12 UNL     1      38.310  29.356  54.616  1.00  0.00     0.278 C
HETATM   12  C13 UNL     1      37.370  27.482  55.516  1.00  0.00     0.278 C
HETATM   13  C14 UNL     1      39.468  28.241  56.343  1.00  0.00     0.270 C
HETATM   14  C15 UNL     1      39.896  26.932  56.807  1.00  0.00     0.271 C
HETATM   15  N5  UNL     1      40.677  26.082  55.881  1.00  0.00    -0.041 N
HETATM   16  C16 UNL     1      42.031  26.264  56.524  1.00  0.00     0.279 C
HETATM   17  C17 UNL     1      40.128  24.777  56.224  1.00  0.00     0.279 C
ENDROOT
BRANCH   1  18
HETATM   18  C4  UNL     1      42.291  23.850  53.685  1.00  0.00     0.104 C
BRANCH  18  19
HETATM   19  N2  UNL     1      43.670  23.587  53.941  1.00  0.00    -0.342 N
HETATM   20  C3  UNL     1      44.700  22.719  53.877  1.00  0.00     0.176 C
HETATM   21  S1  UNL     1      46.181  23.298  54.557  1.00  0.00    -0.041 SA
ATOM     22  H2  UNL     1      44.045  24.436  54.362  1.00  0.00     0.167 HD
BRANCH  20  23
HETATM   23  N1  UNL     1      44.806  21.466  53.430  1.00  0.00    -0.333 N
HETATM   24  C2  UNL     1      44.649  20.630  52.552  1.00  0.00     0.073 C
HETATM   25  C1  UNL     1      45.123  19.213  52.922  1.00  0.00     0.074 C
ATOM     26  H1  UNL     1      45.227  20.951  54.203  1.00  0.00     0.168 HD
BRANCH  24  27
HETATM   27  C18 UNL     1      44.075  20.751  51.227  1.00  0.00     0.277 C
HETATM   28  N6  UNL     1      43.206  21.848  50.882  1.00  0.00    -0.056 NA
HETATM   29  O1  UNL     1      44.276  19.944  50.294  1.00  0.00    -0.270 OA
ENDBRANCH  24  27
ENDBRANCH  20  23
ENDBRANCH  18  19
ENDBRANCH   1  18
TORSDOF 4
ENDMDL