MODEL 4
REMARK VINA RESULT: -8.011778887      3.500      7.793
REMARK  7 active torsions:
REMARK  status: ('A' for Active; 'I' for Inactive)
REMARK    1  A    between atoms: C3_3  and  C4_4
REMARK    2  A    between atoms: C4_4  and  N1_5
REMARK    3  A    between atoms: N1_5  and  C5_6
REMARK    4  A    between atoms: C5_6  and  C6_7
REMARK    5  A    between atoms: C6_7  and  C7_8
REMARK    6  A    between atoms: C11_12  and  C12_13
REMARK    7  A    between atoms: C12_13  and  O1_14
ROOT
HETATM    1  C1  UNL     1      45.324  20.492  52.547  1.00  0.00     0.112 C
HETATM    2  C2  UNL     1      44.513  21.603  53.035  1.00  0.00    -0.109 C
HETATM    3  C3  UNL     1      43.847  22.529  53.435  1.00  0.00    -0.079 C
ENDROOT
BRANCH   3   4
HETATM    4  C4  UNL     1      43.057  23.614  53.949  1.00  0.00     0.338 C
BRANCH   4   5
HETATM    5  N1  UNL     1      42.645  24.597  53.017  1.00  0.00    -0.011 N
HETATM    6  C18 UNL     1      41.827  23.913  51.999  1.00  0.00     0.274 C
HETATM    7  C19 UNL     1      41.873  24.824  50.802  1.00  0.00     0.267 C
HETATM    8  N5  UNL     1      43.234  25.273  50.838  1.00  0.00    -0.049 N
HETATM    9  C20 UNL     1      43.334  26.636  50.325  1.00  0.00     0.274 C
HETATM   10  C21 UNL     1      44.035  24.377  50.005  1.00  0.00     0.274 C
HETATM   11  C22 UNL     1      43.699  25.153  52.189  1.00  0.00     0.478 C
BRANCH   5  12
HETATM   12  C5  UNL     1      41.843  25.602  53.607  1.00  0.00     0.208 C
BRANCH  12  13
HETATM   13  C6  UNL     1      40.399  25.541  53.737  1.00  0.00     0.054 C
BRANCH  13  14
HETATM   14  C7  UNL     1      39.724  25.159  54.937  1.00  0.00     0.031 C
HETATM   15  C8  UNL     1      38.416  24.645  55.095  1.00  0.00     0.016 C
HETATM   16  C9  UNL     1      37.431  24.410  56.104  1.00  0.00     0.029 A
HETATM   17  C10 UNL     1      36.910  24.306  57.112  1.00  0.00     0.048 A
HETATM   18  C17 UNL     1      38.078  24.665  57.570  1.00  0.00     0.065 A
HETATM   19  C16 UNL     1      38.588  24.780  56.867  1.00  0.00     0.064 A
HETATM   20  C11 UNL     1      36.572  24.269  58.441  1.00  0.00     0.030 A
HETATM   21  N2  UNL     1      37.415  24.562  59.530  1.00  0.00    -0.326 N
HETATM   22  C13 UNL     1      37.501  24.646  60.859  1.00  0.00     0.129 C
HETATM   23  C14 UNL     1      38.466  24.833  58.780  1.00  0.00     0.100 A
HETATM   24  N3  UNL     1      39.784  25.206  58.593  1.00  0.00    -0.334 N
HETATM   25  C15 UNL     1      39.800  25.150  57.252  1.00  0.00     0.095 A
ATOM     26  H3  UNL     1      40.514  25.449  59.263  1.00  0.00     0.168 HD
HETATM   27  N4  UNL     1      40.531  25.328  56.172  1.00  0.00    -0.345 N
ATOM     28  H4  UNL     1      41.525  25.555  56.182  1.00  0.00     0.167 HD
BRANCH  20  29
HETATM   29  C12 UNL     1      35.236  23.905  58.865  1.00  0.00     0.218 C
BRANCH  29  30
HETATM   30  O1  UNL     1      34.884  22.594  58.518  1.00  0.00    -0.395 OA
ATOM     31  H1  UNL     1      34.314  22.547  57.760  1.00  0.00     0.209 HD
ENDBRANCH  29  30
ENDBRANCH  20  29
ENDBRANCH  13  14
ENDBRANCH  12  13
ENDBRANCH   5  12
ENDBRANCH   4   5
ENDBRANCH   3   4
TORSDOF 7
ENDMDL