MODEL 4
REMARK VINA RESULT: -7.074379700      1.493      2.217
REMARK  4 active torsions:
REMARK  status: ('A' for Active; 'I' for Inactive)
REMARK       I    between atoms: C2_4  and  N2_5
REMARK       I    between atoms: C2_4  and  N9_32
REMARK       I    between atoms: C3_7  and  N3_8
REMARK       I    between atoms: C3_7  and  N6_20
REMARK    1  A    between atoms: N3_8  and  C4_10
REMARK    2  A    between atoms: C4_10  and  C5_11
REMARK    3  A    between atoms: C5_11  and  N4_12
REMARK    4  A    between atoms: N6_20  and  C12_22
ROOT
HETATM    1  C1  UNL     1      43.829  28.160  49.915  1.00  0.00     0.165 C
HETATM    2  N1  UNL     1      43.575  26.812  50.380  1.00  0.00    -0.230 N
ATOM      3  H1  UNL     1      43.841  26.543  51.328  1.00  0.00     0.177 HD
HETATM    4  C2  UNL     1      43.022  25.964  49.613  1.00  0.00     0.689 C
HETATM    5  N2  UNL     1      42.773  24.659  50.057  1.00  0.00    -0.023 N
ATOM      6  H2  UNL     1      43.147  23.907  49.479  1.00  0.00     0.203 HD
HETATM    7  C3  UNL     1      42.132  24.303  51.103  1.00  0.00     0.693 C
HETATM    8  N3  UNL     1      41.550  25.220  52.008  1.00  0.00    -0.224 N
ATOM      9  H3  UNL     1      41.412  26.172  51.669  1.00  0.00     0.177 HD
HETATM   10  N6  UNL     1      42.034  22.879  51.312  1.00  0.00    -0.188 N
ATOM     11  H6  UNL     1      41.195  22.358  51.058  1.00  0.00     0.184 HD
HETATM   12  N9  UNL     1      42.618  26.261  48.261  1.00  0.00    -0.226 N
HETATM   13  C17 UNL     1      43.444  25.813  47.145  1.00  0.00     0.168 C
HETATM   14  C18 UNL     1      41.404  26.996  47.960  1.00  0.00     0.168 C
ENDROOT
BRANCH   8  15
HETATM   15  C4  UNL     1      41.138  24.953  53.345  1.00  0.00     0.166 C
BRANCH  15  16
HETATM   16  C5  UNL     1      40.326  25.997  54.017  1.00  0.00     0.259 C
BRANCH  16  17
HETATM   17  N4  UNL     1      39.787  25.633  55.314  1.00  0.00    -0.044 N
HETATM   18  C6  UNL     1      38.637  24.739  55.114  1.00  0.00     0.274 C
HETATM   19  C7  UNL     1      40.754  24.884  56.089  1.00  0.00     0.267 C
HETATM   20  C8  UNL     1      40.233  24.987  57.494  1.00  0.00     0.266 C
HETATM   21  N5  UNL     1      39.574  26.257  57.530  1.00  0.00    -0.049 N
HETATM   22  C9  UNL     1      38.264  26.143  58.174  1.00  0.00     0.274 C
HETATM   23  C10 UNL     1      40.361  27.180  58.335  1.00  0.00     0.274 C
HETATM   24  C11 UNL     1      39.461  26.735  56.159  1.00  0.00     0.471 C
ENDBRANCH  16  17
ENDBRANCH  15  16
ENDBRANCH   8  15
BRANCH  10  25
HETATM   25  C12 UNL     1      43.162  22.235  51.887  1.00  0.00     0.092 A
HETATM   26  C13 UNL     1      43.869  22.828  52.925  1.00  0.00     0.035 A
HETATM   27  C14 UNL     1      44.967  22.266  53.528  1.00  0.00     0.019 A
HETATM   28  C15 UNL     1      45.390  21.033  53.070  1.00  0.00     0.090 A
HETATM   29  N7  UNL     1      44.720  20.434  52.060  1.00  0.00    -0.351 N
HETATM   30  C16 UNL     1      43.630  21.010  51.474  1.00  0.00     0.126 A
ATOM     31  H7  UNL     1      45.038  19.524  51.726  1.00  0.00     0.166 HD
HETATM   32  N8  UNL     1      43.067  20.361  50.528  1.00  0.00    -0.384 N
ATOM     33  H82 UNL     1      42.253  20.792  50.090  1.00  0.00     0.157 HD
ATOM     34  H81 UNL     1      43.414  19.452  50.222  1.00  0.00     0.157 HD
ENDBRANCH  10  25
TORSDOF 4
ENDMDL