MODEL 2
REMARK VINA RESULT: -8.244366022      1.550      2.103
REMARK  12 active torsions:
REMARK  status: ('A' for Active; 'I' for Inactive)
REMARK    1  A    between atoms: C5_5  and  C6_6
REMARK    2  A    between atoms: C6_6  and  C7_7
REMARK    3  A    between atoms: C7_7  and  C8_8
REMARK    4  A    between atoms: C8_8  and  N1_9
REMARK    5  A    between atoms: C12_13  and  C13_14
REMARK    6  A    between atoms: C14_15  and  C15_16
REMARK    7  A    between atoms: C15_16  and  C16_17
REMARK    8  A    between atoms: C16_17  and  C17_18
REMARK    9  A    between atoms: C17_18  and  O1_21
REMARK   10  A    between atoms: C21_26  and  C22_27
REMARK   11  A    between atoms: C22_27  and  N3_28
REMARK   12  A    between atoms: N3_28  and  N4_30
ROOT
HETATM    1  C7  UNL     1      42.736  23.034  51.915  1.00  0.00     0.026 C
ENDROOT
BRANCH   1   2
HETATM    2  C6  UNL     1      44.015  22.490  51.439  1.00  0.00     0.059 C
BRANCH   2   3
HETATM    3  C5  UNL     1      44.413  21.173  52.016  1.00  0.00     0.016 A
HETATM    4  C3  UNL     1      45.308  21.017  53.075  1.00  0.00    -0.028 A
HETATM    5  C2  UNL     1      45.429  19.659  53.382  1.00  0.00    -0.009 A
HETATM    6  C4  UNL     1      45.991  22.150  53.733  1.00  0.00     0.051 C
HETATM    7  C1  UNL     1      46.195  19.201  54.329  1.00  0.00     0.026 C
HETATM    8  C21 UNL     1      44.604  19.003  52.506  1.00  0.00     0.059 A
HETATM    9  N2  UNL     1      44.016  19.957  51.707  1.00  0.00    -0.357 N
ATOM     10  H2  UNL     1      43.351  19.746  50.963  1.00  0.00     0.166 HD
BRANCH   8  11
HETATM   11  C22 UNL     1      44.361  17.718  52.378  1.00  0.00     0.136 C
BRANCH  11  12
HETATM   12  N3  UNL     1      43.571  16.986  53.270  1.00  0.00    -0.316 N
ATOM     13  H3  UNL     1      43.879  16.783  54.220  1.00  0.00     0.185 HD
BRANCH  12  14
HETATM   14  N4  UNL     1      42.433  16.584  52.824  1.00  0.00    -0.345 N
ATOM     15  H42 UNL     1      42.266  16.489  51.822  1.00  0.00     0.176 HD
ATOM     16  H41 UNL     1      41.723  16.370  53.525  1.00  0.00     0.176 HD
ENDBRANCH  12  14
ENDBRANCH  11  12
ENDBRANCH   8  11
ENDBRANCH   2   3
ENDBRANCH   1   2
BRANCH   1  17
HETATM   17  C8  UNL     1      42.775  23.682  53.246  1.00  0.00     0.128 C
BRANCH  17  18
HETATM   18  N1  UNL     1      41.837  24.742  53.470  1.00  0.00    -0.365 N
HETATM   19  C9  UNL     1      41.860  25.930  52.908  1.00  0.00     0.090 A
HETATM   20  C10 UNL     1      40.898  26.918  53.152  1.00  0.00     0.019 A
HETATM   21  C11 UNL     1      39.890  26.584  54.038  1.00  0.00     0.023 A
HETATM   22  C12 UNL     1      39.829  25.350  54.650  1.00  0.00     0.034 A
HETATM   23  C20 UNL     1      40.818  24.457  54.341  1.00  0.00     0.111 A
BRANCH  22  24
HETATM   24  C13 UNL     1      38.801  24.970  55.577  1.00  0.00    -0.051 C
HETATM   25  C14 UNL     1      37.948  24.659  56.374  1.00  0.00    -0.009 C
BRANCH  25  26
HETATM   26  C15 UNL     1      36.954  24.297  57.338  1.00  0.00    -0.012 C
BRANCH  26  27
HETATM   27  C16 UNL     1      36.133  23.989  58.167  1.00  0.00    -0.055 C
BRANCH  27  28
HETATM   28  C17 UNL     1      35.144  23.590  59.179  1.00  0.00     0.114 C
HETATM   29  C18 UNL     1      35.872  23.255  60.484  1.00  0.00     0.060 C
HETATM   30  C19 UNL     1      34.193  24.742  59.476  1.00  0.00     0.060 C
BRANCH  28  31
HETATM   31  O1  UNL     1      34.475  22.480  58.677  1.00  0.00    -0.378 OA
ATOM     32  H1  UNL     1      33.545  22.652  58.764  1.00  0.00     0.211 HD
ENDBRANCH  28  31
ENDBRANCH  27  28
ENDBRANCH  26  27
ENDBRANCH  25  26
ENDBRANCH  22  24
ENDBRANCH  17  18
ENDBRANCH   1  17
TORSDOF 12
ENDMDL