MODEL 3
REMARK VINA RESULT: -7.228281913      0.606      1.413
REMARK  7 active torsions:
REMARK  status: ('A' for Active; 'I' for Inactive)
REMARK    1  A    between atoms: C2_2  and  C3_3
REMARK    2  A    between atoms: C7_9  and  C8_10
REMARK    3  A    between atoms: C9_13  and  C11_15
REMARK    4  A    between atoms: C11_15  and  O1_16
REMARK    5  A    between atoms: C11_15  and  N3_18
REMARK    6  A    between atoms: N3_18  and  C12_19
REMARK    7  A    between atoms: N3_18  and  C14_21
ROOT
HETATM    1  C8  UNL     1      43.062  24.262  53.612  1.00  0.00     0.052 C
HETATM    2  N2  UNL     1      42.339  24.306  54.670  1.00  0.00    -0.368 N
ATOM      3  H2  UNL     1      42.025  23.424  55.074  1.00  0.00     0.161 HD
HETATM    4  C9  UNL     1      41.934  25.564  55.342  1.00  0.00     0.151 C
HETATM    5  C10 UNL     1      43.101  26.028  56.172  1.00  0.00     0.056 C
HETATM    6  C16 UNL     1      41.598  26.511  54.253  1.00  0.00     0.120 A
HETATM    7  N4  UNL     1      40.673  27.435  54.042  1.00  0.00    -0.352 N
ATOM      8  H4  UNL     1      39.931  27.668  54.702  1.00  0.00     0.166 HD
HETATM    9  C17 UNL     1      40.835  28.024  52.852  1.00  0.00     0.106 A
HETATM   10  C18 UNL     1      41.935  27.431  52.277  1.00  0.00     0.110 A
HETATM   11  N5  UNL     1      42.374  26.517  53.152  1.00  0.00    -0.337 N
HETATM   12  C19 UNL     1      43.483  25.588  53.026  1.00  0.00     0.189 C
ENDROOT
BRANCH   1  13
HETATM   13  C7  UNL     1      43.440  23.000  52.984  1.00  0.00     0.059 A
HETATM   14  C6  UNL     1      43.138  22.555  51.715  1.00  0.00     0.063 A
HETATM   15  C5  UNL     1      43.716  21.308  51.586  1.00  0.00     0.061 A
HETATM   16  N1  UNL     1      43.919  20.241  50.770  1.00  0.00    -0.363 N
HETATM   17  C20 UNL     1      44.367  20.989  52.764  1.00  0.00     0.067 A
HETATM   18  C4  UNL     1      44.655  19.302  51.395  1.00  0.00     0.097 A
ATOM     19  H1  UNL     1      43.564  20.162  49.817  1.00  0.00     0.165 HD
HETATM   20  C3  UNL     1      44.957  19.746  52.667  1.00  0.00    -0.014 A
HETATM   21  N6  UNL     1      44.174  22.041  53.580  1.00  0.00    -0.352 N
ATOM     22  H6  UNL     1      44.537  22.104  54.531  1.00  0.00     0.166 HD
BRANCH  20  23
HETATM   23  C2  UNL     1      45.754  19.006  53.681  1.00  0.00     0.038 C
HETATM   24  C1  UNL     1      45.082  17.698  54.071  1.00  0.00     0.010 C
ENDBRANCH  20  23
ENDBRANCH   1  13
BRANCH   4  25
HETATM   25  C11 UNL     1      40.819  25.243  56.244  1.00  0.00     0.150 C
BRANCH  25  26
HETATM   26  O1  UNL     1      41.169  24.551  57.291  1.00  0.00    -0.347 OA
ATOM     27  H1  UNL     1      40.495  23.958  57.603  1.00  0.00     0.219 HD
ENDBRANCH  25  26
BRANCH  25  28
HETATM   28  N3  UNL     1      39.467  25.546  56.178  1.00  0.00    -0.364 N
BRANCH  28  29
HETATM   29  C12 UNL     1      38.708  26.580  56.829  1.00  0.00     0.120 C
HETATM   30  C13 UNL     1      39.554  27.633  57.514  1.00  0.00     0.026 C
ENDBRANCH  28  29
BRANCH  28  31
HETATM   31  C14 UNL     1      38.638  24.687  55.294  1.00  0.00     0.120 C
HETATM   32  C15 UNL     1      37.360  24.281  55.973  1.00  0.00     0.026 C
ENDBRANCH  28  31
ENDBRANCH  25  28
ENDBRANCH   4  25
TORSDOF 7
ENDMDL