MODEL 4
REMARK VINA RESULT: -6.621736112      1.886      2.591
REMARK  7 active torsions:
REMARK  status: ('A' for Active; 'I' for Inactive)
REMARK    1  A    between atoms: N1_2  and  N2_5
REMARK    2  A    between atoms: N2_5  and  C4_7
REMARK    3  A    between atoms: N4_15  and  C12_17
REMARK    4  A    between atoms: C12_17  and  C13_18
REMARK    5  A    between atoms: C14_19  and  C15_20
REMARK    6  A    between atoms: C15_20  and  C16_21
REMARK    7  A    between atoms: C20_27  and  O1_28
ROOT
HETATM    1  C4  UNL     1      39.776  27.020  54.653  1.00  0.00     0.138 C
HETATM    2  C5  UNL     1      38.876  25.863  55.146  1.00  0.00     0.035 C
HETATM    3  C6  UNL     1      39.894  24.771  55.296  1.00  0.00     0.016 C
HETATM    4  C7  UNL     1      41.011  25.583  55.968  1.00  0.00     0.042 C
HETATM    5  C8  UNL     1      41.183  26.515  54.746  1.00  0.00     0.215 C
HETATM    6  N3  UNL     1      41.512  25.527  53.748  1.00  0.00    -0.055 N
HETATM    7  C9  UNL     1      41.572  26.009  52.405  1.00  0.00     0.266 C
HETATM    8  C10 UNL     1      41.716  24.817  51.485  1.00  0.00     0.269 C
HETATM    9  N4  UNL     1      43.048  24.309  51.645  1.00  0.00    -0.032 N
HETATM   10  C11 UNL     1      43.862  24.932  50.588  1.00  0.00     0.276 C
HETATM   11  C20 UNL     1      43.666  24.629  52.889  1.00  0.00     0.350 C
HETATM   12  C21 UNL     1      42.758  24.851  54.036  1.00  0.00     0.299 C
HETATM   13  C22 UNL     1      40.472  24.530  53.946  1.00  0.00     0.243 C
ENDROOT
BRANCH   1  14
HETATM   14  N2  UNL     1      39.495  28.197  55.403  1.00  0.00    -0.247 N
ATOM     15  H2  UNL     1      39.807  28.287  56.370  1.00  0.00     0.187 HD
BRANCH  14  16
HETATM   16  N1  UNL     1      38.798  29.203  54.800  1.00  0.00    -0.003 N
HETATM   17  C1  UNL     1      38.562  29.033  53.379  1.00  0.00     0.300 C
HETATM   18  C2  UNL     1      37.441  29.181  55.398  1.00  0.00     0.300 C
HETATM   19  C3  UNL     1      39.314  30.525  54.996  1.00  0.00     0.300 C
ENDBRANCH  14  16
ENDBRANCH   1  14
BRANCH  11  20
HETATM   20  O1  UNL     1      44.597  25.684  52.750  1.00  0.00    -0.368 OA
ATOM     21  H1  UNL     1      44.243  26.396  52.229  1.00  0.00     0.212 HD
ENDBRANCH  11  20
BRANCH   9  22
HETATM   22  C12 UNL     1      43.031  22.886  51.362  1.00  0.00     0.333 C
BRANCH  22  23
HETATM   23  C13 UNL     1      44.171  22.207  52.023  1.00  0.00    -0.078 C
HETATM   24  C14 UNL     1      45.089  21.653  52.577  1.00  0.00    -0.099 C
BRANCH  24  25
HETATM   25  C15 UNL     1      46.193  20.958  53.260  1.00  0.00     0.150 C
BRANCH  25  26
HETATM   26  C16 UNL     1      45.693  19.607  53.629  1.00  0.00     0.020 A
HETATM   27  C17 UNL     1      45.013  18.753  52.790  1.00  0.00     0.027 A
HETATM   28  C18 UNL     1      44.717  17.598  53.491  1.00  0.00     0.019 A
HETATM   29  C19 UNL     1      45.228  17.769  54.759  1.00  0.00     0.088 A
HETATM   30  N5  UNL     1      45.815  18.992  54.821  1.00  0.00    -0.368 N
ATOM     31  H5  UNL     1      46.276  19.384  55.642  1.00  0.00     0.165 HD
ENDBRANCH  25  26
ENDBRANCH  24  25
ENDBRANCH  22  23
ENDBRANCH   9  22
TORSDOF 7
ENDMDL