MODEL 3
REMARK VINA RESULT: -8.621224633      1.164      1.597
REMARK  8 active torsions:
REMARK  status: ('A' for Active; 'I' for Inactive)
REMARK    1  A    between atoms: C4_7  and  C5_8
REMARK    2  A    between atoms: C5_8  and  C6_9
REMARK    3  A    between atoms: C6_9  and  C7_10
REMARK    4  A    between atoms: C7_10  and  C8_11
REMARK    5  A    between atoms: N3_17  and  C11_18
REMARK    6  A    between atoms: C11_18  and  C12_19
REMARK    7  A    between atoms: C13_20  and  C14_21
REMARK    8  A    between atoms: C15_22  and  C16_23
ROOT
HETATM    1  C8  UNL     1      43.754  24.160  51.018  1.00  0.00    -0.027 A
HETATM    2  C9  UNL     1      43.426  24.182  49.677  1.00  0.00     0.101 A
HETATM    3  N2  UNL     1      42.679  25.198  49.210  1.00  0.00    -0.318 N
ATOM      4  H2  UNL     1      42.430  25.228  48.221  1.00  0.00     0.170 HD
HETATM    5  C10 UNL     1      42.255  26.182  50.035  1.00  0.00     0.327 A
HETATM    6  O2  UNL     1      41.561  27.090  49.502  1.00  0.00    -0.246 OA
HETATM    7  N3  UNL     1      42.551  26.197  51.335  1.00  0.00    -0.298 N
HETATM    8  C20 UNL     1      43.296  25.187  51.815  1.00  0.00     0.105 A
ENDROOT
BRANCH   1   9
HETATM    9  C7  UNL     1      44.570  23.085  51.627  1.00  0.00     0.041 C
BRANCH   9  10
HETATM   10  C6  UNL     1      43.971  22.600  52.920  1.00  0.00     0.005 C
BRANCH  10  11
HETATM   11  C5  UNL     1      44.611  21.371  53.457  1.00  0.00     0.009 C
BRANCH  11  12
HETATM   12  C4  UNL     1      45.008  20.376  52.422  1.00  0.00     0.028 C
HETATM   13  C3  UNL     1      45.582  19.085  52.897  1.00  0.00     0.112 C
HETATM   14  C2  UNL     1      45.745  18.838  54.356  1.00  0.00     0.150 C
HETATM   15  N5  UNL     1      44.292  18.396  52.678  1.00  0.00    -0.327 N
HETATM   16  N1  UNL     1      45.468  17.390  54.422  1.00  0.00    -0.341 N
HETATM   17  C1  UNL     1      44.440  17.204  53.433  1.00  0.00     0.318 C
ATOM     18  H1  UNL     1      45.901  16.691  55.024  1.00  0.00     0.164 HD
HETATM   19  O1  UNL     1      43.776  16.147  53.267  1.00  0.00    -0.247 OA
HETATM   20  C21 UNL     1      43.901  19.515  51.849  1.00  0.00     0.134 C
ENDBRANCH  11  12
ENDBRANCH  10  11
ENDBRANCH   9  10
ENDBRANCH   1   9
BRANCH   7  21
HETATM   21  C11 UNL     1      42.086  27.256  52.186  1.00  0.00     0.227 C
BRANCH  21  22
HETATM   22  C12 UNL     1      41.167  26.654  53.170  1.00  0.00    -0.072 C
HETATM   23  C13 UNL     1      40.408  26.177  53.988  1.00  0.00    -0.013 C
BRANCH  23  24
HETATM   24  C14 UNL     1      39.518  25.641  54.959  1.00  0.00    -0.008 C
HETATM   25  C15 UNL     1      38.757  25.204  55.791  1.00  0.00    -0.035 C
BRANCH  25  26
HETATM   26  C16 UNL     1      37.842  24.702  56.800  1.00  0.00     0.087 A
HETATM   27  C17 UNL     1      36.696  24.005  56.530  1.00  0.00     0.040 A
HETATM   28  C18 UNL     1      36.133  23.724  57.766  1.00  0.00     0.020 A
HETATM   29  C19 UNL     1      36.938  24.251  58.755  1.00  0.00     0.089 A
HETATM   30  N4  UNL     1      37.965  24.837  58.142  1.00  0.00    -0.359 N
ATOM     31  H4  UNL     1      38.732  25.317  58.614  1.00  0.00     0.166 HD
ENDBRANCH  25  26
ENDBRANCH  23  24
ENDBRANCH  21  22
ENDBRANCH   7  21
TORSDOF 8
ENDMDL