MODEL 3
REMARK VINA RESULT: -8.147571563      1.514      2.153
REMARK  10 active torsions:
REMARK  status: ('A' for Active; 'I' for Inactive)
REMARK    1  A    between atoms: C2_2  and  N1_4
REMARK    2  A    between atoms: C2_2  and  C4_8
REMARK    3  A    between atoms: N2_12  and  C8_13
REMARK    4  A    between atoms: C8_13  and  C9_14
REMARK    5  A    between atoms: C10_15  and  C11_16
REMARK    6  A    between atoms: N3_21  and  C16_22
REMARK    7  A    between atoms: C16_22  and  C17_23
REMARK    8  A    between atoms: C18_24  and  C19_25
REMARK    9  A    between atoms: C19_25  and  N4_26
REMARK   10  A    between atoms: C21_30  and  N6_31
ROOT
HETATM    1  C11 UNL     1      42.220  25.780  53.094  1.00  0.00     0.089 A
HETATM    2  C12 UNL     1      41.737  26.723  52.200  1.00  0.00     0.039 A
HETATM    3  C13 UNL     1      42.290  26.769  50.924  1.00  0.00     0.004 A
HETATM    4  C14 UNL     1      43.297  25.874  50.601  1.00  0.00     0.017 A
HETATM    5  C15 UNL     1      43.759  24.938  51.520  1.00  0.00     0.093 A
HETATM    6  N3  UNL     1      43.203  24.921  52.744  1.00  0.00    -0.339 N
ENDROOT
BRANCH   1   7
HETATM    7  C10 UNL     1      41.642  25.746  54.409  1.00  0.00    -0.047 C
HETATM    8  C9  UNL     1      41.157  25.741  55.521  1.00  0.00    -0.080 C
BRANCH   8   9
HETATM    9  C8  UNL     1      40.571  25.763  56.880  1.00  0.00     0.221 C
BRANCH   9  10
HETATM   10  N2  UNL     1      39.264  25.178  56.750  1.00  0.00    -0.355 N
HETATM   11  C7  UNL     1      38.778  24.685  55.609  1.00  0.00     0.091 A
HETATM   12  C6  UNL     1      37.504  24.144  55.580  1.00  0.00     0.018 A
HETATM   13  C5  UNL     1      36.695  24.087  56.704  1.00  0.00     0.012 A
HETATM   14  C4  UNL     1      37.229  24.604  57.866  1.00  0.00    -0.008 A
HETATM   15  C22 UNL     1      38.483  25.128  57.853  1.00  0.00     0.101 A
BRANCH  14  16
HETATM   16  C2  UNL     1      36.390  24.560  59.088  1.00  0.00     0.144 C
HETATM   17  C1  UNL     1      37.285  24.389  60.307  1.00  0.00     0.051 C
HETATM   18  C3  UNL     1      35.390  23.434  59.072  1.00  0.00     0.051 C
BRANCH  16  19
HETATM   19  N1  UNL     1      35.753  25.855  59.225  1.00  0.00    -0.067 N
ATOM     20  H13 UNL     1      35.462  26.064  60.181  1.00  0.00     0.275 HD
ATOM     21  H12 UNL     1      36.399  26.636  59.115  1.00  0.00     0.275 HD
ATOM     22  H11 UNL     1      34.983  25.871  58.556  1.00  0.00     0.275 HD
ENDBRANCH  16  19
ENDBRANCH  14  16
ENDBRANCH   9  10
ENDBRANCH   8   9
ENDBRANCH   1   7
BRANCH   6  23
HETATM   23  C16 UNL     1      43.618  23.969  53.786  1.00  0.00     0.223 C
BRANCH  23  24
HETATM   24  C17 UNL     1      43.884  22.672  53.117  1.00  0.00    -0.085 C
HETATM   25  C18 UNL     1      44.114  21.612  52.591  1.00  0.00    -0.083 C
BRANCH  25  26
HETATM   26  C19 UNL     1      44.417  20.303  51.963  1.00  0.00     0.244 C
BRANCH  26  27
HETATM   27  N4  UNL     1      44.856  19.363  53.002  1.00  0.00    -0.262 N
HETATM   28  C20 UNL     1      44.926  18.030  52.850  1.00  0.00     0.219 A
HETATM   29  N5  UNL     1      45.365  17.466  53.988  1.00  0.00    -0.185 N
HETATM   30  C21 UNL     1      45.564  18.486  54.850  1.00  0.00     0.691 A
ATOM     31  H5  UNL     1      45.516  16.473  54.165  1.00  0.00     0.185 HD
HETATM   32  N7  UNL     1      45.251  19.620  54.237  1.00  0.00    -0.129 N
ATOM     33  H7  UNL     1      45.306  20.549  54.654  1.00  0.00     0.206 HD
BRANCH  30  34
HETATM   34  N6  UNL     1      45.987  18.327  56.054  1.00  0.00    -0.233 N
ATOM     35  H62 UNL     1      45.447  18.350  56.919  1.00  0.00     0.174 HD
ATOM     36  H61 UNL     1      46.964  18.151  56.289  1.00  0.00     0.174 HD
ENDBRANCH  30  34
ENDBRANCH  26  27
ENDBRANCH  25  26
ENDBRANCH  23  24
ENDBRANCH   6  23
TORSDOF 10
ENDMDL