MODEL 2
REMARK VINA RESULT: -8.298327985      1.209      1.375
REMARK  9 active torsions:
REMARK  status: ('A' for Active; 'I' for Inactive)
REMARK    1  A    between atoms: C2_2  and  N1_3
REMARK    2  A    between atoms: C3_6  and  N3_7
REMARK    3  A    between atoms: C4_12  and  C5_13
REMARK    4  A    between atoms: C6_14  and  C7_15
REMARK    5  A    between atoms: C8_16  and  C9_17
REMARK    6  A    between atoms: C10_18  and  C11_19
REMARK    7  A    between atoms: C11_19  and  C12_20
REMARK    8  A    between atoms: N6_24  and  C14_25
REMARK    9  A    between atoms: C14_25  and  C15_26
ROOT
HETATM    1  C9  UNL     1      40.964  24.820  53.450  1.00  0.00    -0.014 C
HETATM    2  C10 UNL     1      41.843  24.853  52.618  1.00  0.00    -0.086 C
ENDROOT
BRANCH   1   3
HETATM    3  C8  UNL     1      39.951  24.781  54.443  1.00  0.00    -0.001 C
HETATM    4  C7  UNL     1      39.071  24.735  55.282  1.00  0.00    -0.001 C
BRANCH   4   5
HETATM    5  C6  UNL     1      38.036  24.659  56.247  1.00  0.00    -0.006 C
HETATM    6  C5  UNL     1      37.146  24.574  57.081  1.00  0.00    -0.014 C
BRANCH   6   7
HETATM    7  C4  UNL     1      36.102  24.450  58.060  1.00  0.00     0.194 A
HETATM    8  N1  UNL     1      35.800  25.302  59.073  1.00  0.00    -0.255 N
HETATM    9  N2  UNL     1      34.770  24.827  59.750  1.00  0.00    -0.128 N
HETATM   10  C3  UNL     1      34.383  23.662  59.196  1.00  0.00     0.692 A
ATOM     11  H2  UNL     1      34.338  25.271  60.561  1.00  0.00     0.206 HD
HETATM   12  N4  UNL     1      35.216  23.455  58.161  1.00  0.00    -0.166 N
ATOM     13  H4  UNL     1      35.178  22.648  57.538  1.00  0.00     0.186 HD
BRANCH   8  14
HETATM   14  C2  UNL     1      36.498  26.539  59.364  1.00  0.00     0.147 C
HETATM   15  C1  UNL     1      37.672  26.318  60.289  1.00  0.00     0.028 C
ENDBRANCH   8  14
BRANCH  10  16
HETATM   16  N3  UNL     1      33.411  22.905  59.581  1.00  0.00    -0.233 N
ATOM     17  H32 UNL     1      32.412  23.112  59.541  1.00  0.00     0.174 HD
ATOM     18  H31 UNL     1      33.485  21.975  59.993  1.00  0.00     0.174 HD
ENDBRANCH  10  16
ENDBRANCH   6   7
ENDBRANCH   4   5
ENDBRANCH   1   3
BRANCH   2  19
HETATM   19  C11 UNL     1      42.936  24.900  51.620  1.00  0.00     0.154 C
BRANCH  19  20
HETATM   20  C12 UNL     1      43.752  23.662  51.683  1.00  0.00     0.043 A
HETATM   21  N5  UNL     1      43.819  22.749  50.693  1.00  0.00    -0.353 N
HETATM   22  C13 UNL     1      44.645  21.746  51.054  1.00  0.00     0.183 A
ATOM     23  H5  UNL     1      43.320  22.808  49.805  1.00  0.00     0.166 HD
HETATM   24  N6  UNL     1      45.133  22.002  52.306  1.00  0.00    -0.341 N
HETATM   25  C21 UNL     1      44.575  23.169  52.664  1.00  0.00     0.032 A
HETATM   26  C22 UNL     1      44.818  23.852  53.968  1.00  0.00     0.070 C
BRANCH  24  27
HETATM   27  C14 UNL     1      46.052  21.131  53.013  1.00  0.00     0.168 C
BRANCH  27  28
HETATM   28  C15 UNL     1      45.538  19.774  53.239  1.00  0.00    -0.040 A
HETATM   29  C16 UNL     1      44.949  19.029  52.243  1.00  0.00     0.009 A
HETATM   30  C17 UNL     1      44.478  17.751  52.509  1.00  0.00     0.001 A
HETATM   31  C18 UNL     1      44.595  17.215  53.771  1.00  0.00     0.000 A
HETATM   32  C19 UNL     1      45.183  17.940  54.793  1.00  0.00     0.001 A
HETATM   33  C20 UNL     1      45.638  19.202  54.494  1.00  0.00     0.009 A
ENDBRANCH  27  28
ENDBRANCH  24  27
ENDBRANCH  19  20
ENDBRANCH   2  19
TORSDOF 9
ENDMDL