MODEL 4
REMARK VINA RESULT: -6.307869025      2.293      3.689
REMARK  14 active torsions:
REMARK  status: ('A' for Active; 'I' for Inactive)
REMARK    1  A    between atoms: N1_2  and  C2_3
REMARK    2  A    between atoms: C2_3  and  C3_4
REMARK    3  A    between atoms: C3_4  and  C4_5
REMARK    4  A    between atoms: C4_5  and  C5_6
REMARK    5  A    between atoms: C5_6  and  C6_7
REMARK    6  A    between atoms: C6_7  and  N2_8
REMARK    7  A    between atoms: C8_13  and  O2_14
REMARK    8  A    between atoms: C9_18  and  C10_19
REMARK    9  A    between atoms: C10_19  and  C11_20
REMARK   10  A    between atoms: C11_20  and  C12_21
REMARK   11  A    between atoms: C12_21  and  C13_22
REMARK   12  A    between atoms: C13_22  and  N5_23
REMARK   13  A    between atoms: C14_27  and  O3_28
REMARK   14  A    between atoms: C19_35  and  O4_36
ROOT
HETATM    1  N2  UNL     1      -0.716  20.903  20.142  1.00  0.00    -0.270 N
HETATM    2  N3  UNL     1       0.078  20.714  19.005  1.00  0.00    -0.259 N
ATOM      3  H3  UNL     1       0.107  21.502  18.358  1.00  0.00     0.190 HD
HETATM    4  C7  UNL     1       0.857  19.574  18.618  1.00  0.00     0.310 C
HETATM    5  O1  UNL     1       1.716  19.674  17.651  1.00  0.00    -0.262 OA
HETATM    6  C8  UNL     1       0.774  18.260  19.236  1.00  0.00     0.208 C
HETATM    7  N4  UNL     1      -0.380  17.437  19.311  1.00  0.00    -0.354 N
ATOM      8  H4  UNL     1      -0.618  17.044  20.221  1.00  0.00     0.162 HD
HETATM    9  C9  UNL     1      -1.232  17.117  18.216  1.00  0.00     0.158 C
HETATM   10  C14 UNL     1      -2.326  18.070  17.939  1.00  0.00     0.137 C
HETATM   11  N6  UNL     1      -3.183  18.743  18.829  1.00  0.00    -0.351 N
HETATM   12  C15 UNL     1      -4.673  18.633  18.794  1.00  0.00     0.125 C
HETATM   13  C16 UNL     1      -5.046  20.100  18.740  1.00  0.00     0.022 C
HETATM   14  C17 UNL     1      -3.888  20.819  19.379  1.00  0.00     0.035 C
HETATM   15  C18 UNL     1      -3.004  19.633  19.884  1.00  0.00     0.162 C
HETATM   16  C19 UNL     1      -1.815  20.044  20.531  1.00  0.00     0.156 C
ENDROOT
BRANCH   1  17
HETATM   17  C6  UNL     1      -0.394  22.044  21.038  1.00  0.00     0.151 C
BRANCH  17  18
HETATM   18  C5  UNL     1       1.063  22.122  21.403  1.00  0.00     0.022 C
BRANCH  18  19
HETATM   19  C4  UNL     1       1.539  21.055  22.355  1.00  0.00     0.003 C
BRANCH  19  20
HETATM   20  C3  UNL     1       2.836  20.425  21.942  1.00  0.00     0.028 C
BRANCH  20  21
HETATM   21  C2  UNL     1       3.410  21.006  20.698  1.00  0.00     0.237 C
BRANCH  21  22
HETATM   22  N1  UNL     1       4.615  21.728  20.968  1.00  0.00    -0.068 N
HETATM   23  C1  UNL     1       5.301  21.417  22.217  1.00  0.00     0.272 C
HETATM   24  C20 UNL     1       5.477  22.041  19.821  1.00  0.00     0.265 A
HETATM   25  C21 UNL     1       4.735  23.086  20.530  1.00  0.00     0.265 A
ENDBRANCH  21  22
ENDBRANCH  20  21
ENDBRANCH  19  20
ENDBRANCH  18  19
ENDBRANCH  17  18
ENDBRANCH   1  17
BRANCH  16  26
HETATM   26  O4  UNL     1      -1.596  19.598  21.738  1.00  0.00    -0.347 OA
ATOM     27  H4  UNL     1      -1.500  20.337  22.327  1.00  0.00     0.219 HD
ENDBRANCH  16  26
BRANCH   6  28
HETATM   28  O2  UNL     1       1.850  17.763  19.787  1.00  0.00    -0.342 OA
ATOM     29  H2  UNL     1       1.756  17.025  20.378  1.00  0.00     0.219 HD
ENDBRANCH   6  28
BRANCH  10  30
HETATM   30  O3  UNL     1      -2.473  18.277  16.662  1.00  0.00    -0.348 OA
ATOM     31  H3  UNL     1      -3.374  18.153  16.387  1.00  0.00     0.219 HD
ENDBRANCH  10  30
BRANCH   9  32
HETATM   32  C10 UNL     1      -1.719  15.672  18.278  1.00  0.00     0.033 C
BRANCH  32  33
HETATM   33  C11 UNL     1      -0.710  14.708  18.786  1.00  0.00     0.004 C
BRANCH  33  34
HETATM   34  C12 UNL     1      -0.643  13.580  17.744  1.00  0.00     0.027 C
BRANCH  34  35
HETATM   35  C13 UNL     1      -1.367  13.973  16.483  1.00  0.00     0.229 C
BRANCH  35  36
HETATM   36  N5  UNL     1      -1.698  12.739  15.787  1.00  0.00    -0.079 N
ATOM     37  H53 UNL     1      -1.162  12.604  14.930  1.00  0.00     0.274 HD
ATOM     38  H52 UNL     1      -1.375  11.903  16.274  1.00  0.00     0.274 HD
ATOM     39  H51 UNL     1      -2.706  12.749  15.632  1.00  0.00     0.274 HD
ENDBRANCH  35  36
ENDBRANCH  34  35
ENDBRANCH  33  34
ENDBRANCH  32  33
ENDBRANCH   9  32
TORSDOF 14
ENDMDL