MODEL 3
REMARK VINA RESULT: -6.779566204      2.199     10.985
REMARK  12 active torsions:
REMARK  status: ('A' for Active; 'I' for Inactive)
REMARK    1  A    between atoms: C1_2  and  C2_4
REMARK    2  A    between atoms: C4_6  and  C8_13
REMARK    3  A    between atoms: C9_14  and  C10_15
REMARK       I    between atoms: C10_15  and  N3_17
REMARK    4  A    between atoms: N3_17  and  C11_19
REMARK    5  A    between atoms: C11_19  and  C12_20
REMARK    6  A    between atoms: C13_21  and  C14_22
REMARK    7  A    between atoms: C14_22  and  N4_23
REMARK    8  A    between atoms: N5_26  and  C17_27
REMARK    9  A    between atoms: C17_27  and  C18_28
REMARK   10  A    between atoms: C18_28  and  C19_29
REMARK   11  A    between atoms: C19_29  and  N6_30
REMARK   12  A    between atoms: N6_30  and  C20_32
ROOT
HETATM    1  C10 UNL     1       0.627  19.933  18.005  1.00  0.00     0.228 C
HETATM    2  O2  UNL     1      -0.012  21.010  17.876  1.00  0.00    -0.273 OA
HETATM    3  N3  UNL     1       1.719  19.681  17.162  1.00  0.00    -0.350 N
ATOM      4  H3  UNL     1       2.237  18.809  17.267  1.00  0.00     0.163 HD
ENDROOT
BRANCH   3   5
HETATM    5  C11 UNL     1       2.130  20.623  16.149  1.00  0.00     0.217 C
BRANCH   5   6
HETATM    6  C12 UNL     1       3.583  20.616  15.960  1.00  0.00    -0.085 C
HETATM    7  C13 UNL     1       4.780  20.631  15.812  1.00  0.00    -0.075 C
BRANCH   7   8
HETATM    8  C14 UNL     1       6.252  20.677  15.629  1.00  0.00     0.365 C
BRANCH   8   9
HETATM    9  N4  UNL     1       6.581  20.497  14.228  1.00  0.00     0.102 N
HETATM   10  C15 UNL     1       7.937  20.817  13.922  1.00  0.00     0.303 C
HETATM   11  C16 UNL     1       8.102  20.681  12.400  1.00  0.00     0.302 C
HETATM   12  N5  UNL     1       7.400  21.762  11.759  1.00  0.00     0.091 N
HETATM   13  C21 UNL     1       6.378  22.258  12.620  1.00  0.00     0.302 C
HETATM   14  C22 UNL     1       5.664  21.120  13.328  1.00  0.00     0.303 C
BRANCH  12  15
HETATM   15  C17 UNL     1       8.334  22.742  11.292  1.00  0.00     0.274 C
BRANCH  15  16
HETATM   16  C18 UNL     1       8.727  22.506   9.858  1.00  0.00     0.050 C
BRANCH  16  17
HETATM   17  C19 UNL     1       7.563  22.912   8.982  1.00  0.00     0.123 C
BRANCH  17  18
HETATM   18  N6  UNL     1       6.881  21.805   8.377  1.00  0.00    -0.368 N
ATOM     19  H6  UNL     1       7.373  21.193   7.726  1.00  0.00     0.161 HD
BRANCH  18  20
HETATM   20  C20 UNL     1       5.527  21.569   8.690  1.00  0.00     0.348 C
HETATM   21  O3  UNL     1       5.175  20.647   9.487  1.00  0.00    -0.284 OA
ENDBRANCH  18  20
ENDBRANCH  17  18
ENDBRANCH  16  17
ENDBRANCH  15  16
ENDBRANCH  12  15
ENDBRANCH   8   9
ENDBRANCH   7   8
ENDBRANCH   5   6
ENDBRANCH   3   5
BRANCH   1  22
HETATM   22  C9  UNL     1       0.190  18.980  19.050  1.00  0.00     0.054 A
HETATM   23  C7  UNL     1       0.625  19.247  20.406  1.00  0.00     0.040 A
HETATM   24  C6  UNL     1       0.596  18.118  21.386  1.00  0.00     0.193 C
HETATM   25  C8  UNL     1      -0.848  19.448  19.966  1.00  0.00     0.015 A
HETATM   26  C5  UNL     1      -0.795  18.303  22.011  1.00  0.00     0.038 C
HETATM   27  N2  UNL     1       0.627  16.817  20.805  1.00  0.00    -0.053 N
HETATM   28  C4  UNL     1      -1.625  18.449  20.729  1.00  0.00    -0.004 C
HETATM   29  C3  UNL     1      -1.718  17.093  20.118  1.00  0.00     0.053 C
HETATM   30  C2  UNL     1      -0.316  16.661  19.741  1.00  0.00     0.205 C
HETATM   31  C23 UNL     1       0.117  17.564  18.607  1.00  0.00     0.068 C
ATOM     32  H22 UNL     1       0.499  16.096  21.515  1.00  0.00     0.279 HD
ATOM     33  H21 UNL     1       1.569  16.578  20.496  1.00  0.00     0.279 HD
BRANCH  30  34
HETATM   34  C1  UNL     1      -0.314  15.277  19.235  1.00  0.00     0.267 C
HETATM   35  N1  UNL     1      -0.903  14.897  18.000  1.00  0.00    -0.060 NA
HETATM   36  O1  UNL     1       0.232  14.351  19.907  1.00  0.00    -0.274 OA
ENDBRANCH  30  34
ENDBRANCH   1  22
TORSDOF 12
ENDMDL