MODEL 2
REMARK VINA RESULT: -5.635715424      1.475      2.232
REMARK  10 active torsions:
REMARK  status: ('A' for Active; 'I' for Inactive)
REMARK    1  A    between atoms: C2_2  and  C3_3
REMARK    2  A    between atoms: C3_3  and  C4_4
REMARK    3  A    between atoms: C4_4  and  N1_5
REMARK    4  A    between atoms: N2_10  and  C8_11
REMARK    5  A    between atoms: C8_11  and  C9_12
REMARK    6  A    between atoms: C9_12  and  N3_13
REMARK    7  A    between atoms: N3_13  and  C11_15
REMARK    8  A    between atoms: C11_15  and  C12_16
REMARK    9  A    between atoms: C12_16  and  N4_17
REMARK   10  A    between atoms: N4_17  and  C13_19
ROOT
HETATM    1  N1  UNL     1       0.286  18.908  18.838  1.00  0.00    -0.350 N
HETATM    2  C5  UNL     1       0.016  20.228  18.334  1.00  0.00     0.135 C
HETATM    3  C6  UNL     1      -1.425  20.303  17.899  1.00  0.00     0.123 C
HETATM    4  C7  UNL     1      -2.385  20.319  19.019  1.00  0.00     0.221 C
HETATM    5  O1  UNL     1      -3.370  21.075  18.689  1.00  0.00    -0.273 OA
HETATM    6  N2  UNL     1      -2.606  19.792  20.339  1.00  0.00    -0.349 N
HETATM    7  C15 UNL     1      -2.335  18.507  20.887  1.00  0.00     0.156 C
HETATM    8  C16 UNL     1      -1.776  17.489  19.918  1.00  0.00     0.153 C
HETATM    9  C17 UNL     1      -1.726  16.179  20.702  1.00  0.00     0.153 C
HETATM   10  N5  UNL     1      -1.226  15.069  19.973  1.00  0.00    -0.358 N
ATOM     11  H5  UNL     1      -0.664  14.447  20.555  1.00  0.00     0.162 HD
HETATM   12  C18 UNL     1      -1.318  14.614  18.632  1.00  0.00     0.235 C
HETATM   13  O2  UNL     1      -1.316  13.386  18.421  1.00  0.00    -0.272 OA
HETATM   14  C19 UNL     1      -1.419  15.490  17.436  1.00  0.00     0.225 C
HETATM   15  N6  UNL     1      -2.423  16.522  17.606  1.00  0.00    -0.351 N
ATOM     16  H6  UNL     1      -2.965  16.774  16.779  1.00  0.00     0.163 HD
HETATM   17  C20 UNL     1      -2.729  17.221  18.811  1.00  0.00     0.239 C
HETATM   18  O3  UNL     1      -3.933  17.642  18.928  1.00  0.00    -0.272 OA
HETATM   19  C21 UNL     1      -0.407  17.841  19.460  1.00  0.00     0.241 C
HETATM   20  O4  UNL     1       0.439  16.902  19.688  1.00  0.00    -0.272 OA
ENDROOT
BRANCH   6  21
HETATM   21  C8  UNL     1      -3.183  20.780  21.181  1.00  0.00     0.140 C
BRANCH  21  22
HETATM   22  C9  UNL     1      -2.352  21.375  22.270  1.00  0.00     0.114 C
BRANCH  22  23
HETATM   23  N3  UNL     1      -0.970  21.140  22.232  1.00  0.00    -0.294 NA
HETATM   24  C10 UNL     1      -0.197  22.306  21.807  1.00  0.00     0.116 C
BRANCH  23  25
HETATM   25  C11 UNL     1      -0.274  20.519  23.270  1.00  0.00     0.076 C
BRANCH  25  26
HETATM   26  C12 UNL     1       0.440  19.252  23.062  1.00  0.00     0.094 C
BRANCH  26  27
HETATM   27  N4  UNL     1      -0.102  18.044  23.533  1.00  0.00    -0.398 N
ATOM     28  H4  UNL     1      -0.457  17.327  22.899  1.00  0.00     0.158 HD
BRANCH  27  29
HETATM   29  C13 UNL     1      -0.126  17.877  24.963  1.00  0.00     0.114 C
HETATM   30  C14 UNL     1      -1.261  16.936  25.302  1.00  0.00     0.026 C
ENDBRANCH  27  29
ENDBRANCH  26  27
ENDBRANCH  25  26
ENDBRANCH  23  25
ENDBRANCH  22  23
ENDBRANCH  21  22
ENDBRANCH   6  21
BRANCH   1  31
HETATM   31  C4  UNL     1       1.698  18.566  18.669  1.00  0.00     0.126 C
BRANCH  31  32
HETATM   32  C3  UNL     1       2.586  19.594  19.333  1.00  0.00     0.020 C
BRANCH  32  33
HETATM   33  C2  UNL     1       3.158  18.956  20.580  1.00  0.00    -0.003 C
HETATM   34  C1  UNL     1       3.963  19.968  21.372  1.00  0.00     0.005 C
ENDBRANCH  32  33
ENDBRANCH  31  32
ENDBRANCH   1  31
TORSDOF 10
ENDMDL