MODEL 4
REMARK VINA RESULT: -5.845691043      3.645      5.216
REMARK  9 active torsions:
REMARK  status: ('A' for Active; 'I' for Inactive)
REMARK    1  A    between atoms: C2_2  and  C3_3
REMARK    2  A    between atoms: C3_3  and  N1_4
REMARK    3  A    between atoms: N1_4  and  C4_5
REMARK       I    between atoms: N1_4  and  C7_8
REMARK    4  A    between atoms: C4_5  and  C5_6
REMARK    5  A    between atoms: C7_8  and  C8_10
REMARK    6  A    between atoms: C10_12  and  N2_13
REMARK       I    between atoms: N2_13  and  C11_15
REMARK    7  A    between atoms: C11_15  and  C12_17
REMARK    8  A    between atoms: C13_20  and  C14_21
REMARK    9  A    between atoms: C14_21  and  N5_22
ROOT
HETATM    1  N2  UNL     1       3.588  21.118  19.506  1.00  0.00    -0.353 N
ATOM      2  H2  UNL     1       3.513  21.253  20.514  1.00  0.00     0.163 HD
HETATM    3  C11 UNL     1       4.635  21.733  18.774  1.00  0.00     0.258 C
HETATM    4  O2  UNL     1       4.717  21.563  17.550  1.00  0.00    -0.270 OA
ENDROOT
BRANCH   1   5
HETATM    5  C10 UNL     1       2.632  20.300  18.808  1.00  0.00     0.085 C
HETATM    6  C9  UNL     1       2.483  18.927  19.485  1.00  0.00     0.039 C
HETATM    7  C8  UNL     1       1.044  18.644  19.243  1.00  0.00     0.083 C
HETATM    8  C20 UNL     1       0.395  19.963  19.654  1.00  0.00    -0.004 C
HETATM    9  C19 UNL     1       1.256  20.928  18.849  1.00  0.00     0.030 C
HETATM   10  C21 UNL     1       0.560  20.288  21.098  1.00  0.00     0.011 C
BRANCH   7  11
HETATM   11  C7  UNL     1       0.461  17.488  19.876  1.00  0.00     0.224 C
HETATM   12  N1  UNL     1      -0.611  16.756  19.344  1.00  0.00    -0.352 N
HETATM   13  O1  UNL     1       0.947  17.096  20.992  1.00  0.00    -0.273 OA
BRANCH  12  14
HETATM   14  C3  UNL     1      -1.064  15.561  20.061  1.00  0.00     0.125 C
BRANCH  14  15
HETATM   15  C2  UNL     1      -0.404  14.357  19.424  1.00  0.00     0.015 C
HETATM   16  C1  UNL     1      -1.355  13.576  18.567  1.00  0.00     0.006 C
ENDBRANCH  14  15
ENDBRANCH  12  14
BRANCH  12  17
HETATM   17  C4  UNL     1      -1.289  17.179  18.136  1.00  0.00     0.125 C
BRANCH  17  18
HETATM   18  C5  UNL     1      -2.791  17.249  18.294  1.00  0.00     0.015 C
HETATM   19  C6  UNL     1      -3.108  18.456  19.130  1.00  0.00     0.006 C
ENDBRANCH  17  18
ENDBRANCH  12  17
ENDBRANCH   7  11
ENDBRANCH   1   5
BRANCH   3  20
HETATM   20  C12 UNL     1       5.612  22.578  19.538  1.00  0.00     0.287 C
HETATM   21  N3  UNL     1       4.861  23.399  20.487  1.00  0.00    -0.112 NA
HETATM   22  N4  UNL     1       5.720  24.327  21.083  1.00  0.00    -0.130 NA
HETATM   23  C13 UNL     1       5.917  25.409  20.138  1.00  0.00     0.213 C
HETATM   24  C18 UNL     1       6.540  24.810  18.931  1.00  0.00     0.241 C
HETATM   25  O3  UNL     1       7.222  25.524  18.153  1.00  0.00    -0.272 OA
HETATM   26  N6  UNL     1       6.373  23.426  18.643  1.00  0.00    -0.332 N
ATOM     27  H6  UNL     1       6.791  23.028  17.802  1.00  0.00     0.164 HD
BRANCH  23  28
HETATM   28  C14 UNL     1       6.800  26.497  20.713  1.00  0.00     0.268 C
BRANCH  28  29
HETATM   29  N5  UNL     1       6.142  27.788  20.680  1.00  0.00    -0.076 N
HETATM   30  C15 UNL     1       4.774  27.700  20.201  1.00  0.00     0.271 C
HETATM   31  C16 UNL     1       6.098  28.314  22.029  1.00  0.00     0.271 C
HETATM   32  C17 UNL     1       6.912  28.740  19.888  1.00  0.00     0.271 C
ENDBRANCH  28  29
ENDBRANCH  23  28
ENDBRANCH   3  20
TORSDOF 9
ENDMDL