MODEL 4
REMARK VINA RESULT: -6.952055265      1.529      1.951
REMARK  9 active torsions:
REMARK  status: ('A' for Active; 'I' for Inactive)
REMARK       I    between atoms: N1_2  and  C3_4
REMARK    1  A    between atoms: N3_6  and  C4_8
REMARK    2  A    between atoms: C4_8  and  C5_9
REMARK    3  A    between atoms: C5_9  and  C6_10
REMARK    4  A    between atoms: C6_10  and  C7_11
REMARK    5  A    between atoms: C10_16  and  C11_17
REMARK    6  A    between atoms: C11_17  and  C12_18
REMARK    7  A    between atoms: C12_18  and  C13_19
REMARK    8  A    between atoms: C13_19  and  N5_20
REMARK    9  A    between atoms: N9_29  and  C16_30
ROOT
HETATM    1  C7  UNL     1       0.976  19.981  19.285  1.00  0.00     0.193 C
HETATM    2  N4  UNL     1      -0.314  19.506  18.868  1.00  0.00    -0.333 N
HETATM    3  C8  UNL     1      -1.311  20.501  18.517  1.00  0.00     0.155 C
HETATM    4  C9  UNL     1      -0.822  18.166  18.732  1.00  0.00     0.244 C
HETATM    5  O1  UNL     1      -1.855  18.088  18.042  1.00  0.00    -0.271 OA
HETATM    6  C10 UNL     1      -0.257  16.959  19.307  1.00  0.00     0.178 C
HETATM    7  N8  UNL     1       0.203  17.200  20.668  1.00  0.00    -0.330 N
ATOM      8  H8  UNL     1       0.104  16.404  21.298  1.00  0.00     0.165 HD
HETATM    9  C15 UNL     1       0.767  18.361  21.264  1.00  0.00     0.321 C
HETATM   10  O2  UNL     1       0.772  18.404  22.540  1.00  0.00    -0.247 OA
HETATM   11  N9  UNL     1       1.338  19.501  20.634  1.00  0.00    -0.308 N
ENDROOT
BRANCH   1  12
HETATM   12  C6  UNL     1       2.075  19.678  18.317  1.00  0.00     0.049 C
BRANCH  12  13
HETATM   13  C5  UNL     1       2.552  20.813  17.491  1.00  0.00     0.023 C
BRANCH  13  14
HETATM   14  C4  UNL     1       3.230  20.379  16.223  1.00  0.00     0.122 C
BRANCH  14  15
HETATM   15  N3  UNL     1       2.282  20.286  15.112  1.00  0.00    -0.365 N
HETATM   16  C3  UNL     1       2.519  21.032  14.082  1.00  0.00     0.185 C
HETATM   17  N1  UNL     1       3.634  21.910  13.997  1.00  0.00    -0.364 N
HETATM   18  N2  UNL     1       1.634  20.983  12.974  1.00  0.00    -0.064 NA
HETATM   19  C1  UNL     1       3.601  23.201  14.651  1.00  0.00     0.151 C
HETATM   20  C2  UNL     1       4.831  21.555  13.263  1.00  0.00     0.151 C
ATOM     21  H3  UNL     1       1.475  19.664  15.148  1.00  0.00     0.162 HD
ENDBRANCH  14  15
ENDBRANCH  13  14
ENDBRANCH  12  13
ENDBRANCH   1  12
BRANCH  11  22
HETATM   22  C16 UNL     1       2.316  20.239  21.327  1.00  0.00     0.091 C
HETATM   23  C17 UNL     1       2.383  21.704  21.156  1.00  0.00     0.025 C
HETATM   24  C18 UNL     1       3.617  22.069  21.994  1.00  0.00     0.002 C
HETATM   25  C19 UNL     1       4.350  20.757  22.251  1.00  0.00     0.002 C
HETATM   26  C20 UNL     1       3.750  19.802  21.193  1.00  0.00     0.025 C
ENDBRANCH  11  22
BRANCH   6  27
HETATM   27  C11 UNL     1      -1.073  15.741  19.315  1.00  0.00     0.037 C
BRANCH  27  28
HETATM   28  C12 UNL     1      -0.426  14.425  19.458  1.00  0.00     0.022 C
BRANCH  28  29
HETATM   29  C13 UNL     1      -1.356  13.406  18.764  1.00  0.00     0.122 C
BRANCH  29  30
HETATM   30  N5  UNL     1      -1.727  13.865  17.460  1.00  0.00    -0.367 N
HETATM   31  C14 UNL     1      -1.262  13.450  16.352  1.00  0.00     0.196 C
HETATM   32  N6  UNL     1      -0.273  12.429  16.334  1.00  0.00    -0.067 NA
HETATM   33  N7  UNL     1      -1.761  14.036  15.150  1.00  0.00    -0.067 NA
ATOM     34  H5  UNL     1      -2.434  14.598  17.415  1.00  0.00     0.161 HD
ENDBRANCH  29  30
ENDBRANCH  28  29
ENDBRANCH  27  28
ENDBRANCH   6  27
TORSDOF 9
ENDMDL