MODEL 1
REMARK VINA RESULT: -7.423625380      0.000      0.000
REMARK  11 active torsions:
REMARK  status: ('A' for Active; 'I' for Inactive)
REMARK    1  A    between atoms: C3_3  and  N1_4
REMARK       I    between atoms: N1_4  and  C4_6
REMARK       I    between atoms: C4_6  and  N3_10
REMARK    2  A    between atoms: N3_10  and  C5_12
REMARK    3  A    between atoms: C5_12  and  C6_13
REMARK    4  A    between atoms: C6_13  and  C7_14
REMARK    5  A    between atoms: C7_14  and  C8_15
REMARK    6  A    between atoms: C8_15  and  N4_16
REMARK    7  A    between atoms: C9_18  and  N5_20
REMARK    8  A    between atoms: N6_24  and  C14_25
REMARK    9  A    between atoms: N7_28  and  C17_29
REMARK   10  A    between atoms: C17_29  and  C18_30
REMARK   11  A    between atoms: C18_30  and  O1_31
ROOT
HETATM    1  C1  UNL     1      -1.675  13.990  15.002  1.00  0.00     0.014 C
HETATM    2  C2  UNL     1      -1.379  13.767  16.150  1.00  0.00    -0.097 C
HETATM    3  C3  UNL     1      -0.994  13.510  17.549  1.00  0.00     0.231 C
ENDROOT
BRANCH   3   4
HETATM    4  N1  UNL     1      -1.380  14.618  18.409  1.00  0.00    -0.216 N
HETATM    5  C4  UNL     1      -0.799  14.859  19.672  1.00  0.00     0.668 C
HETATM    6  N2  UNL     1      -1.102  14.117  20.672  1.00  0.00    -0.235 N
HETATM    7  N3  UNL     1       0.117  15.913  19.834  1.00  0.00    -0.227 N
ATOM      8  H22 UNL     1      -1.767  13.353  20.554  1.00  0.00     0.174 HD
ATOM      9  H21 UNL     1      -0.682  14.292  21.585  1.00  0.00     0.174 HD
ATOM     10  H3  UNL     1       0.885  15.820  20.499  1.00  0.00     0.177 HD
ATOM     11  H1  UNL     1      -2.108  15.253  18.082  1.00  0.00     0.178 HD
BRANCH   7  12
HETATM   12  C5  UNL     1      -0.023  17.116  19.069  1.00  0.00     0.138 C
BRANCH  12  13
HETATM   13  C6  UNL     1       0.950  18.187  19.416  1.00  0.00     0.022 C
BRANCH  13  14
HETATM   14  C7  UNL     1       1.255  18.152  20.888  1.00  0.00     0.021 C
BRANCH  14  15
HETATM   15  C8  UNL     1       1.766  19.460  21.413  1.00  0.00     0.121 C
BRANCH  15  16
HETATM   16  N4  UNL     1       2.206  20.355  20.393  1.00  0.00    -0.380 N
HETATM   17  C9  UNL     1       3.359  20.907  20.328  1.00  0.00     0.071 C
HETATM   18  C10 UNL     1       4.379  20.642  21.366  1.00  0.00     0.088 C
ATOM     19  H4  UNL     1       1.543  20.576  19.650  1.00  0.00     0.160 HD
BRANCH  17  20
HETATM   20  N5  UNL     1       3.606  21.765  19.229  1.00  0.00    -0.362 N
HETATM   21  C11 UNL     1       4.719  22.661  19.373  1.00  0.00     0.126 C
HETATM   22  C12 UNL     1       5.905  22.311  18.520  1.00  0.00     0.040 C
HETATM   23  C13 UNL     1       5.556  22.529  17.045  1.00  0.00     0.128 C
HETATM   24  N6  UNL     1       4.797  21.404  16.542  1.00  0.00    -0.337 N
HETATM   25  C20 UNL     1       3.487  21.011  16.971  1.00  0.00     0.238 C
HETATM   26  O3  UNL     1       2.924  20.049  16.388  1.00  0.00    -0.272 OA
HETATM   27  C21 UNL     1       2.724  21.662  18.073  1.00  0.00     0.227 C
BRANCH  24  28
HETATM   28  C14 UNL     1       5.370  20.563  15.520  1.00  0.00     0.181 C
HETATM   29  C15 UNL     1       6.850  20.335  15.675  1.00  0.00     0.055 C
HETATM   30  C16 UNL     1       7.273  20.073  14.253  1.00  0.00     0.128 C
HETATM   31  N7  UNL     1       6.442  20.943  13.468  1.00  0.00    -0.348 N
HETATM   32  C19 UNL     1       5.270  21.238  14.196  1.00  0.00     0.242 C
HETATM   33  O2  UNL     1       4.308  21.930  13.839  1.00  0.00    -0.271 OA
BRANCH  31  34
HETATM   34  C17 UNL     1       6.678  21.474  12.134  1.00  0.00     0.151 C
BRANCH  34  35
HETATM   35  C18 UNL     1       7.979  20.910  11.610  1.00  0.00     0.183 C
BRANCH  35  36
HETATM   36  O1  UNL     1       7.653  20.105  10.515  1.00  0.00    -0.399 OA
ATOM     37  H1  UNL     1       8.266  19.380  10.520  1.00  0.00     0.209 HD
ENDBRANCH  35  36
ENDBRANCH  34  35
ENDBRANCH  31  34
ENDBRANCH  24  28
ENDBRANCH  17  20
ENDBRANCH  15  16
ENDBRANCH  14  15
ENDBRANCH  13  14
ENDBRANCH  12  13
ENDBRANCH   7  12
ENDBRANCH   3   4
TORSDOF 11
ENDMDL