MODEL 5
REMARK VINA RESULT: -5.933907004      3.809      6.719
REMARK  10 active torsions:
REMARK  status: ('A' for Active; 'I' for Inactive)
REMARK    1  A    between atoms: C1_2  and  N1_3
REMARK    2  A    between atoms: N1_3  and  C2_5
REMARK    3  A    between atoms: C2_5  and  C3_6
REMARK    4  A    between atoms: C3_6  and  C4_7
REMARK    5  A    between atoms: C4_7  and  C5_8
REMARK    6  A    between atoms: C5_8  and  C6_9
REMARK    7  A    between atoms: C6_9  and  C7_10
REMARK    8  A    between atoms: C7_10  and  C8_11
REMARK    9  A    between atoms: C8_11  and  C9_12
REMARK   10  A    between atoms: C16_24  and  C17_25
ROOT
HETATM    1  C9  UNL     1       1.924  20.223  20.052  1.00  0.00     0.176 C
HETATM    2  N2  UNL     1       2.213  21.023  21.223  1.00  0.00    -0.346 N
ATOM      3  H2  UNL     1       2.838  21.813  21.068  1.00  0.00     0.163 HD
HETATM    4  C10 UNL     1       1.761  20.868  22.523  1.00  0.00     0.241 C
HETATM    5  O2  UNL     1       2.663  20.707  23.439  1.00  0.00    -0.271 OA
HETATM    6  C11 UNL     1       0.384  20.856  23.061  1.00  0.00     0.179 C
HETATM    7  C12 UNL     1       0.123  22.225  23.739  1.00  0.00     0.037 C
HETATM    8  C13 UNL     1      -0.971  22.839  22.906  1.00  0.00     0.022 C
HETATM    9  C14 UNL     1      -0.914  22.051  21.619  1.00  0.00     0.127 C
HETATM   10  N3  UNL     1      -0.670  20.719  22.126  1.00  0.00    -0.337 N
HETATM   11  C15 UNL     1      -1.296  19.492  21.849  1.00  0.00     0.250 C
HETATM   12  O3  UNL     1      -2.360  19.430  21.130  1.00  0.00    -0.271 OA
HETATM   13  C16 UNL     1      -0.794  18.180  22.355  1.00  0.00     0.238 C
HETATM   14  N4  UNL     1      -1.196  17.159  21.415  1.00  0.00    -0.341 N
ATOM     15  H4  UNL     1      -2.098  16.707  21.569  1.00  0.00     0.163 HD
HETATM   16  C18 UNL     1      -0.436  16.734  20.294  1.00  0.00     0.236 C
HETATM   17  O5  UNL     1      -0.367  15.460  20.134  1.00  0.00    -0.272 OA
HETATM   18  C19 UNL     1       0.252  17.645  19.342  1.00  0.00     0.225 C
HETATM   19  N5  UNL     1       1.674  17.725  19.558  1.00  0.00    -0.351 N
ATOM     20  H5  UNL     1       2.244  16.937  19.250  1.00  0.00     0.163 HD
HETATM   21  C20 UNL     1       2.335  18.811  20.163  1.00  0.00     0.240 C
HETATM   22  O6  UNL     1       3.364  18.567  20.860  1.00  0.00    -0.271 OA
ENDROOT
BRANCH   1  23
HETATM   23  C8  UNL     1       2.658  20.786  18.828  1.00  0.00     0.035 C
BRANCH  23  24
HETATM   24  C7  UNL     1       3.962  21.439  19.200  1.00  0.00     0.002 C
BRANCH  24  25
HETATM   25  C6  UNL     1       4.820  21.644  17.942  1.00  0.00     0.000 C
BRANCH  25  26
HETATM   26  C5  UNL     1       4.321  20.649  16.935  1.00  0.00     0.000 C
BRANCH  26  27
HETATM   27  C4  UNL     1       5.020  20.817  15.619  1.00  0.00     0.002 C
BRANCH  27  28
HETATM   28  C3  UNL     1       6.386  20.220  15.647  1.00  0.00     0.020 C
BRANCH  28  29
HETATM   29  C2  UNL     1       7.312  20.932  14.688  1.00  0.00     0.122 C
BRANCH  29  30
HETATM   30  N1  UNL     1       8.090  19.986  13.902  1.00  0.00    -0.368 N
ATOM     31  H1  UNL     1       8.371  19.106  14.335  1.00  0.00     0.161 HD
BRANCH  30  32
HETATM   32  C1  UNL     1       8.471  20.234  12.570  1.00  0.00     0.348 C
HETATM   33  O1  UNL     1       8.862  21.330  12.124  1.00  0.00    -0.284 OA
ENDBRANCH  30  32
ENDBRANCH  29  30
ENDBRANCH  28  29
ENDBRANCH  27  28
ENDBRANCH  26  27
ENDBRANCH  25  26
ENDBRANCH  24  25
ENDBRANCH  23  24
ENDBRANCH   1  23
BRANCH  13  34
HETATM   34  C17 UNL     1      -1.396  17.872  23.690  1.00  0.00     0.266 C
HETATM   35  O4  UNL     1      -1.765  16.739  23.946  1.00  0.00    -0.304 OA
ENDBRANCH  13  34
TORSDOF 10
ENDMDL