MODEL 3
REMARK VINA RESULT: -6.748118468      2.264      6.655
REMARK  9 active torsions:
REMARK  status: ('A' for Active; 'I' for Inactive)
REMARK    1  A    between atoms: C1_2  and  C2_4
REMARK       I    between atoms: N2_8  and  C6_9
REMARK    2  A    between atoms: C6_9  and  C7_11
REMARK    3  A    between atoms: C7_11  and  C8_12
REMARK    4  A    between atoms: C7_11  and  C12_20
REMARK    5  A    between atoms: C8_12  and  C9_13
REMARK    6  A    between atoms: C9_13  and  C10_14
REMARK    7  A    between atoms: C10_14  and  N3_15
REMARK    8  A    between atoms: C12_20  and  C13_21
REMARK       I    between atoms: C13_21  and  N6_23
REMARK    9  A    between atoms: C15_25  and  N7_26
ROOT
HETATM    1  C7  UNL     1      -0.957  20.832  21.460  1.00  0.00     0.087 C
ENDROOT
BRANCH   1   2
HETATM    2  C6  UNL     1       0.536  20.840  21.449  1.00  0.00     0.225 C
HETATM    3  N2  UNL     1       1.194  20.643  20.172  1.00  0.00    -0.339 N
HETATM    4  C2  UNL     1       2.617  20.585  19.967  1.00  0.00     0.176 C
HETATM    5  C5  UNL     1       0.517  20.513  18.910  1.00  0.00     0.127 C
HETATM    6  C3  UNL     1       2.779  20.248  18.497  1.00  0.00     0.036 C
HETATM    7  C4  UNL     1       1.455  19.594  18.119  1.00  0.00     0.022 C
HETATM    8  O2  UNL     1       1.208  21.002  22.459  1.00  0.00    -0.273 OA
BRANCH   4   9
HETATM    9  C1  UNL     1       3.314  19.596  20.812  1.00  0.00     0.254 C
HETATM   10  N1  UNL     1       4.430  20.004  21.578  1.00  0.00    -0.060 NA
HETATM   11  O1  UNL     1       2.921  18.413  20.849  1.00  0.00    -0.275 OA
ENDBRANCH   4   9
ENDBRANCH   1   2
BRANCH   1  12
HETATM   12  C8  UNL     1      -1.434  21.492  22.762  1.00  0.00     0.016 C
BRANCH  12  13
HETATM   13  C9  UNL     1      -2.133  20.536  23.671  1.00  0.00     0.020 C
BRANCH  13  14
HETATM   14  C10 UNL     1      -1.240  20.115  24.841  1.00  0.00     0.122 C
BRANCH  14  15
HETATM   15  N3  UNL     1      -1.607  18.756  25.189  1.00  0.00    -0.367 N
HETATM   16  C11 UNL     1      -0.993  17.721  24.759  1.00  0.00     0.196 C
HETATM   17  N4  UNL     1      -1.451  16.436  25.174  1.00  0.00    -0.067 NA
HETATM   18  N5  UNL     1       0.121  17.749  23.890  1.00  0.00    -0.067 NA
ATOM     19  H3  UNL     1      -2.402  18.618  25.814  1.00  0.00     0.161 HD
ENDBRANCH  14  15
ENDBRANCH  13  14
ENDBRANCH  12  13
ENDBRANCH   1  12
BRANCH   1  20
HETATM   20  C12 UNL     1      -1.481  19.431  21.450  1.00  0.00     0.118 C
BRANCH  20  21
HETATM   21  C13 UNL     1      -2.399  19.156  20.332  1.00  0.00     0.236 C
HETATM   22  O3  UNL     1      -3.418  19.849  20.112  1.00  0.00    -0.272 OA
HETATM   23  N6  UNL     1      -2.172  18.071  19.429  1.00  0.00    -0.263 N
HETATM   24  C14 UNL     1      -1.070  17.156  19.477  1.00  0.00     0.185 C
HETATM   25  N8  UNL     1      -2.980  17.717  18.353  1.00  0.00    -0.134 NA
HETATM   26  C15 UNL     1      -1.207  16.266  18.272  1.00  0.00     0.258 C
HETATM   27  C20 UNL     1      -2.045  17.146  17.366  1.00  0.00     0.172 C
BRANCH  26  28
HETATM   28  N7  UNL     1      -1.961  15.070  18.516  1.00  0.00     0.096 N
HETATM   29  C16 UNL     1      -1.199  14.014  19.138  1.00  0.00     0.273 C
HETATM   30  C17 UNL     1      -0.155  13.601  18.126  1.00  0.00     0.032 C
HETATM   31  C18 UNL     1      -0.911  13.786  16.816  1.00  0.00     0.032 C
HETATM   32  C19 UNL     1      -2.215  14.455  17.204  1.00  0.00     0.273 C
ENDBRANCH  26  28
ENDBRANCH  20  21
ENDBRANCH   1  20
TORSDOF 9
ENDMDL