MODEL 2
REMARK VINA RESULT: -6.972132011      1.456      1.853
REMARK  9 active torsions:
REMARK  status: ('A' for Active; 'I' for Inactive)
REMARK    1  A    between atoms: C2_2  and  C3_3
REMARK    2  A    between atoms: C3_3  and  N1_4
REMARK    3  A    between atoms: C7_8  and  C8_9
REMARK       I    between atoms: C8_9  and  N2_11
REMARK    4  A    between atoms: C12_15  and  C13_16
REMARK       I    between atoms: C13_16  and  N3_18
REMARK    5  A    between atoms: C14_20  and  C15_22
REMARK    6  A    between atoms: C15_22  and  C16_23
REMARK    7  A    between atoms: C16_23  and  C17_24
REMARK    8  A    between atoms: C17_24  and  C18_25
REMARK    9  A    between atoms: C18_25  and  N5_26
ROOT
HETATM    1  C8  UNL     1       3.689  21.301  17.767  1.00  0.00     0.225 C
HETATM    2  O1  UNL     1       2.571  20.907  17.382  1.00  0.00    -0.273 OA
HETATM    3  N2  UNL     1       4.005  21.450  19.103  1.00  0.00    -0.338 N
HETATM    4  C9  UNL     1       5.382  21.912  19.508  1.00  0.00     0.127 C
HETATM    5  C10 UNL     1       5.176  22.671  20.782  1.00  0.00     0.022 C
HETATM    6  C11 UNL     1       3.681  22.694  20.951  1.00  0.00     0.037 C
HETATM    7  C12 UNL     1       3.350  21.288  20.327  1.00  0.00     0.179 C
ENDROOT
BRANCH   7   8
HETATM    8  C13 UNL     1       1.948  21.016  20.481  1.00  0.00     0.245 C
HETATM    9  O2  UNL     1       1.040  21.649  19.924  1.00  0.00    -0.271 OA
HETATM   10  N3  UNL     1       1.473  19.941  21.334  1.00  0.00    -0.317 N
HETATM   11  C14 UNL     1       1.305  18.729  20.840  1.00  0.00     0.095 C
ATOM     12  H3  UNL     1       1.268  20.124  22.316  1.00  0.00     0.169 HD
HETATM   13  N4  UNL     1       0.842  17.777  21.766  1.00  0.00    -0.087 NA
BRANCH  11  14
HETATM   14  C15 UNL     1       1.596  18.453  19.429  1.00  0.00     0.073 C
BRANCH  14  15
HETATM   15  C16 UNL     1       0.385  18.192  18.620  1.00  0.00     0.009 C
BRANCH  15  16
HETATM   16  C17 UNL     1      -0.242  16.859  18.659  1.00  0.00     0.020 C
BRANCH  16  17
HETATM   17  C18 UNL     1      -1.343  16.595  17.689  1.00  0.00     0.122 C
BRANCH  17  18
HETATM   18  N5  UNL     1      -2.080  17.696  17.189  1.00  0.00    -0.367 N
HETATM   19  C19 UNL     1      -3.144  18.209  17.701  1.00  0.00     0.196 C
HETATM   20  N6  UNL     1      -3.722  17.693  18.891  1.00  0.00    -0.067 NA
HETATM   21  N7  UNL     1      -3.731  19.310  17.040  1.00  0.00    -0.067 NA
ATOM     22  H5  UNL     1      -1.730  18.128  16.334  1.00  0.00     0.161 HD
ENDBRANCH  17  18
ENDBRANCH  16  17
ENDBRANCH  15  16
ENDBRANCH  14  15
ENDBRANCH  11  14
ENDBRANCH   7   8
BRANCH   1  23
HETATM   23  C7  UNL     1       4.645  21.593  16.629  1.00  0.00     0.087 C
HETATM   24  C6  UNL     1       3.951  22.445  15.593  1.00  0.00     0.016 C
HETATM   25  C5  UNL     1       3.198  21.631  14.574  1.00  0.00     0.021 C
HETATM   26  C4  UNL     1       4.019  21.493  13.283  1.00  0.00     0.126 C
HETATM   27  N1  UNL     1       5.394  21.213  13.584  1.00  0.00    -0.349 N
HETATM   28  C21 UNL     1       5.944  20.718  14.784  1.00  0.00     0.220 C
HETATM   29  C20 UNL     1       5.216  20.341  16.029  1.00  0.00     0.117 C
HETATM   30  O3  UNL     1       7.202  20.584  14.787  1.00  0.00    -0.273 OA
BRANCH  27  31
HETATM   31  C3  UNL     1       6.292  21.500  12.460  1.00  0.00     0.152 C
BRANCH  31  32
HETATM   32  C2  UNL     1       5.469  21.350  11.210  1.00  0.00    -0.017 C
HETATM   33  C1  UNL     1       5.869  20.635  10.178  1.00  0.00     0.008 C
ENDBRANCH  31  32
ENDBRANCH  27  31
ENDBRANCH   1  23
TORSDOF 9
ENDMDL