MODEL 4
REMARK VINA RESULT: -6.576354036      1.198      1.507
REMARK  14 active torsions:
REMARK  status: ('A' for Active; 'I' for Inactive)
REMARK    1  A    between atoms: N1_2  and  C2_3
REMARK    2  A    between atoms: N1_2  and  C6_11
REMARK    3  A    between atoms: C2_3  and  C3_4
REMARK    4  A    between atoms: C3_4  and  C4_5
REMARK    5  A    between atoms: C4_5  and  N2_6
REMARK    6  A    between atoms: C6_11  and  O1_12
REMARK    7  A    between atoms: C6_11  and  C7_14
REMARK    8  A    between atoms: C7_14  and  N5_15
REMARK    9  A    between atoms: C7_14  and  C8_18
REMARK   10  A    between atoms: C7_14  and  C16_28
REMARK   11  A    between atoms: C8_18  and  C9_19
REMARK   12  A    between atoms: C9_19  and  C10_20
REMARK       I    between atoms: C10_20  and  N6_22
REMARK   13  A    between atoms: C16_28  and  O3_29
REMARK   14  A    between atoms: C16_28  and  N7_31
ROOT
HETATM    1  C7  UNL     1      -1.453  17.968  18.995  1.00  0.00     0.155 C
ENDROOT
BRANCH   1   2
HETATM    2  C6  UNL     1      -0.046  18.444  18.897  1.00  0.00     0.150 C
BRANCH   2   3
HETATM    3  N1  UNL     1       0.818  19.041  19.775  1.00  0.00    -0.367 N
HETATM    4  C1  UNL     1       1.331  20.389  19.349  1.00  0.00     0.151 C
BRANCH   3   5
HETATM    5  C2  UNL     1       1.368  18.558  20.987  1.00  0.00     0.125 C
BRANCH   5   6
HETATM    6  C3  UNL     1       1.235  19.477  22.182  1.00  0.00     0.039 C
BRANCH   6   7
HETATM    7  C4  UNL     1      -0.101  19.456  22.804  1.00  0.00     0.123 C
BRANCH   7   8
HETATM    8  N2  UNL     1      -0.242  18.733  24.029  1.00  0.00    -0.367 N
HETATM    9  C5  UNL     1      -0.888  17.689  24.282  1.00  0.00     0.196 C
HETATM   10  N3  UNL     1      -0.823  17.208  25.646  1.00  0.00    -0.067 NA
HETATM   11  N4  UNL     1      -1.679  16.908  23.413  1.00  0.00    -0.067 NA
ATOM     12  H2  UNL     1       0.261  19.129  24.822  1.00  0.00     0.161 HD
ENDBRANCH   7   8
ENDBRANCH   6   7
ENDBRANCH   5   6
ENDBRANCH   3   5
ENDBRANCH   2   3
BRANCH   2  13
HETATM   13  O1  UNL     1       0.436  18.231  17.679  1.00  0.00    -0.347 OA
ATOM     14  H1  UNL     1      -0.127  17.732  17.099  1.00  0.00     0.219 HD
ENDBRANCH   2  13
ENDBRANCH   1   2
BRANCH   1  15
HETATM   15  N5  UNL     1      -1.774  17.481  20.245  1.00  0.00    -0.409 N
ATOM     16  H52 UNL     1      -1.341  17.832  21.099  1.00  0.00     0.151 HD
ATOM     17  H51 UNL     1      -2.479  16.743  20.219  1.00  0.00     0.151 HD
ENDBRANCH   1  15
BRANCH   1  18
HETATM   18  C8  UNL     1      -2.250  19.265  18.672  1.00  0.00     0.057 C
BRANCH  18  19
HETATM   19  C9  UNL     1      -3.443  19.449  19.524  1.00  0.00     0.106 C
BRANCH  19  20
HETATM   20  C10 UNL     1      -4.683  19.460  18.707  1.00  0.00     0.219 C
HETATM   21  O2  UNL     1      -4.713  18.925  17.561  1.00  0.00    -0.273 OA
HETATM   22  N6  UNL     1      -5.874  20.065  19.176  1.00  0.00    -0.352 N
HETATM   23  C11 UNL     1      -7.086  20.093  18.419  1.00  0.00     0.125 C
HETATM   24  C15 UNL     1      -5.924  20.710  20.493  1.00  0.00     0.125 C
HETATM   25  C12 UNL     1      -8.212  19.382  19.108  1.00  0.00     0.020 C
HETATM   26  C13 UNL     1      -8.135  19.576  20.584  1.00  0.00     0.003 C
HETATM   27  C14 UNL     1      -7.381  20.840  20.937  1.00  0.00     0.020 C
ENDBRANCH  19  20
ENDBRANCH  18  19
ENDBRANCH   1  18
BRANCH   1  28
HETATM   28  C16 UNL     1      -1.670  17.080  17.825  1.00  0.00     0.150 C
BRANCH  28  29
HETATM   29  O3  UNL     1      -2.135  17.662  16.739  1.00  0.00    -0.347 OA
ATOM     30  H3  UNL     1      -1.937  18.587  16.647  1.00  0.00     0.219 HD
ENDBRANCH  28  29
BRANCH  28  31
HETATM   31  N7  UNL     1      -1.469  15.716  17.666  1.00  0.00    -0.360 N
HETATM   32  C17 UNL     1      -2.030  14.922  16.629  1.00  0.00     0.152 C
HETATM   33  C18 UNL     1      -1.265  13.629  16.396  1.00  0.00     0.252 C
HETATM   34  N8  UNL     1      -0.793  12.966  17.548  1.00  0.00    -0.072 N
HETATM   35  C19 UNL     1      -1.217  13.634  18.741  1.00  0.00     0.252 C
ATOM     36  H82 UNL     1      -1.064  11.983  17.552  1.00  0.00     0.277 HD
ATOM     37  H81 UNL     1       0.220  12.849  17.524  1.00  0.00     0.277 HD
HETATM   38  C20 UNL     1      -0.599  15.039  18.678  1.00  0.00     0.152 C
ENDBRANCH  28  31
ENDBRANCH   1  28
TORSDOF 14
ENDMDL