MODEL 5
REMARK VINA RESULT: -6.175499069      1.929      2.843
REMARK  9 active torsions:
REMARK  status: ('A' for Active; 'I' for Inactive)
REMARK    1  A    between atoms: C2_2  and  C3_3
REMARK    2  A    between atoms: C2_2  and  N5_24
REMARK    3  A    between atoms: C3_3  and  C4_4
REMARK    4  A    between atoms: C4_4  and  C5_5
REMARK    5  A    between atoms: C5_5  and  N1_6
REMARK       I    between atoms: N1_6  and  C6_8
REMARK       I    between atoms: C6_8  and  N3_12
REMARK    6  A    between atoms: N3_12  and  C7_14
REMARK    7  A    between atoms: C7_14  and  C8_15
REMARK    8  A    between atoms: N5_24  and  S1_26
REMARK    9  A    between atoms: S1_26  and  N6_29
ROOT
HETATM    1  N1  UNL     1       4.176  19.754  19.812  1.00  0.00    -0.227 N
ATOM      2  H1  UNL     1       4.395  18.779  19.610  1.00  0.00     0.177 HD
HETATM    3  C6  UNL     1       5.159  20.755  19.697  1.00  0.00     0.667 C
HETATM    4  N2  UNL     1       5.900  21.045  20.699  1.00  0.00    -0.235 N
ATOM      5  H21 UNL     1       6.612  21.770  20.615  1.00  0.00     0.174 HD
ATOM      6  H22 UNL     1       5.781  20.544  21.579  1.00  0.00     0.174 HD
HETATM    7  N3  UNL     1       5.323  21.447  18.478  1.00  0.00    -0.226 N
ATOM      8  H3  UNL     1       5.222  22.462  18.496  1.00  0.00     0.177 HD
ENDROOT
BRANCH   1   9
HETATM    9  C5  UNL     1       2.852  20.149  20.223  1.00  0.00     0.138 C
BRANCH   9  10
HETATM   10  C4  UNL     1       2.168  19.066  21.029  1.00  0.00     0.022 C
BRANCH  10  11
HETATM   11  C3  UNL     1       1.939  17.849  20.171  1.00  0.00     0.027 C
BRANCH  11  12
HETATM   12  C2  UNL     1       0.482  17.450  20.161  1.00  0.00     0.090 C
HETATM   13  C1  UNL     1      -0.015  17.401  21.586  1.00  0.00     0.033 C
BRANCH  12  14
HETATM   14  N5  UNL     1       0.324  16.175  19.518  1.00  0.00    -0.302 N
ATOM     15  H5  UNL     1       0.677  15.295  19.893  1.00  0.00     0.173 HD
BRANCH  14  16
HETATM   16  S1  UNL     1      -0.538  16.319  18.033  1.00  0.00     0.299 S
HETATM   17  O2  UNL     1      -1.760  17.167  18.331  1.00  0.00    -0.188 OA
HETATM   18  O3  UNL     1       0.256  17.077  17.011  1.00  0.00    -0.188 OA
BRANCH  16  19
HETATM   19  N6  UNL     1      -0.968  14.757  17.494  1.00  0.00    -0.189 NA
HETATM   20  C15 UNL     1      -0.973  13.764  18.514  1.00  0.00     0.135 C
HETATM   21  C16 UNL     1      -0.998  12.403  17.846  1.00  0.00     0.183 C
HETATM   22  O4  UNL     1      -1.601  12.411  16.603  1.00  0.00    -0.389 OA
HETATM   23  C17 UNL     1      -2.638  13.333  16.484  1.00  0.00     0.183 C
HETATM   24  C18 UNL     1      -2.150  14.754  16.661  1.00  0.00     0.135 C
ENDBRANCH  16  19
ENDBRANCH  14  16
ENDBRANCH  12  14
ENDBRANCH  11  12
ENDBRANCH  10  11
ENDBRANCH   9  10
ENDBRANCH   1   9
BRANCH   7  25
HETATM   25  C7  UNL     1       5.621  20.835  17.224  1.00  0.00     0.144 C
BRANCH  25  26
HETATM   26  C8  UNL     1       4.452  20.225  16.510  1.00  0.00     0.032 C
HETATM   27  C9  UNL     1       4.973  19.368  15.350  1.00  0.00     0.036 C
HETATM   28  C10 UNL     1       4.277  19.939  14.137  1.00  0.00     0.240 C
HETATM   29  N4  UNL     1       3.057  20.434  14.696  1.00  0.00    -0.044 N
HETATM   30  C11 UNL     1       2.309  21.268  13.768  1.00  0.00     0.266 C
HETATM   31  C13 UNL     1       2.149  19.418  15.115  1.00  0.00     0.404 C
HETATM   32  C14 UNL     1       3.543  21.208  15.837  1.00  0.00     0.246 C
HETATM   33  C12 UNL     1       0.891  21.065  14.265  1.00  0.00     0.198 C
HETATM   34  O1  UNL     1       0.852  19.871  14.936  1.00  0.00    -0.362 OA
ENDBRANCH  25  26
ENDBRANCH   7  25
TORSDOF 9
ENDMDL