MODEL 2
REMARK VINA RESULT: -6.773504449      1.045      1.156
REMARK  9 active torsions:
REMARK  status: ('A' for Active; 'I' for Inactive)
REMARK    1  A    between atoms: N1_2  and  C2_3
REMARK    2  A    between atoms: C2_3  and  C3_4
REMARK    3  A    between atoms: C3_4  and  N2_5
REMARK       I    between atoms: N2_5  and  C4_7
REMARK    4  A    between atoms: C4_7  and  C5_9
REMARK    5  A    between atoms: C14_23  and  C15_24
REMARK    6  A    between atoms: C15_24  and  C16_25
REMARK    7  A    between atoms: C16_25  and  C17_26
REMARK    8  A    between atoms: C17_26  and  C18_27
REMARK    9  A    between atoms: C18_27  and  N5_28
ROOT
HETATM    1  C5  UNL     1       0.663  18.516  19.972  1.00  0.00     0.181 C
HETATM    2  C6  UNL     1       1.526  19.001  21.142  1.00  0.00     0.062 C
HETATM    3  C7  UNL     1       2.618  18.396  20.275  1.00  0.00     0.108 C
HETATM    4  C8  UNL     1       3.992  18.868  20.464  1.00  0.00     0.152 C
HETATM    5  N3  UNL     1       4.174  20.179  21.035  1.00  0.00    -0.337 N
HETATM    6  C9  UNL     1       3.875  20.679  22.332  1.00  0.00     0.220 C
HETATM    7  O2  UNL     1       3.436  20.065  23.335  1.00  0.00    -0.273 OA
HETATM    8  C10 UNL     1       4.177  22.156  22.361  1.00  0.00     0.105 C
HETATM    9  C11 UNL     1       5.272  22.190  21.307  1.00  0.00     0.044 C
HETATM   10  C12 UNL     1       4.775  21.225  20.220  1.00  0.00     0.179 C
HETATM   11  C13 UNL     1       3.802  21.910  19.339  1.00  0.00     0.241 C
HETATM   12  O3  UNL     1       3.913  23.199  19.328  1.00  0.00    -0.271 OA
HETATM   13  N4  UNL     1       2.813  21.376  18.545  1.00  0.00    -0.346 N
ATOM     14  H4  UNL     1       1.867  21.699  18.749  1.00  0.00     0.163 HD
HETATM   15  C14 UNL     1       2.925  20.406  17.441  1.00  0.00     0.176 C
HETATM   16  C19 UNL     1       2.232  19.150  17.838  1.00  0.00     0.243 C
HETATM   17  O4  UNL     1       1.973  18.376  16.837  1.00  0.00    -0.271 OA
HETATM   18  N6  UNL     1       1.854  18.763  19.146  1.00  0.00    -0.330 N
ENDROOT
BRANCH   1  19
HETATM   19  C4  UNL     1       0.199  17.131  20.035  1.00  0.00     0.240 C
HETATM   20  N2  UNL     1      -0.122  16.382  18.902  1.00  0.00    -0.358 N
ATOM     21  H2  UNL     1      -0.036  16.807  17.979  1.00  0.00     0.162 HD
HETATM   22  O1  UNL     1       0.088  16.613  21.167  1.00  0.00    -0.271 OA
BRANCH  20  23
HETATM   23  C3  UNL     1      -0.575  15.011  19.014  1.00  0.00     0.150 C
BRANCH  23  24
HETATM   24  C2  UNL     1      -1.705  14.680  18.104  1.00  0.00     0.256 C
BRANCH  24  25
HETATM   25  N1  UNL     1      -1.598  13.335  17.560  1.00  0.00    -0.066 N
HETATM   26  C1  UNL     1      -2.186  13.105  16.239  1.00  0.00     0.272 C
HETATM   27  C20 UNL     1      -0.482  12.507  17.905  1.00  0.00     0.265 A
HETATM   28  C21 UNL     1      -1.793  12.271  18.546  1.00  0.00     0.265 A
ENDBRANCH  24  25
ENDBRANCH  23  24
ENDBRANCH  20  23
ENDBRANCH   1  19
BRANCH  15  29
HETATM   29  C15 UNL     1       4.299  20.280  16.922  1.00  0.00     0.035 C
BRANCH  29  30
HETATM   30  C16 UNL     1       4.427  20.704  15.487  1.00  0.00     0.004 C
BRANCH  30  31
HETATM   31  C17 UNL     1       4.252  19.579  14.495  1.00  0.00     0.027 C
BRANCH  31  32
HETATM   32  C18 UNL     1       3.069  19.835  13.588  1.00  0.00     0.229 C
BRANCH  32  33
HETATM   33  N5  UNL     1       1.906  19.106  14.026  1.00  0.00    -0.079 N
ATOM     34  H53 UNL     1       1.923  18.141  13.695  1.00  0.00     0.274 HD
ATOM     35  H52 UNL     1       1.932  18.927  15.029  1.00  0.00     0.274 HD
ATOM     36  H51 UNL     1       1.046  19.580  13.752  1.00  0.00     0.274 HD
ENDBRANCH  32  33
ENDBRANCH  31  32
ENDBRANCH  30  31
ENDBRANCH  29  30
ENDBRANCH  15  29
TORSDOF 9
ENDMDL