MODEL 4
REMARK VINA RESULT: -6.447853640      4.620      7.255
REMARK  10 active torsions:
REMARK  status: ('A' for Active; 'I' for Inactive)
REMARK    1  A    between atoms: C8_8  and  O1_9
REMARK    2  A    between atoms: C9_13  and  C10_14
REMARK    3  A    between atoms: C10_14  and  C11_15
REMARK    4  A    between atoms: C11_15  and  C12_16
REMARK    5  A    between atoms: C12_16  and  N2_17
REMARK    6  A    between atoms: N5_24  and  C15_25
REMARK    7  A    between atoms: C15_25  and  C16_26
REMARK    8  A    between atoms: C16_26  and  C17_27
REMARK    9  A    between atoms: C17_27  and  C18_28
REMARK   10  A    between atoms: C18_28  and  S1_29
ROOT
HETATM    1  C1  UNL     1      -3.621  20.978  15.462  1.00  0.00     0.024 C
HETATM    2  C2  UNL     1      -2.899  19.754  16.033  1.00  0.00     0.097 C
HETATM    3  C3  UNL     1      -1.456  20.075  16.281  1.00  0.00    -0.017 C
HETATM    4  C4  UNL     1      -0.287  19.757  15.879  1.00  0.00    -0.030 C
HETATM    5  C5  UNL     1       1.146  20.088  16.156  1.00  0.00     0.027 C
HETATM    6  C6  UNL     1       1.926  18.835  16.553  1.00  0.00     0.012 C
HETATM    7  C7  UNL     1       1.562  18.257  17.930  1.00  0.00     0.084 C
HETATM    8  C8  UNL     1       0.210  17.677  17.927  1.00  0.00     0.111 C
HETATM    9  N1  UNL     1      -0.936  17.685  18.633  1.00  0.00    -0.361 N
ATOM     10  H1  UNL     1      -1.171  18.666  18.789  1.00  0.00     0.162 HD
HETATM   11  C9  UNL     1      -1.961  16.926  19.254  1.00  0.00     0.176 C
HETATM   12  C14 UNL     1      -3.270  17.117  18.466  1.00  0.00     0.249 C
HETATM   13  O2  UNL     1      -3.823  15.992  18.191  1.00  0.00    -0.271 OA
HETATM   14  N5  UNL     1      -3.919  18.256  18.027  1.00  0.00    -0.286 N
HETATM   15  C19 UNL     1      -3.556  19.428  17.366  1.00  0.00     0.233 C
HETATM   16  O5  UNL     1      -3.824  20.526  18.007  1.00  0.00    -0.272 OA
ENDROOT
BRANCH  11  17
HETATM   17  C10 UNL     1      -1.754  15.549  19.691  1.00  0.00     0.036 C
BRANCH  17  18
HETATM   18  C11 UNL     1      -0.738  14.683  19.080  1.00  0.00     0.022 C
BRANCH  18  19
HETATM   19  C12 UNL     1      -1.383  13.303  18.792  1.00  0.00     0.122 C
BRANCH  19  20
HETATM   20  N2  UNL     1      -1.995  13.435  17.483  1.00  0.00    -0.367 N
HETATM   21  C13 UNL     1      -1.798  12.581  16.536  1.00  0.00     0.196 C
HETATM   22  N3  UNL     1      -0.935  11.465  16.812  1.00  0.00    -0.067 NA
HETATM   23  N4  UNL     1      -2.365  12.668  15.260  1.00  0.00    -0.067 NA
ATOM     24  H2  UNL     1      -2.603  14.234  17.304  1.00  0.00     0.161 HD
ENDBRANCH  19  20
ENDBRANCH  18  19
ENDBRANCH  17  18
ENDBRANCH  11  17
BRANCH   8  25
HETATM   25  O1  UNL     1       0.212  16.928  16.851  1.00  0.00    -0.350 OA
ATOM     26  H1  UNL     1      -0.001  17.545  16.160  1.00  0.00     0.219 HD
ENDBRANCH   8  25
BRANCH  14  27
HETATM   27  C15 UNL     1      -5.408  18.251  18.336  1.00  0.00     0.135 C
BRANCH  27  28
HETATM   28  C16 UNL     1      -6.189  18.368  17.084  1.00  0.00     0.021 C
BRANCH  28  29
HETATM   29  C17 UNL     1      -7.334  19.326  17.222  1.00  0.00     0.018 C
BRANCH  29  30
HETATM   30  C18 UNL     1      -8.122  19.472  15.951  1.00  0.00     0.157 C
BRANCH  30  31
HETATM   31  S1  UNL     1      -9.111  18.026  15.649  1.00  0.00     0.250 S
HETATM   32  O3  UNL     1      -9.522  17.331  17.100  1.00  0.00    -0.212 OA
HETATM   33  O4  UNL     1      -8.338  16.973  14.632  1.00  0.00    -0.212 OA
ENDBRANCH  30  31
ENDBRANCH  29  30
ENDBRANCH  28  29
ENDBRANCH  27  28
ENDBRANCH  14  27
TORSDOF 10
ENDMDL