MODEL 3
REMARK VINA RESULT: -6.535497763      4.217      7.336
REMARK  9 active torsions:
REMARK  status: ('A' for Active; 'I' for Inactive)
REMARK    1  A    between atoms: C2_2  and  C3_3
REMARK    2  A    between atoms: C3_3  and  C4_4
REMARK    3  A    between atoms: C4_4  and  N1_5
REMARK       I    between atoms: N1_5  and  C5_7
REMARK    4  A    between atoms: C5_7  and  C6_9
REMARK    5  A    between atoms: C10_14  and  C11_15
REMARK    6  A    between atoms: C13_20  and  N3_21
REMARK       I    between atoms: N3_21  and  C14_23
REMARK       I    between atoms: C14_23  and  N4_25
REMARK    7  A    between atoms: N4_25  and  C15_27
REMARK    8  A    between atoms: C15_27  and  C16_28
REMARK    9  A    between atoms: C16_28  and  N5_29
ROOT
HETATM    1  N5  UNL     1      -1.939  14.901  18.723  1.00  0.00    -0.323 N
HETATM    2  C17 UNL     1      -2.894  14.969  17.638  1.00  0.00     0.162 C
HETATM    3  C18 UNL     1      -1.016  13.852  18.718  1.00  0.00     0.179 C
HETATM    4  N6  UNL     1      -0.254  12.983  18.694  1.00  0.00    -0.172 NA
ENDROOT
BRANCH   1   5
HETATM    5  C16 UNL     1      -1.910  15.874  19.799  1.00  0.00     0.153 C
BRANCH   5   6
HETATM    6  C15 UNL     1      -2.465  17.211  19.339  1.00  0.00     0.145 C
BRANCH   6   7
HETATM    7  N4  UNL     1      -1.456  18.208  19.126  1.00  0.00    -0.342 N
HETATM    8  C14 UNL     1      -0.799  18.453  17.896  1.00  0.00     0.317 C
HETATM    9  N3  UNL     1       0.196  19.460  17.751  1.00  0.00    -0.315 N
HETATM   10  O3  UNL     1      -1.085  17.770  16.882  1.00  0.00    -0.247 OA
ATOM     11  H3  UNL     1       0.439  20.024  18.564  1.00  0.00     0.166 HD
ATOM     12  H4  UNL     1      -1.191  18.786  19.923  1.00  0.00     0.164 HD
BRANCH   9  13
HETATM   13  C13 UNL     1       0.880  19.719  16.493  1.00  0.00     0.293 C
HETATM   14  N2  UNL     1       1.107  21.101  16.268  1.00  0.00    -0.042 N
HETATM   15  C10 UNL     1       1.948  21.377  15.185  1.00  0.00     0.160 C
ATOM     16  H22 UNL     1       1.459  21.547  17.115  1.00  0.00     0.280 HD
ATOM     17  H21 UNL     1       0.221  21.596  16.166  1.00  0.00     0.280 HD
HETATM   18  C9  UNL     1       3.221  22.128  15.546  1.00  0.00     0.172 C
HETATM   19  C22 UNL     1       2.403  20.260  14.320  1.00  0.00     0.059 C
HETATM   20  C6  UNL     1       4.184  21.370  16.411  1.00  0.00     0.116 C
HETATM   21  O2  UNL     1       3.902  21.938  14.308  1.00  0.00    -0.376 OA
HETATM   22  C7  UNL     1       4.255  20.078  15.697  1.00  0.00     0.035 C
HETATM   23  C8  UNL     1       3.890  20.537  14.284  1.00  0.00     0.134 C
HETATM   24  C20 UNL     1       3.412  18.964  16.101  1.00  0.00     0.006 A
HETATM   25  C19 UNL     1       2.032  18.795  16.314  1.00  0.00     0.046 A
HETATM   26  C21 UNL     1       2.410  18.893  14.901  1.00  0.00     0.008 A
BRANCH  15  27
HETATM   27  C11 UNL     1       1.217  22.351  14.236  1.00  0.00     0.037 C
HETATM   28  C12 UNL     1       0.364  21.606  13.258  1.00  0.00     0.007 C
ENDBRANCH  15  27
BRANCH  20  29
HETATM   29  C5  UNL     1       3.984  21.378  17.829  1.00  0.00     0.224 C
HETATM   30  N1  UNL     1       4.823  20.632  18.684  1.00  0.00    -0.361 N
ATOM     31  H1  UNL     1       5.586  20.073  18.300  1.00  0.00     0.162 HD
HETATM   32  O1  UNL     1       3.062  22.046  18.348  1.00  0.00    -0.273 OA
BRANCH  30  33
HETATM   33  C4  UNL     1       4.589  20.668  20.108  1.00  0.00     0.122 C
BRANCH  33  34
HETATM   34  C3  UNL     1       4.233  19.290  20.650  1.00  0.00     0.019 C
BRANCH  34  35
HETATM   35  C2  UNL     1       2.786  19.043  20.298  1.00  0.00    -0.003 C
HETATM   36  C1  UNL     1       2.539  17.622  19.841  1.00  0.00     0.005 C
ENDBRANCH  34  35
ENDBRANCH  33  34
ENDBRANCH  30  33
ENDBRANCH  20  29
ENDBRANCH   9  13
ENDBRANCH   6   7
ENDBRANCH   5   6
ENDBRANCH   1   5
TORSDOF 9
ENDMDL