MODEL 2
REMARK VINA RESULT: -7.094782066      3.277      8.167
REMARK  11 active torsions:
REMARK  status: ('A' for Active; 'I' for Inactive)
REMARK    1  A    between atoms: C2_2  and  C3_3
REMARK    2  A    between atoms: C3_3  and  N1_4
REMARK    3  A    between atoms: N1_4  and  C4_5
REMARK       I    between atoms: N1_4  and  C19_32
REMARK    4  A    between atoms: C4_5  and  C5_6
REMARK    5  A    between atoms: C5_6  and  C6_7
REMARK    6  A    between atoms: C6_7  and  N2_8
REMARK    7  A    between atoms: N2_8  and  C7_10
REMARK    8  A    between atoms: C13_19  and  C14_20
REMARK    9  A    between atoms: C16_27  and  O2_28
REMARK   10  A    between atoms: C19_32  and  C20_34
REMARK   11  A    between atoms: C20_34  and  N7_35
ROOT
HETATM    1  C7  UNL     1       1.530  18.768  16.499  1.00  0.00     0.117 A
HETATM    2  C8  UNL     1       2.135  18.904  15.267  1.00  0.00     0.139 A
HETATM    3  N3  UNL     1       3.329  19.504  15.117  1.00  0.00    -0.356 N
HETATM    4  C9  UNL     1       3.990  19.661  13.844  1.00  0.00     0.156 C
HETATM    5  C10 UNL     1       3.987  20.005  16.204  1.00  0.00     0.061 A
HETATM    6  C11 UNL     1       3.396  19.876  17.435  1.00  0.00     0.071 A
HETATM    7  N4  UNL     1       2.191  19.268  17.561  1.00  0.00    -0.339 N
ATOM      8  H4  UNL     1       1.772  19.187  18.488  1.00  0.00     0.167 HD
HETATM    9  C12 UNL     1       4.326  20.496  18.417  1.00  0.00    -0.005 A
HETATM   10  C13 UNL     1       4.060  20.516  19.698  1.00  0.00     0.048 C
HETATM   11  C17 UNL     1       5.452  20.965  17.635  1.00  0.00     0.016 A
HETATM   12  C18 UNL     1       5.274  20.689  16.339  1.00  0.00     0.033 A
ENDROOT
BRANCH   1  13
HETATM   13  N2  UNL     1       0.368  18.177  16.650  1.00  0.00    -0.375 N
ATOM     14  H2  UNL     1       0.200  17.226  16.319  1.00  0.00     0.161 HD
BRANCH  13  15
HETATM   15  C6  UNL     1      -0.658  18.943  17.310  1.00  0.00     0.123 C
BRANCH  15  16
HETATM   16  C5  UNL     1      -1.816  18.067  17.765  1.00  0.00     0.039 C
BRANCH  16  17
HETATM   17  C4  UNL     1      -1.764  16.708  17.150  1.00  0.00     0.127 C
BRANCH  17  18
HETATM   18  N1  UNL     1      -1.614  15.704  18.165  1.00  0.00    -0.347 N
HETATM   19  C19 UNL     1      -1.957  14.321  17.942  1.00  0.00     0.241 C
HETATM   20  O3  UNL     1      -1.852  13.468  18.834  1.00  0.00    -0.271 OA
BRANCH  18  21
HETATM   21  C3  UNL     1      -1.088  15.975  19.498  1.00  0.00     0.152 C
BRANCH  21  22
HETATM   22  C2  UNL     1       0.392  16.057  19.530  1.00  0.00    -0.017 C
HETATM   23  C1  UNL     1       1.016  17.085  20.118  1.00  0.00     0.008 C
ENDBRANCH  21  22
ENDBRANCH  18  21
BRANCH  19  24
HETATM   24  C20 UNL     1      -2.450  13.877  16.620  1.00  0.00     0.276 C
BRANCH  24  25
HETATM   25  N7  UNL     1      -1.877  12.579  16.261  1.00  0.00    -0.182 N
HETATM   26  N8  UNL     1      -0.861  11.837  16.629  1.00  0.00    -0.162 N
HETATM   27  O4  UNL     1      -1.208  10.948  15.771  1.00  0.00    -0.123 OA
ATOM     28  H8  UNL     1      -0.109  11.928  17.312  1.00  0.00     0.220 HD
HETATM   29  N9  UNL     1      -2.212  11.660  15.394  1.00  0.00    -0.162 N
ATOM     30  H9  UNL     1      -2.957  11.552  14.706  1.00  0.00     0.220 HD
ENDBRANCH  24  25
ENDBRANCH  19  24
ENDBRANCH  17  18
ENDBRANCH  16  17
ENDBRANCH  15  16
ENDBRANCH  13  15
ENDBRANCH   1  13
BRANCH  10  31
HETATM   31  C14 UNL     1       4.919  21.106  20.692  1.00  0.00     0.088 A
HETATM   32  N5  UNL     1       5.532  20.394  21.691  1.00  0.00    -0.305 N
HETATM   33  C15 UNL     1       6.236  21.215  22.479  1.00  0.00     0.326 A
ATOM     34  H5  UNL     1       5.462  19.383  21.816  1.00  0.00     0.171 HD
HETATM   35  O1  UNL     1       6.930  20.960  23.490  1.00  0.00    -0.247 OA
HETATM   36  N6  UNL     1       6.095  22.477  22.011  1.00  0.00    -0.287 N
HETATM   37  C16 UNL     1       5.296  22.405  20.929  1.00  0.00     0.171 A
ATOM     38  H6  UNL     1       6.514  23.321  22.401  1.00  0.00     0.172 HD
BRANCH  37  39
HETATM   39  O2  UNL     1       4.924  23.521  20.180  1.00  0.00    -0.344 OA
ATOM     40  H2  UNL     1       5.063  23.645  19.248  1.00  0.00     0.219 HD
ENDBRANCH  37  39
ENDBRANCH  10  31
TORSDOF 11
ENDMDL