MODEL 3
REMARK VINA RESULT: -6.812039868      2.374      3.181
REMARK  10 active torsions:
REMARK  status: ('A' for Active; 'I' for Inactive)
REMARK    1  A    between atoms: N1_1  and  C1_5
REMARK    2  A    between atoms: C1_5  and  C2_6
REMARK    3  A    between atoms: C2_6  and  C3_7
REMARK    4  A    between atoms: C3_7  and  C4_8
REMARK       I    between atoms: C4_8  and  N2_10
REMARK       I    between atoms: N3_14  and  C8_15
REMARK    5  A    between atoms: C8_15  and  C9_17
REMARK    6  A    between atoms: C9_17  and  C10_18
REMARK    7  A    between atoms: C10_18  and  C11_19
REMARK    8  A    between atoms: C11_19  and  C12_20
REMARK    9  A    between atoms: C12_20  and  C13_21
REMARK   10  A    between atoms: C13_21  and  N4_22
REMARK       I    between atoms: C14_24  and  N6_26
ROOT
HETATM    1  C4  UNL     1      -0.960  14.890  18.644  1.00  0.00     0.220 C
HETATM    2  O1  UNL     1      -0.227  13.984  19.170  1.00  0.00    -0.273 OA
HETATM    3  N2  UNL     1      -0.813  16.204  19.157  1.00  0.00    -0.337 N
HETATM    4  C5  UNL     1       0.138  16.380  20.219  1.00  0.00     0.128 C
HETATM    5  C6  UNL     1       1.296  17.262  19.873  1.00  0.00     0.041 C
HETATM    6  C7  UNL     1       0.902  18.740  19.917  1.00  0.00     0.146 C
HETATM    7  N3  UNL     1       0.460  19.146  18.606  1.00  0.00    -0.244 N
HETATM    8  C8  UNL     1       0.950  20.393  18.158  1.00  0.00     0.233 C
HETATM    9  O2  UNL     1       0.570  20.763  17.014  1.00  0.00    -0.272 OA
HETATM   10  S1  UNL     1      -0.584  18.271  17.562  1.00  0.00     0.251 S
HETATM   11  O3  UNL     1      -1.401  19.170  16.680  1.00  0.00    -0.204 OA
HETATM   12  O4  UNL     1       0.199  17.356  16.643  1.00  0.00    -0.204 OA
HETATM   13  C16 UNL     1      -1.674  17.202  18.509  1.00  0.00     0.289 C
ENDROOT
BRANCH   8  14
HETATM   14  C9  UNL     1       1.847  21.236  18.948  1.00  0.00     0.104 C
BRANCH  14  15
HETATM   15  C10 UNL     1       3.230  21.403  18.443  1.00  0.00     0.009 C
BRANCH  15  16
HETATM   16  C11 UNL     1       3.925  20.139  18.013  1.00  0.00     0.002 C
BRANCH  16  17
HETATM   17  C12 UNL     1       4.360  20.349  16.557  1.00  0.00     0.020 C
BRANCH  17  18
HETATM   18  C13 UNL     1       3.929  19.165  15.696  1.00  0.00     0.122 C
BRANCH  18  19
HETATM   19  N4  UNL     1       2.510  19.174  15.476  1.00  0.00    -0.364 N
HETATM   20  C14 UNL     1       2.035  19.492  14.328  1.00  0.00     0.190 C
HETATM   21  N5  UNL     1       2.922  19.836  13.275  1.00  0.00    -0.063 NA
HETATM   22  N6  UNL     1       0.623  19.480  14.181  1.00  0.00    -0.307 N
HETATM   23  C15 UNL     1      -0.038  20.343  13.505  1.00  0.00     0.203 C
ATOM     24  H6  UNL     1       0.102  18.737  14.645  1.00  0.00     0.170 HD
HETATM   25  N7  UNL     1       0.596  21.415  12.823  1.00  0.00    -0.066 NA
HETATM   26  N8  UNL     1      -1.461  20.220  13.440  1.00  0.00    -0.066 NA
ATOM     27  H4  UNL     1       1.877  18.927  16.237  1.00  0.00     0.162 HD
ENDBRANCH  18  19
ENDBRANCH  17  18
ENDBRANCH  16  17
ENDBRANCH  15  16
ENDBRANCH  14  15
ENDBRANCH   8  14
BRANCH   1  28
HETATM   28  C3  UNL     1      -1.902  14.537  17.556  1.00  0.00     0.105 C
BRANCH  28  29
HETATM   29  C2  UNL     1      -1.700  13.091  17.161  1.00  0.00     0.036 C
BRANCH  29  30
HETATM   30  C1  UNL     1      -2.069  12.814  15.732  1.00  0.00     0.230 C
BRANCH  30  31
HETATM   31  N1  UNL     1      -2.060  11.357  15.580  1.00  0.00    -0.079 N
ATOM     32  H13 UNL     1      -2.828  10.895  16.066  1.00  0.00     0.274 HD
ATOM     33  H12 UNL     1      -2.301  11.047  14.638  1.00  0.00     0.274 HD
ATOM     34  H11 UNL     1      -1.139  11.042  15.886  1.00  0.00     0.274 HD
ENDBRANCH  30  31
ENDBRANCH  29  30
ENDBRANCH  28  29
ENDBRANCH   1  28
TORSDOF 10
ENDMDL