MODEL 2
REMARK VINA RESULT: -6.640584793      2.376      3.097
REMARK  13 active torsions:
REMARK  status: ('A' for Active; 'I' for Inactive)
REMARK    1  A    between atoms: C2_2  and  C3_3
REMARK    2  A    between atoms: C3_3  and  N1_4
REMARK    3  A    between atoms: N1_4  and  C4_6
REMARK    4  A    between atoms: C4_6  and  O1_7
REMARK    5  A    between atoms: C4_6  and  C5_9
REMARK    6  A    between atoms: C6_10  and  C7_11
REMARK    7  A    between atoms: C9_13  and  C10_14
REMARK    8  A    between atoms: C10_14  and  O2_15
REMARK    9  A    between atoms: N3_20  and  C13_21
REMARK   10  A    between atoms: N5_28  and  C17_29
REMARK   11  A    between atoms: C17_29  and  C18_30
REMARK   12  A    between atoms: C18_30  and  C19_31
REMARK   13  A    between atoms: C19_31  and  N6_32
ROOT
HETATM    1  C10 UNL     1       3.707  20.284  17.664  1.00  0.00     0.119 C
HETATM    2  N2  UNL     1       2.668  19.764  18.353  1.00  0.00    -0.362 N
HETATM    3  C11 UNL     1       2.741  19.395  19.748  1.00  0.00     0.155 C
HETATM    4  C12 UNL     1       2.160  17.962  19.902  1.00  0.00     0.293 C
HETATM    5  N3  UNL     1       0.813  17.919  19.427  1.00  0.00     0.107 N
HETATM    6  C21 UNL     1       0.410  19.199  18.854  1.00  0.00     0.293 C
HETATM    7  C22 UNL     1       1.355  19.586  17.732  1.00  0.00     0.155 C
ENDROOT
BRANCH   5   8
HETATM    8  C13 UNL     1       0.546  16.854  18.524  1.00  0.00     0.339 C
HETATM    9  C14 UNL     1      -0.189  17.407  17.279  1.00  0.00     0.277 C
HETATM   10  N4  UNL     1      -1.242  16.510  16.932  1.00  0.00    -0.071 N
HETATM   11  C15 UNL     1      -2.541  16.980  17.427  1.00  0.00     0.252 C
ATOM     12  H42 UNL     1      -1.267  16.338  15.927  1.00  0.00     0.277 HD
ATOM     13  H41 UNL     1      -1.044  15.563  17.251  1.00  0.00     0.277 HD
HETATM   14  C16 UNL     1      -2.735  16.340  18.800  1.00  0.00     0.153 C
HETATM   15  N5  UNL     1      -1.633  15.401  19.018  1.00  0.00    -0.349 N
HETATM   16  C20 UNL     1      -0.271  15.742  19.033  1.00  0.00     0.255 C
HETATM   17  O3  UNL     1       0.438  14.865  19.655  1.00  0.00    -0.271 OA
BRANCH  15  18
HETATM   18  C17 UNL     1      -2.007  14.001  19.190  1.00  0.00     0.127 C
BRANCH  18  19
HETATM   19  C18 UNL     1      -2.043  13.362  17.825  1.00  0.00     0.047 C
BRANCH  19  20
HETATM   20  C19 UNL     1      -0.974  12.306  17.666  1.00  0.00     0.231 C
BRANCH  20  21
HETATM   21  N6  UNL     1      -1.060  11.617  16.402  1.00  0.00    -0.079 N
ATOM     22  H63 UNL     1      -1.721  12.078  15.778  1.00  0.00     0.274 HD
ATOM     23  H62 UNL     1      -0.205  11.741  15.859  1.00  0.00     0.274 HD
ATOM     24  H61 UNL     1      -1.286  10.628  16.510  1.00  0.00     0.274 HD
ENDBRANCH  20  21
ENDBRANCH  19  20
ENDBRANCH  18  19
ENDBRANCH  15  18
ENDBRANCH   5   8
BRANCH   1  25
HETATM   25  C9  UNL     1       3.963  20.678  16.291  1.00  0.00     0.081 A
HETATM   26  C5  UNL     1       3.220  20.357  15.109  1.00  0.00     0.081 A
HETATM   27  C6  UNL     1       4.360  19.449  15.403  1.00  0.00     0.032 A
BRANCH  26  28
HETATM   28  C4  UNL     1       3.163  21.095  13.846  1.00  0.00     0.120 C
BRANCH  28  29
HETATM   29  N1  UNL     1       2.740  20.662  12.621  1.00  0.00    -0.350 N
ATOM     30  H1  UNL     1       3.454  20.812  11.908  1.00  0.00     0.167 HD
BRANCH  29  31
HETATM   31  C3  UNL     1       1.596  20.070  12.076  1.00  0.00     0.089 C
BRANCH  31  32
HETATM   32  C2  UNL     1       1.761  18.850  11.278  1.00  0.00     0.007 C
HETATM   33  C1  UNL     1       2.133  18.777  10.034  1.00  0.00     0.012 C
ENDBRANCH  31  32
ENDBRANCH  29  31
ENDBRANCH  28  29
BRANCH  28  34
HETATM   34  O1  UNL     1       3.588  22.386  13.888  1.00  0.00    -0.349 OA
ATOM     35  H1  UNL     1       4.259  22.612  13.256  1.00  0.00     0.219 HD
ENDBRANCH  28  34
ENDBRANCH  26  28
BRANCH  27  36
HETATM   36  C7  UNL     1       5.728  19.595  14.854  1.00  0.00    -0.031 C
HETATM   37  C8  UNL     1       6.312  18.572  14.279  1.00  0.00     0.007 C
ENDBRANCH  27  36
ENDBRANCH   1  25
BRANCH   1  38
HETATM   38  O2  UNL     1       4.816  20.511  18.413  1.00  0.00    -0.349 OA
ATOM     39  H2  UNL     1       4.885  21.438  18.603  1.00  0.00     0.219 HD
ENDBRANCH   1  38
TORSDOF 13
ENDMDL