MODEL 3
REMARK VINA RESULT: -6.137776347      2.385      3.770
REMARK  9 active torsions:
REMARK  status: ('A' for Active; 'I' for Inactive)
REMARK       I    between atoms: N1_3  and  C3_4
REMARK    1  A    between atoms: C4_9  and  C5_10
REMARK       I    between atoms: C5_10  and  N4_12
REMARK    2  A    between atoms: N4_12  and  C6_14
REMARK    3  A    between atoms: C6_14  and  C7_15
REMARK    4  A    between atoms: C7_15  and  N5_16
REMARK    5  A    between atoms: N5_16  and  C8_19
REMARK    6  A    between atoms: C8_19  and  C9_20
REMARK    7  A    between atoms: C9_20  and  N6_21
REMARK    8  A    between atoms: N6_21  and  C12_24
REMARK    9  A    between atoms: C12_24  and  C13_25
ROOT
HETATM    1  C5  UNL     1       0.967  17.559  20.251  1.00  0.00     0.244 C
HETATM    2  O1  UNL     1       0.665  16.401  20.625  1.00  0.00    -0.271 OA
HETATM    3  N4  UNL     1       0.283  18.663  20.797  1.00  0.00    -0.337 N
ATOM      4  H4  UNL     1       0.589  19.567  20.434  1.00  0.00     0.167 HD
ENDROOT
BRANCH   3   5
HETATM    5  C6  UNL     1      -0.743  18.744  21.751  1.00  0.00     0.091 C
BRANCH   5   6
HETATM    6  C7  UNL     1      -2.108  19.217  21.411  1.00  0.00     0.277 C
BRANCH   6   7
HETATM    7  N5  UNL     1      -2.280  19.643  20.071  1.00  0.00    -0.069 N
ATOM      8  H52 UNL     1      -2.519  20.633  20.013  1.00  0.00     0.277 HD
ATOM      9  H51 UNL     1      -1.396  19.671  19.563  1.00  0.00     0.277 HD
BRANCH   7  10
HETATM   10  C8  UNL     1      -3.297  18.781  19.378  1.00  0.00     0.260 C
BRANCH  10  11
HETATM   11  C9  UNL     1      -2.688  17.550  18.821  1.00  0.00     0.264 C
BRANCH  11  12
HETATM   12  N6  UNL     1      -3.449  16.910  17.767  1.00  0.00    -0.071 N
HETATM   13  C10 UNL     1      -2.957  17.359  16.443  1.00  0.00     0.272 C
HETATM   14  C11 UNL     1      -4.805  17.393  17.836  1.00  0.00     0.272 C
BRANCH  12  15
HETATM   15  C12 UNL     1      -3.271  15.504  17.766  1.00  0.00     0.268 C
BRANCH  15  16
HETATM   16  C13 UNL     1      -1.896  14.958  17.798  1.00  0.00     0.147 C
HETATM   17  C14 UNL     1      -1.643  14.155  19.051  1.00  0.00     0.036 C
HETATM   18  C15 UNL     1      -0.735  13.044  18.556  1.00  0.00     0.029 C
HETATM   19  C16 UNL     1      -1.247  12.892  17.151  1.00  0.00     0.168 C
HETATM   20  O2  UNL     1      -1.796  14.063  16.730  1.00  0.00    -0.384 OA
ENDBRANCH  15  16
ENDBRANCH  12  15
ENDBRANCH  11  12
ENDBRANCH  10  11
ENDBRANCH   7  10
ENDBRANCH   6   7
ENDBRANCH   5   6
ENDBRANCH   3   5
BRANCH   1  21
HETATM   21  C4  UNL     1       2.038  17.663  19.251  1.00  0.00     0.181 C
HETATM   22  N1  UNL     1       1.901  18.625  18.210  1.00  0.00    -0.325 N
HETATM   23  C2  UNL     1       2.997  19.524  17.928  1.00  0.00     0.206 C
HETATM   24  C3  UNL     1       0.747  18.690  17.391  1.00  0.00     0.185 C
HETATM   25  C1  UNL     1       2.783  20.458  16.783  1.00  0.00     0.049 C
HETATM   26  S1  UNL     1       3.490  20.328  19.422  1.00  0.00     0.165 S
HETATM   27  C18 UNL     1       3.613  19.046  20.659  1.00  0.00     0.145 C
HETATM   28  O3  UNL     1       2.482  21.324  19.862  1.00  0.00    -0.226 OA
HETATM   29  O4  UNL     1       4.809  21.039  19.249  1.00  0.00    -0.226 OA
HETATM   30  C17 UNL     1       3.372  17.743  19.966  1.00  0.00     0.050 C
HETATM   31  N2  UNL     1       0.452  17.560  16.776  1.00  0.00    -0.374 N
HETATM   32  N3  UNL     1      -0.089  19.792  17.171  1.00  0.00    -0.064 NA
ATOM     33  H22 UNL     1       1.061  16.757  16.936  1.00  0.00     0.158 HD
ATOM     34  H21 UNL     1      -0.378  17.607  16.187  1.00  0.00     0.158 HD
ENDBRANCH   1  21
TORSDOF 9
ENDMDL