MODEL 1
REMARK VINA RESULT: -7.076527265      0.000      0.000
REMARK  10 active torsions:
REMARK  status: ('A' for Active; 'I' for Inactive)
REMARK    1  A    between atoms: C7_14  and  N4_15
REMARK       I    between atoms: N4_15  and  C8_17
REMARK    2  A    between atoms: C8_17  and  C9_19
REMARK    3  A    between atoms: C9_19  and  C10_21
REMARK    4  A    between atoms: C10_21  and  C11_22
REMARK    5  A    between atoms: C11_22  and  C12_23
REMARK    6  A    between atoms: C12_23  and  C13_24
REMARK    7  A    between atoms: C13_24  and  N5_25
REMARK    8  A    between atoms: N6_28  and  C16_29
REMARK    9  A    between atoms: C16_29  and  C17_30
REMARK   10  A    between atoms: C17_30  and  O3_31
ROOT
HETATM    1  N4  UNL     1      -2.115  16.804  20.235  1.00  0.00    -0.346 N
ATOM      2  H4  UNL     1      -3.075  16.742  20.574  1.00  0.00     0.163 HD
HETATM    3  C8  UNL     1      -1.058  16.771  21.180  1.00  0.00     0.287 C
HETATM    4  O1  UNL     1       0.138  16.843  20.823  1.00  0.00    -0.264 OA
ENDROOT
BRANCH   3   5
HETATM    5  C9  UNL     1      -1.386  16.651  22.588  1.00  0.00     0.216 C
HETATM    6  O2  UNL     1      -2.104  15.685  23.013  1.00  0.00    -0.287 OA
BRANCH   5   7
HETATM    7  C10 UNL     1      -0.871  17.675  23.533  1.00  0.00     0.089 C
BRANCH   7   8
HETATM    8  C11 UNL     1      -1.394  19.026  23.074  1.00  0.00     0.010 C
BRANCH   8   9
HETATM    9  C12 UNL     1      -0.296  19.991  22.805  1.00  0.00     0.028 C
BRANCH   9  10
HETATM   10  C13 UNL     1      -0.031  20.345  21.396  1.00  0.00     0.237 C
BRANCH  10  11
HETATM   11  N5  UNL     1       1.326  20.471  20.974  1.00  0.00    -0.062 N
HETATM   12  C14 UNL     1       1.354  19.919  19.588  1.00  0.00     0.265 C
HETATM   13  C15 UNL     1       2.590  20.430  18.883  1.00  0.00     0.265 C
HETATM   14  N6  UNL     1       3.609  20.627  19.890  1.00  0.00    -0.060 N
HETATM   15  C18 UNL     1       3.476  19.460  20.769  1.00  0.00     0.265 C
HETATM   16  C20 UNL     1       3.298  21.769  20.730  1.00  0.00     0.265 C
HETATM   17  C19 UNL     1       2.258  19.614  21.682  1.00  0.00     0.265 C
HETATM   18  C21 UNL     1       1.787  21.830  20.818  1.00  0.00     0.265 C
BRANCH  14  19
HETATM   19  C16 UNL     1       4.940  20.613  19.408  1.00  0.00     0.263 C
BRANCH  19  20
HETATM   20  C17 UNL     1       5.135  20.979  17.979  1.00  0.00     0.192 C
BRANCH  20  21
HETATM   21  O3  UNL     1       6.422  21.002  17.538  1.00  0.00    -0.399 OA
ATOM     22  H3  UNL     1       6.972  20.282  17.822  1.00  0.00     0.209 HD
ENDBRANCH  20  21
ENDBRANCH  19  20
ENDBRANCH  14  19
ENDBRANCH  10  11
ENDBRANCH   9  10
ENDBRANCH   8   9
ENDBRANCH   7   8
ENDBRANCH   5   7
ENDBRANCH   3   5
BRANCH   1  23
HETATM   23  C7  UNL     1      -1.894  16.919  18.825  1.00  0.00     0.124 C
HETATM   24  C3  UNL     1      -1.949  15.556  18.228  1.00  0.00     0.025 A
HETATM   25  C2  UNL     1      -1.739  14.491  18.980  1.00  0.00     0.119 A
HETATM   26  C4  UNL     1      -2.218  15.427  16.816  1.00  0.00     0.126 A
HETATM   27  N2  UNL     1      -1.773  13.196  18.413  1.00  0.00    -0.201 N
HETATM   28  C1  UNL     1      -2.030  12.993  17.032  1.00  0.00     0.677 A
ATOM     29  H2  UNL     1      -1.609  12.388  19.012  1.00  0.00     0.183 HD
HETATM   30  N1  UNL     1      -2.057  11.786  16.518  1.00  0.00    -0.234 N
HETATM   31  N7  UNL     1      -2.258  14.130  16.213  1.00  0.00    -0.177 N
ATOM     32  H12 UNL     1      -1.894  10.969  17.106  1.00  0.00     0.174 HD
ATOM     33  H11 UNL     1      -2.242  11.639  15.525  1.00  0.00     0.174 HD
ATOM     34  H7  UNL     1      -2.447  14.025  15.215  1.00  0.00     0.186 HD
HETATM   35  N3  UNL     1      -2.443  16.490  16.074  1.00  0.00    -0.375 N
HETATM   36  C5  UNL     1      -2.434  17.832  16.630  1.00  0.00     0.123 C
ATOM     37  H3  UNL     1      -2.630  16.369  15.079  1.00  0.00     0.161 HD
HETATM   38  C6  UNL     1      -2.838  17.806  18.096  1.00  0.00     0.050 C
ENDBRANCH   1  23
TORSDOF 10
ENDMDL