MODEL 2
REMARK VINA RESULT: -4.334694832      1.645      3.775
REMARK  1 active torsions:
REMARK  status: ('A' for Active; 'I' for Inactive)
REMARK    1  A    between atoms: C3_3  and  N1_4
ROOT
HETATM    1  C1  UNL     1      53.137  65.914 -27.960  1.00  0.00     0.013 C
HETATM    2  C2  UNL     1      53.425  67.008 -28.399  1.00  0.00    -0.089 C
HETATM    3  C3  UNL     1      53.763  68.339 -28.907  1.00  0.00     0.332 C
ENDROOT
BRANCH   3   4
HETATM    4  N1  UNL     1      52.784  68.867 -29.795  1.00  0.00    -0.021 N
HETATM    5  C4  UNL     1      52.008  70.020 -29.383  1.00  0.00     0.268 C
HETATM    6  C5  UNL     1      51.310  70.467 -30.659  1.00  0.00     0.262 C
HETATM    7  N2  UNL     1      52.243  70.111 -31.684  1.00  0.00    -0.042 N
HETATM    8  C6  UNL     1      52.956  68.922 -31.202  1.00  0.00     0.414 A
ATOM      9  H22 UNL     1      51.809  69.980 -32.598  1.00  0.00     0.279 HD
ATOM     10  H21 UNL     1      52.864  70.877 -31.948  1.00  0.00     0.279 HD
HETATM   11  C7  UNL     1      52.094  67.886 -30.612  1.00  0.00     0.304 A
ENDBRANCH   3   4
TORSDOF 1
ENDMDL