MODEL 2
REMARK VINA RESULT: -3.857424000      1.790      3.373
REMARK  1 active torsions:
REMARK  status: ('A' for Active; 'I' for Inactive)
REMARK    1  A    between atoms: C2_2  and  N1_3
ROOT
HETATM    1  N1  UNL     1      53.332  67.654 -29.145  1.00  0.00     0.018 N
HETATM    2  C3  UNL     1      54.153  68.887 -29.373  1.00  0.00     0.296 A
HETATM    3  C4  UNL     1      52.687  68.926 -29.181  1.00  0.00     0.240 A
HETATM    4  C5  UNL     1      51.877  69.007 -30.451  1.00  0.00     0.055 C
HETATM    5  C6  UNL     1      52.383  67.806 -31.219  1.00  0.00     0.145 C
HETATM    6  N2  UNL     1      53.051  66.957 -30.286  1.00  0.00    -0.046 NA
ENDROOT
BRANCH   1   7
HETATM    7  C2  UNL     1      53.531  67.040 -27.877  1.00  0.00     0.256 C
HETATM    8  C1  UNL     1      53.080  65.652 -27.716  1.00  0.00     0.036 C
ENDBRANCH   1   7
TORSDOF 1
ENDMDL