MODEL 5
REMARK VINA RESULT: -3.084244213      1.211      2.429
REMARK  0 active torsions:
REMARK  status: ('A' for Active; 'I' for Inactive)
ROOT
HETATM    1  C1  UNL     1      52.540  67.827 -30.972  1.00  0.00     0.274 C
HETATM    2  N1  UNL     1      52.750  69.106 -30.407  1.00  0.00    -0.045 N
HETATM    3  C2  UNL     1      53.074  70.144 -31.369  1.00  0.00     0.241 C
HETATM    4  C3  UNL     1      53.009  71.390 -30.485  1.00  0.00     0.062 C
HETATM    5  C4  UNL     1      52.206  70.940 -29.314  1.00  0.00     0.215 C
HETATM    6  C5  UNL     1      51.497  69.699 -29.892  1.00  0.00     0.272 C
HETATM    7  N2  UNL     1      53.094  70.245 -28.401  1.00  0.00    -0.045 N
ATOM      8  H21 UNL     1      52.675  69.966 -27.513  1.00  0.00     0.279 HD
ATOM      9  H22 UNL     1      53.823  70.820 -27.979  1.00  0.00     0.279 HD
HETATM   10  C6  UNL     1      53.567  69.152 -29.239  1.00  0.00     0.467 C
ENDROOT
TORSDOF 0
ENDMDL