MODEL 5
REMARK VINA RESULT: -3.333052260      6.413      7.308
REMARK  0 active torsions:
REMARK  status: ('A' for Active; 'I' for Inactive)
ROOT
HETATM    1  C1  UNL     1      46.707  74.268 -28.456  1.00  0.00     0.302 C
HETATM    2  N1  UNL     1      47.388  73.693 -27.322  1.00  0.00     0.005 N
HETATM    3  C2  UNL     1      47.043  74.289 -26.034  1.00  0.00     0.270 C
HETATM    4  C3  UNL     1      47.280  72.891 -25.448  1.00  0.00     0.044 C
HETATM    5  C4  UNL     1      48.739  72.620 -25.271  1.00  0.00     0.029 C
HETATM    6  C5  UNL     1      49.516  73.250 -26.380  1.00  0.00     0.147 C
HETATM    7  N2  UNL     1      48.740  73.713 -27.476  1.00  0.00    -0.253 N
ATOM      8  H2  UNL     1      49.176  74.044 -28.337  1.00  0.00     0.187 HD
HETATM    9  C6  UNL     1      46.840  72.454 -26.835  1.00  0.00     0.270 C
ENDROOT
TORSDOF 0
ENDMDL