MODEL 4
REMARK VINA RESULT: -4.270316115      1.456      2.545
REMARK  0 active torsions:
REMARK  status: ('A' for Active; 'I' for Inactive)
ROOT
HETATM    1  C1  UNL     1      54.915  71.427 -27.969  1.00  0.00     0.012 C
HETATM    2  C2  UNL     1      54.332  70.507 -28.499  1.00  0.00    -0.113 C
HETATM    3  C3  UNL     1      53.656  69.406 -29.146  1.00  0.00     0.066 C
HETATM    4  C4  UNL     1      52.257  69.778 -29.566  1.00  0.00     0.019 C
HETATM    5  C5  UNL     1      51.908  69.143 -30.865  1.00  0.00     0.029 C
HETATM    6  C6  UNL     1      52.322  67.731 -31.023  1.00  0.00     0.232 C
HETATM    7  N1  UNL     1      52.290  66.935 -29.839  1.00  0.00    -0.075 N
ATOM      8  H11 UNL     1      52.020  65.975 -30.049  1.00  0.00     0.277 HD
ATOM      9  H12 UNL     1      51.508  67.199 -29.240  1.00  0.00     0.277 HD
HETATM   10  C7  UNL     1      53.549  66.976 -29.103  1.00  0.00     0.233 C
HETATM   11  C8  UNL     1      53.524  68.197 -28.220  1.00  0.00     0.044 C
ENDROOT
TORSDOF 0
ENDMDL