MODEL 4
REMARK VINA RESULT: -3.528814838      2.262      3.254
REMARK  1 active torsions:
REMARK  status: ('A' for Active; 'I' for Inactive)
REMARK    1  A    between atoms: N2_6  and  C5_7
ROOT
HETATM    1  C1  UNL     1      52.833  71.366 -32.112  1.00  0.00     0.274 C
HETATM    2  N1  UNL     1      52.200  71.338 -30.807  1.00  0.00    -0.057 N
HETATM    3  C2  UNL     1      51.433  72.565 -30.670  1.00  0.00     0.274 C
HETATM    4  C3  UNL     1      53.168  71.204 -29.742  1.00  0.00     0.258 C
HETATM    5  C4  UNL     1      53.065  69.780 -29.235  1.00  0.00     0.153 C
HETATM    6  N2  UNL     1      52.223  69.166 -30.235  1.00  0.00    -0.352 N
HETATM    7  C6  UNL     1      51.315  70.204 -30.665  1.00  0.00     0.362 C
ENDROOT
BRANCH   6   8
HETATM    8  C5  UNL     1      52.261  67.835 -30.708  1.00  0.00     0.172 C
HETATM    9  N3  UNL     1      52.612  67.508 -31.898  1.00  0.00    -0.395 N
ATOM     10  H32 UNL     1      52.875  68.266 -32.528  1.00  0.00     0.156 HD
ATOM     11  H31 UNL     1      52.640  66.548 -32.239  1.00  0.00     0.156 HD
ENDBRANCH   6   8
TORSDOF 1
ENDMDL