MODEL 4
REMARK VINA RESULT: -4.488281203      0.061      1.368
REMARK  3 active torsions:
REMARK  status: ('A' for Active; 'I' for Inactive)
REMARK    1  A    between atoms: N1_2  and  C4_5
REMARK    2  A    between atoms: C4_5  and  C5_6
REMARK    3  A    between atoms: C6_7  and  N2_8
ROOT
HETATM    1  C5  UNL     1      52.651  67.442 -30.209  1.00  0.00    -0.054 C
HETATM    2  C6  UNL     1      52.556  66.481 -29.484  1.00  0.00     0.027 C
ENDROOT
BRANCH   1   3
HETATM    3  C4  UNL     1      52.744  68.610 -31.081  1.00  0.00     0.331 C
BRANCH   3   4
HETATM    4  N1  UNL     1      52.835  69.843 -30.363  1.00  0.00    -0.069 N
HETATM    5  C1  UNL     1      54.047  69.776 -29.536  1.00  0.00     0.272 C
HETATM    6  C2  UNL     1      53.041  70.918 -31.301  1.00  0.00     0.272 C
HETATM    7  C3  UNL     1      51.665  70.097 -29.552  1.00  0.00     0.272 C
ENDBRANCH   3   4
ENDBRANCH   1   3
BRANCH   2   8
HETATM    8  N2  UNL     1      52.421  65.368 -28.648  1.00  0.00    -0.265 N
HETATM    9  N3  UNL     1      53.369  65.116 -27.847  1.00  0.00    -0.338 N
ATOM     10  H32 UNL     1      54.194  65.714 -27.825  1.00  0.00     0.177 HD
ATOM     11  H31 UNL     1      53.271  64.304 -27.238  1.00  0.00     0.177 HD
ATOM     12  H2  UNL     1      51.589  64.780 -28.683  1.00  0.00     0.197 HD
ENDBRANCH   2   8
TORSDOF 3
ENDMDL