MODEL 5
REMARK VINA RESULT: -3.972814998      2.509      2.526
REMARK  3 active torsions:
REMARK  status: ('A' for Active; 'I' for Inactive)
REMARK    1  A    between atoms: C3_3  and  C4_4
REMARK    2  A    between atoms: C5_5  and  C6_6
REMARK    3  A    between atoms: C6_6  and  C7_7
ROOT
HETATM    1  C1  UNL     1      54.698  73.226 -27.802  1.00  0.00     0.113 C
HETATM    2  C2  UNL     1      54.403  71.835 -28.220  1.00  0.00    -0.097 C
HETATM    3  C3  UNL     1      54.147  70.705 -28.556  1.00  0.00    -0.015 C
ENDROOT
BRANCH   3   4
HETATM    4  C4  UNL     1      53.827  69.383 -28.952  1.00  0.00    -0.015 C
HETATM    5  C5  UNL     1      53.559  68.257 -29.308  1.00  0.00    -0.090 C
BRANCH   5   6
HETATM    6  C6  UNL     1      53.233  66.892 -29.763  1.00  0.00     0.129 C
BRANCH   6   7
HETATM    7  C7  UNL     1      52.718  66.145 -28.564  1.00  0.00     0.222 A
HETATM    8  C8  UNL     1      53.415  66.246 -27.322  1.00  0.00     0.266 A
HETATM    9  N1  UNL     1      53.442  64.986 -28.087  1.00  0.00    -0.066 N
ATOM     10  H12 UNL     1      53.218  64.009 -27.897  1.00  0.00     0.277 HD
ATOM     11  H11 UNL     1      54.165  64.370 -28.458  1.00  0.00     0.277 HD
ENDBRANCH   6   7
ENDBRANCH   5   6
ENDBRANCH   3   4
TORSDOF 3
ENDMDL