MODEL 1
REMARK VINA RESULT: -3.631057274      0.000      0.000
REMARK  2 active torsions:
REMARK  status: ('A' for Active; 'I' for Inactive)
REMARK    1  A    between atoms: O1_1  and  C1_3
REMARK    2  A    between atoms: C1_3  and  N1_4
ROOT
HETATM    1  N1  UNL     1      53.152  68.412 -29.561  1.00  0.00    -0.046 N
HETATM    2  C2  UNL     1      52.767  68.345 -30.936  1.00  0.00     0.240 C
HETATM    3  C3  UNL     1      52.926  69.834 -31.315  1.00  0.00     0.036 C
HETATM    4  C4  UNL     1      53.229  70.367 -29.948  1.00  0.00     0.039 C
HETATM    5  C5  UNL     1      52.353  69.542 -29.057  1.00  0.00     0.246 C
HETATM    6  C6  UNL     1      54.279  69.357 -29.485  1.00  0.00     0.246 C
ENDROOT
BRANCH   1   7
HETATM    7  C1  UNL     1      53.215  67.263 -28.777  1.00  0.00     0.401 C
BRANCH   7   8
HETATM    8  O1  UNL     1      53.451  66.154 -29.621  1.00  0.00    -0.374 OA
ATOM      9  H1  UNL     1      52.883  65.441 -29.351  1.00  0.00     0.211 HD
ENDBRANCH   7   8
ENDBRANCH   1   7
TORSDOF 2
ENDMDL