MODEL 5
REMARK VINA RESULT: -3.876267383      1.609      3.316
REMARK  1 active torsions:
REMARK  status: ('A' for Active; 'I' for Inactive)
REMARK    1  A    between atoms: C2_2  and  N1_3
ROOT
HETATM    1  N1  UNL     1      51.891  70.583 -30.486  1.00  0.00     0.028 N
HETATM    2  C3  UNL     1      50.632  71.198 -30.167  1.00  0.00     0.299 C
HETATM    3  C4  UNL     1      52.378  69.924 -29.297  1.00  0.00     0.285 C
HETATM    4  C5  UNL     1      53.326  68.886 -29.900  1.00  0.00     0.196 C
HETATM    5  N2  UNL     1      52.571  68.474 -31.061  1.00  0.00    -0.217 N
HETATM    6  N3  UNL     1      52.698  67.398 -31.683  1.00  0.00    -0.330 N
ATOM      7  H31 UNL     1      52.164  67.108 -32.502  1.00  0.00     0.178 HD
ATOM      8  H32 UNL     1      53.353  66.645 -31.470  1.00  0.00     0.178 HD
HETATM    9  N4  UNL     1      51.677  69.503 -31.351  1.00  0.00     0.090 NA
ENDROOT
BRANCH   1  10
HETATM   10  C2  UNL     1      52.847  71.458 -31.071  1.00  0.00     0.257 C
HETATM   11  C1  UNL     1      52.643  71.689 -32.545  1.00  0.00     0.036 C
ENDBRANCH   1  10
TORSDOF 1
ENDMDL