MODEL 5
REMARK VINA RESULT: -6.849062573      3.789      7.420
REMARK  8 active torsions:
REMARK  status: ('A' for Active; 'I' for Inactive)
REMARK    1  A    between atoms: C2_2  and  C3_3
REMARK    2  A    between atoms: C3_3  and  C4_4
REMARK    3  A    between atoms: C4_4  and  C5_5
REMARK    4  A    between atoms: C4_4  and  C11_15
REMARK       I    between atoms: N2_9  and  C8_10
REMARK       I    between atoms: C11_15  and  N4_17
REMARK    5  A    between atoms: C16_22  and  C17_23
REMARK       I    between atoms: C17_23  and  N5_25
REMARK    6  A    between atoms: N5_25  and  C18_27
REMARK    7  A    between atoms: C18_27  and  C19_28
REMARK    8  A    between atoms: C19_28  and  N6_29
ROOT
HETATM    1  C11 UNL     1      -1.446  18.021  18.009  1.00  0.00     0.230 C
HETATM    2  O2  UNL     1      -1.520  16.869  17.529  1.00  0.00    -0.273 OA
HETATM    3  N4  UNL     1      -0.524  18.341  18.993  1.00  0.00    -0.338 N
HETATM    4  C12 UNL     1      -0.293  19.694  19.542  1.00  0.00     0.127 C
HETATM    5  C13 UNL     1       1.226  19.832  19.565  1.00  0.00     0.020 C
HETATM    6  C14 UNL     1       1.914  18.948  18.549  1.00  0.00     0.004 C
HETATM    7  C15 UNL     1       1.622  17.465  18.740  1.00  0.00     0.035 C
HETATM    8  C16 UNL     1       0.355  17.375  19.579  1.00  0.00     0.179 C
ENDROOT
BRANCH   1   9
HETATM    9  C4  UNL     1      -2.451  19.002  17.415  1.00  0.00     0.119 C
BRANCH   9  10
HETATM   10  C3  UNL     1      -2.071  19.331  16.026  1.00  0.00     0.045 C
BRANCH  10  11
HETATM   11  C2  UNL     1      -0.768  19.957  15.771  1.00  0.00    -0.036 C
HETATM   12  C1  UNL     1      -0.405  21.185  16.157  1.00  0.00     0.007 C
ENDBRANCH  10  11
ENDBRANCH   9  10
BRANCH   9  13
HETATM   13  C5  UNL     1      -3.774  18.473  17.762  1.00  0.00     0.072 C
HETATM   14  N1  UNL     1      -4.951  19.095  17.462  1.00  0.00    -0.389 N
HETATM   15  C6  UNL     1      -5.574  18.989  16.197  1.00  0.00     0.141 C
HETATM   16  C10 UNL     1      -5.790  19.542  18.530  1.00  0.00     0.141 C
HETATM   17  C7  UNL     1      -6.872  18.194  16.240  1.00  0.00     0.147 C
HETATM   18  N2  UNL     1      -7.652  18.419  17.414  1.00  0.00    -0.333 N
HETATM   19  C8  UNL     1      -9.063  18.295  17.324  1.00  0.00     0.330 C
HETATM   20  C9  UNL     1      -7.060  18.763  18.671  1.00  0.00     0.147 C
HETATM   21  N3  UNL     1      -9.870  18.510  18.477  1.00  0.00    -0.040 NA
HETATM   22  O1  UNL     1      -9.626  17.991  16.216  1.00  0.00    -0.251 OA
ENDBRANCH   9  13
ENDBRANCH   1   9
BRANCH   8  23
HETATM   23  C17 UNL     1      -0.162  16.058  19.851  1.00  0.00     0.240 C
HETATM   24  O3  UNL     1      -0.956  15.910  20.843  1.00  0.00    -0.271 OA
HETATM   25  N5  UNL     1       0.148  14.907  19.091  1.00  0.00    -0.358 N
ATOM     26  H5  UNL     1       0.776  15.024  18.296  1.00  0.00     0.162 HD
BRANCH  25  27
HETATM   27  C18 UNL     1      -0.343  13.607  19.347  1.00  0.00     0.142 C
BRANCH  27  28
HETATM   28  C19 UNL     1      -1.683  13.384  18.696  1.00  0.00     0.141 C
BRANCH  28  29
HETATM   29  N6  UNL     1      -1.606  12.245  17.763  1.00  0.00    -0.365 N
HETATM   30  C20 UNL     1      -1.759  12.414  16.488  1.00  0.00     0.197 C
HETATM   31  N7  UNL     1      -2.004  13.729  16.014  1.00  0.00    -0.067 NA
HETATM   32  N8  UNL     1      -1.693  11.361  15.564  1.00  0.00    -0.067 NA
ATOM     33  H6  UNL     1      -1.430  11.309  18.128  1.00  0.00     0.161 HD
ENDBRANCH  28  29
ENDBRANCH  27  28
ENDBRANCH  25  27
ENDBRANCH   8  23
TORSDOF 8
ENDMDL