MODEL 1
REMARK VINA RESULT: -7.024033970      0.000      0.000
REMARK  11 active torsions:
REMARK  status: ('A' for Active; 'I' for Inactive)
REMARK    1  A    between atoms: C2_3  and  O1_4
REMARK    2  A    between atoms: C2_3  and  C3_6
REMARK    3  A    between atoms: C4_8  and  C5_9
REMARK    4  A    between atoms: C5_9  and  C6_10
REMARK    5  A    between atoms: C5_9  and  C13_20
REMARK    6  A    between atoms: C6_10  and  C7_11
REMARK    7  A    between atoms: N2_14  and  C10_15
REMARK    8  A    between atoms: C10_15  and  O3_17
REMARK       I    between atoms: C13_20  and  N3_22
REMARK    9  A    between atoms: N3_22  and  C14_24
REMARK   10  A    between atoms: C14_24  and  C15_25
REMARK   11  A    between atoms: C15_25  and  N4_26
REMARK       I    between atoms: N4_26  and  C16_28
REMARK       I    between atoms: C16_28  and  N6_32
ROOT
HETATM    1  C1  UNL     1      -2.512  12.914  15.298  1.00  0.00     0.231 C
HETATM    2  N1  UNL     1      -1.887  12.642  16.265  1.00  0.00    -0.406 NA
HETATM    3  C2  UNL     1      -1.189  12.336  17.345  1.00  0.00     0.220 C
ENDROOT
BRANCH   3   4
HETATM    4  O1  UNL     1      -0.216  11.450  17.146  1.00  0.00    -0.337 OA
ATOM      5  H1  UNL     1       0.651  11.828  17.049  1.00  0.00     0.220 HD
ENDBRANCH   3   4
BRANCH   3   6
HETATM    6  C3  UNL     1      -1.280  12.792  18.714  1.00  0.00     0.240 A
HETATM    7  O2  UNL     1      -0.055  13.173  19.271  1.00  0.00    -0.365 OA
HETATM    8  C4  UNL     1      -1.149  14.049  19.356  1.00  0.00     0.173 A
BRANCH   8   9
HETATM    9  C5  UNL     1      -1.135  15.439  18.920  1.00  0.00     0.112 C
BRANCH   9  10
HETATM   10  C6  UNL     1      -2.320  16.335  19.122  1.00  0.00     0.050 C
BRANCH  10  11
HETATM   11  C7  UNL     1      -3.028  16.717  17.884  1.00  0.00     0.201 C
HETATM   12  C8  UNL     1      -4.466  17.104  17.950  1.00  0.00     0.069 C
HETATM   13  C9  UNL     1      -3.958  18.410  18.390  1.00  0.00     0.249 C
HETATM   14  C12 UNL     1      -4.149  17.663  16.591  1.00  0.00     0.249 C
HETATM   15  N2  UNL     1      -2.990  18.063  17.416  1.00  0.00    -0.036 N
BRANCH  15  16
HETATM   16  C10 UNL     1      -1.976  18.765  16.967  1.00  0.00     0.319 C
HETATM   17  C11 UNL     1      -1.348  19.643  18.060  1.00  0.00     0.071 C
BRANCH  16  18
HETATM   18  O3  UNL     1      -0.909  17.963  16.494  1.00  0.00    -0.370 OA
ATOM     19  H3  UNL     1      -0.274  18.450  15.982  1.00  0.00     0.212 HD
ENDBRANCH  16  18
ENDBRANCH  15  16
ENDBRANCH  10  11
ENDBRANCH   9  10
BRANCH   9  20
HETATM   20  C13 UNL     1       0.108  16.170  19.401  1.00  0.00     0.224 C
HETATM   21  O4  UNL     1       0.460  16.011  20.579  1.00  0.00    -0.273 OA
HETATM   22  N3  UNL     1       0.863  17.013  18.555  1.00  0.00    -0.359 N
ATOM     23  H3  UNL     1       0.544  17.120  17.592  1.00  0.00     0.162 HD
BRANCH  22  24
HETATM   24  C14 UNL     1       2.033  17.727  18.939  1.00  0.00     0.143 C
BRANCH  24  25
HETATM   25  C15 UNL     1       2.382  18.865  18.021  1.00  0.00     0.157 C
BRANCH  25  26
HETATM   26  N4  UNL     1       2.204  18.516  16.633  1.00  0.00    -0.225 N
HETATM   27  C16 UNL     1       2.189  19.473  15.591  1.00  0.00     0.669 C
HETATM   28  N5  UNL     1       1.044  19.813  15.097  1.00  0.00    -0.235 N
HETATM   29  N6  UNL     1       3.372  20.065  15.075  1.00  0.00    -0.218 N
ATOM     30  H52 UNL     1       0.194  19.388  15.468  1.00  0.00     0.174 HD
ATOM     31  H51 UNL     1       1.033  20.503  14.346  1.00  0.00     0.174 HD
HETATM   32  C17 UNL     1       4.520  19.278  14.695  1.00  0.00     0.141 C
HETATM   33  C21 UNL     1       3.438  21.503  14.924  1.00  0.00     0.141 C
HETATM   34  C18 UNL     1       4.737  19.422  13.216  1.00  0.00     0.020 C
HETATM   35  C19 UNL     1       4.073  20.671  12.686  1.00  0.00     0.003 C
HETATM   36  C20 UNL     1       4.187  21.836  13.653  1.00  0.00     0.020 C
ATOM     37  H4  UNL     1       2.083  17.532  16.390  1.00  0.00     0.177 HD
ENDBRANCH  25  26
ENDBRANCH  24  25
ENDBRANCH  22  24
ENDBRANCH   9  20
ENDBRANCH   8   9
ENDBRANCH   3   6
TORSDOF 11
ENDMDL