MODEL 2
REMARK VINA RESULT: -6.253241481      2.556      3.253
REMARK  12 active torsions:
REMARK  status: ('A' for Active; 'I' for Inactive)
REMARK    1  A    between atoms: C1_2  and  C2_4
REMARK    2  A    between atoms: C2_4  and  C3_5
REMARK    3  A    between atoms: C5_7  and  C6_8
REMARK    4  A    between atoms: N1_11  and  C7_12
REMARK    5  A    between atoms: C7_12  and  O5_13
REMARK    6  A    between atoms: C7_12  and  C8_15
REMARK    7  A    between atoms: C7_12  and  C18_29
REMARK    8  A    between atoms: C8_15  and  N2_16
REMARK    9  A    between atoms: N3_19  and  C11_20
REMARK   10  A    between atoms: C11_20  and  C12_21
REMARK   11  A    between atoms: C12_21  and  C13_22
REMARK   12  A    between atoms: C13_22  and  O6_23
ROOT
HETATM    1  C7  UNL     1      -0.714  17.514  17.653  1.00  0.00     0.158 C
ENDROOT
BRANCH   1   2
HETATM    2  N1  UNL     1      -1.101  16.266  18.110  1.00  0.00    -0.366 N
HETATM    3  C5  UNL     1      -0.958  15.685  19.322  1.00  0.00     0.183 C
HETATM    4  C4  UNL     1      -0.973  14.184  19.087  1.00  0.00     0.042 C
HETATM    5  C3  UNL     1      -1.221  14.024  17.624  1.00  0.00     0.015 C
HETATM    6  C21 UNL     1      -1.754  15.367  17.191  1.00  0.00     0.126 C
BRANCH   3   7
HETATM    7  C6  UNL     1      -1.813  15.980  20.471  1.00  0.00     0.196 C
HETATM    8  O3  UNL     1      -2.344  17.082  20.658  1.00  0.00    -0.646 OA
HETATM    9  O4  UNL     1      -2.059  14.994  21.414  1.00  0.00    -0.646 OA
ENDBRANCH   3   7
BRANCH   5  10
HETATM   10  C2  UNL     1      -2.114  12.870  17.257  1.00  0.00     0.119 C
BRANCH  10  11
HETATM   11  C1  UNL     1      -1.776  12.147  16.048  1.00  0.00     0.172 C
HETATM   12  O1  UNL     1      -1.068  11.136  15.956  1.00  0.00    -0.648 OA
HETATM   13  O2  UNL     1      -2.302  12.631  14.832  1.00  0.00    -0.648 OA
ENDBRANCH  10  11
ENDBRANCH   5  10
ENDBRANCH   1   2
BRANCH   1  14
HETATM   14  O5  UNL     1       0.421  17.270  16.815  1.00  0.00    -0.369 OA
ATOM     15  H5  UNL     1       0.643  18.117  16.445  1.00  0.00     0.212 HD
ENDBRANCH   1  14
BRANCH   1  16
HETATM   16  C8  UNL     1      -0.353  18.577  18.605  1.00  0.00     0.298 C
BRANCH  16  17
HETATM   17  N2  UNL     1       0.954  18.706  19.125  1.00  0.00    -0.058 N
HETATM   18  C9  UNL     1       1.865  19.488  18.307  1.00  0.00     0.265 C
HETATM   19  C10 UNL     1       2.963  20.144  19.144  1.00  0.00     0.265 C
HETATM   20  N3  UNL     1       3.109  19.331  20.330  1.00  0.00    -0.062 N
HETATM   21  C14 UNL     1       1.964  19.659  21.174  1.00  0.00     0.265 C
HETATM   22  C16 UNL     1       3.028  17.929  20.040  1.00  0.00     0.265 C
HETATM   23  C15 UNL     1       0.752  19.600  20.311  1.00  0.00     0.265 C
HETATM   24  C17 UNL     1       1.574  17.575  19.713  1.00  0.00     0.265 C
BRANCH  20  25
HETATM   25  C11 UNL     1       4.366  19.633  20.940  1.00  0.00     0.239 C
BRANCH  25  26
HETATM   26  C12 UNL     1       5.069  20.825  20.330  1.00  0.00     0.054 C
BRANCH  26  27
HETATM   27  C13 UNL     1       5.770  21.541  21.492  1.00  0.00     0.165 C
BRANCH  27  28
HETATM   28  O6  UNL     1       6.901  20.813  21.862  1.00  0.00    -0.401 OA
ATOM     29  H6  UNL     1       7.109  21.003  22.770  1.00  0.00     0.209 HD
ENDBRANCH  27  28
ENDBRANCH  26  27
ENDBRANCH  25  26
ENDBRANCH  20  25
ENDBRANCH  16  17
ENDBRANCH   1  16
BRANCH   1  30
HETATM   30  C18 UNL     1      -1.677  18.109  16.609  1.00  0.00     0.043 A
HETATM   31  C19 UNL     1      -1.653  19.577  16.330  1.00  0.00     0.010 A
HETATM   32  C20 UNL     1      -2.796  18.948  16.986  1.00  0.00     0.010 A
ENDBRANCH   1  30
TORSDOF 12
ENDMDL