MODEL 1
REMARK VINA RESULT: -7.146225745      0.000      0.000
REMARK  13 active torsions:
REMARK  status: ('A' for Active; 'I' for Inactive)
REMARK    1  A    between atoms: C2_2  and  N1_3
REMARK    2  A    between atoms: N1_3  and  C3_5
REMARK    3  A    between atoms: C4_8  and  N3_9
REMARK    4  A    between atoms: C6_14  and  N5_15
REMARK    5  A    between atoms: N5_15  and  C7_17
REMARK    6  A    between atoms: N6_21  and  C11_22
REMARK    7  A    between atoms: C11_22  and  C12_23
REMARK    8  A    between atoms: C12_23  and  O1_24
REMARK    9  A    between atoms: O1_24  and  C13_25
REMARK   10  A    between atoms: C13_25  and  C14_26
REMARK   11  A    between atoms: C14_26  and  O2_27
REMARK   12  A    between atoms: C14_26  and  C15_29
REMARK   13  A    between atoms: C15_29  and  N7_30
ROOT
HETATM    1  C7  UNL     1       0.625  16.325  20.216  1.00  0.00     0.138 C
HETATM    2  C8  UNL     1      -0.502  17.077  20.939  1.00  0.00     0.036 C
HETATM    3  C9  UNL     1       0.110  17.994  21.942  1.00  0.00     0.047 C
HETATM    4  C10 UNL     1       0.955  19.030  21.240  1.00  0.00     0.063 C
HETATM    5  N6  UNL     1       1.707  18.574  20.170  1.00  0.00    -0.370 N
HETATM    6  C21 UNL     1       1.521  17.320  19.578  1.00  0.00     0.088 C
ENDROOT
BRANCH   1   7
HETATM    7  N5  UNL     1       0.102  15.386  19.353  1.00  0.00    -0.216 N
ATOM      8  H5  UNL     1       0.525  14.491  19.601  1.00  0.00     0.178 HD
BRANCH   7   9
HETATM    9  C6  UNL     1      -0.655  15.169  18.414  1.00  0.00     0.707 A
HETATM   10  N4  UNL     1      -0.972  13.864  18.092  1.00  0.00    -0.022 N
HETATM   11  C4  UNL     1      -1.769  13.518  17.105  1.00  0.00     0.706 A
ATOM     12  H4  UNL     1      -0.561  13.120  18.656  1.00  0.00     0.203 HD
HETATM   13  N2  UNL     1      -2.324  14.476  16.344  1.00  0.00    -0.022 N
HETATM   14  C3  UNL     1      -2.067  15.769  16.591  1.00  0.00     0.707 A
ATOM     15  H2  UNL     1      -2.944  14.219  15.576  1.00  0.00     0.203 HD
HETATM   16  N8  UNL     1      -1.235  16.080  17.624  1.00  0.00    -0.022 N
ATOM     17  H8  UNL     1      -1.044  17.065  17.805  1.00  0.00     0.203 HD
BRANCH  11  18
HETATM   18  N3  UNL     1      -2.042  12.269  16.837  1.00  0.00    -0.229 N
HETATM   19  C5  UNL     1      -1.716  11.781  15.499  1.00  0.00     0.165 C
ATOM     20  H3  UNL     1      -2.465  11.658  17.535  1.00  0.00     0.177 HD
ENDBRANCH  11  18
BRANCH  14  21
HETATM   21  N1  UNL     1      -2.612  16.681  15.847  1.00  0.00    -0.225 N
ATOM     22  H1  UNL     1      -2.687  16.497  14.846  1.00  0.00     0.177 HD
BRANCH  21  23
HETATM   23  C2  UNL     1      -3.115  17.930  16.339  1.00  0.00     0.133 C
HETATM   24  C1  UNL     1      -4.602  17.771  16.679  1.00  0.00     0.027 C
ENDBRANCH  21  23
ENDBRANCH  14  21
ENDBRANCH   7   9
ENDBRANCH   1   7
BRANCH   5  25
HETATM   25  C11 UNL     1       2.940  19.232  19.880  1.00  0.00     0.153 C
BRANCH  25  26
HETATM   26  C12 UNL     1       2.765  20.571  19.211  1.00  0.00     0.187 C
BRANCH  26  27
HETATM   27  O1  UNL     1       3.649  20.798  18.191  1.00  0.00    -0.387 OA
BRANCH  27  28
HETATM   28  C13 UNL     1       4.980  20.828  18.506  1.00  0.00     0.201 C
BRANCH  28  29
HETATM   29  C14 UNL     1       5.793  21.134  17.287  1.00  0.00     0.168 C
BRANCH  29  30
HETATM   30  O2  UNL     1       6.557  22.299  17.378  1.00  0.00    -0.392 OA
ATOM     31  H2  UNL     1       7.407  22.182  17.784  1.00  0.00     0.210 HD
ENDBRANCH  29  30
BRANCH  29  32
HETATM   32  C15 UNL     1       5.024  21.053  16.017  1.00  0.00     0.270 C
BRANCH  32  33
HETATM   33  N7  UNL     1       5.241  19.997  15.123  1.00  0.00    -0.068 N
HETATM   34  C16 UNL     1       4.167  18.975  15.275  1.00  0.00     0.272 C
HETATM   35  C17 UNL     1       6.449  19.251  15.171  1.00  0.00     0.237 C
HETATM   36  C18 UNL     1       6.461  18.539  13.824  1.00  0.00     0.029 C
HETATM   37  C19 UNL     1       5.571  19.293  12.895  1.00  0.00     0.029 C
HETATM   38  C20 UNL     1       5.086  20.448  13.752  1.00  0.00     0.237 C
ENDBRANCH  32  33
ENDBRANCH  29  32
ENDBRANCH  28  29
ENDBRANCH  27  28
ENDBRANCH  26  27
ENDBRANCH  25  26
ENDBRANCH   5  25
TORSDOF 13
ENDMDL