MODEL 2
REMARK VINA RESULT: -7.260914550      1.576      2.081
REMARK  11 active torsions:
REMARK  status: ('A' for Active; 'I' for Inactive)
REMARK    1  A    between atoms: N1_2  and  C2_3
REMARK    2  A    between atoms: C2_3  and  C3_4
REMARK    3  A    between atoms: C3_4  and  C4_5
REMARK    4  A    between atoms: C4_5  and  C5_6
REMARK    5  A    between atoms: C5_6  and  C6_7
REMARK    6  A    between atoms: N3_9  and  O1_11
REMARK    7  A    between atoms: C11_17  and  C12_18
REMARK       I    between atoms: C12_18  and  N4_20
REMARK    8  A    between atoms: N4_20  and  C13_22
REMARK       I    between atoms: N5_25  and  C16_26
REMARK    9  A    between atoms: C16_26  and  C17_28
REMARK       I    between atoms: N6_29  and  C18_31
REMARK   10  A    between atoms: C18_31  and  C19_33
REMARK   11  A    between atoms: C19_33  and  N7_34
ROOT
HETATM    1  C12 UNL     1      -3.194  17.359  18.737  1.00  0.00     0.249 C
HETATM    2  O2  UNL     1      -3.595  16.133  18.662  1.00  0.00    -0.271 OA
HETATM    3  N4  UNL     1      -4.036  18.281  18.095  1.00  0.00    -0.353 N
ATOM      4  H4  UNL     1      -3.783  19.269  18.106  1.00  0.00     0.163 HD
ENDROOT
BRANCH   1   5
HETATM    5  C11 UNL     1      -1.961  17.572  19.460  1.00  0.00     0.281 C
HETATM    6  N1  UNL     1      -0.739  17.064  18.955  1.00  0.00    -0.058 N
HETATM    7  C1  UNL     1      -0.564  17.265  17.529  1.00  0.00     0.273 C
HETATM    8  C7  UNL     1       0.309  17.899  19.572  1.00  0.00     0.238 C
HETATM    9  C8  UNL     1       0.339  17.817  21.047  1.00  0.00     0.028 C
HETATM   10  C9  UNL     1      -1.019  17.837  21.692  1.00  0.00     0.004 C
HETATM   11  C10 UNL     1      -2.086  17.166  20.926  1.00  0.00     0.043 C
BRANCH   6  12
HETATM   12  C2  UNL     1      -0.432  15.702  19.280  1.00  0.00     0.238 C
BRANCH  12  13
HETATM   13  C3  UNL     1      -0.609  14.769  18.122  1.00  0.00     0.028 C
BRANCH  13  14
HETATM   14  C4  UNL     1      -1.164  13.415  18.610  1.00  0.00     0.009 C
BRANCH  14  15
HETATM   15  C5  UNL     1      -2.066  12.853  17.541  1.00  0.00     0.075 C
BRANCH  15  16
HETATM   16  C6  UNL     1      -1.272  11.901  16.706  1.00  0.00     0.113 C
HETATM   17  N2  UNL     1      -1.693  11.537  15.410  1.00  0.00    -0.086 NA
HETATM   18  N3  UNL     1      -0.184  11.418  17.198  1.00  0.00    -0.260 N
ATOM     19  H3  UNL     1       0.102  11.695  18.137  1.00  0.00     0.195 HD
BRANCH  18  20
HETATM   20  O1  UNL     1       0.597  10.544  16.498  1.00  0.00    -0.289 OA
ATOM     21  H1  UNL     1       1.423  10.224  16.842  1.00  0.00     0.244 HD
ENDBRANCH  18  20
ENDBRANCH  15  16
ENDBRANCH  14  15
ENDBRANCH  13  14
ENDBRANCH  12  13
ENDBRANCH   6  12
ENDBRANCH   1   5
BRANCH   3  22
HETATM   22  C13 UNL     1      -5.266  17.872  17.408  1.00  0.00     0.104 C
HETATM   23  C14 UNL     1      -5.536  18.909  16.349  1.00  0.00     0.046 C
HETATM   24  C15 UNL     1      -6.359  19.936  17.116  1.00  0.00     0.128 C
HETATM   25  N5  UNL     1      -7.249  19.082  17.868  1.00  0.00    -0.345 N
HETATM   26  C16 UNL     1      -8.638  19.276  18.126  1.00  0.00     0.259 C
HETATM   27  C20 UNL     1      -6.460  17.973  18.317  1.00  0.00     0.151 C
HETATM   28  O3  UNL     1      -9.297  18.449  18.798  1.00  0.00    -0.267 OA
BRANCH  26  29
HETATM   29  C17 UNL     1      -9.333  20.450  17.614  1.00  0.00     0.165 C
HETATM   30  N6  UNL     1      -9.970  20.470  16.513  1.00  0.00    -0.330 N
HETATM   31  C18 UNL     1     -10.126  19.414  15.606  1.00  0.00     0.247 C
ATOM     32  H6  UNL     1     -10.416  21.352  16.263  1.00  0.00     0.168 HD
HETATM   33  O4  UNL     1     -11.019  18.563  15.789  1.00  0.00    -0.271 OA
BRANCH  31  34
HETATM   34  C19 UNL     1      -9.241  19.300  14.432  1.00  0.00     0.332 C
BRANCH  34  35
HETATM   35  N7  UNL     1      -8.580  18.013  14.362  1.00  0.00    -0.071 N
ATOM     36  H73 UNL     1      -8.652  17.514  15.249  1.00  0.00     0.274 HD
ATOM     37  H72 UNL     1      -9.097  17.365  13.768  1.00  0.00     0.274 HD
ATOM     38  H71 UNL     1      -7.608  18.092  14.062  1.00  0.00     0.274 HD
ENDBRANCH  34  35
ENDBRANCH  31  34
ENDBRANCH  26  29
ENDBRANCH   3  22
TORSDOF 11
ENDMDL