MODEL 1
REMARK VINA RESULT: -7.314957407      0.000      0.000
REMARK  11 active torsions:
REMARK  status: ('A' for Active; 'I' for Inactive)
REMARK    1  A    between atoms: C2_2  and  N1_3
REMARK       I    between atoms: C3_5  and  N2_6
REMARK       I    between atoms: C3_5  and  N9_31
REMARK    2  A    between atoms: N2_6  and  C4_8
REMARK    3  A    between atoms: C4_8  and  C5_9
REMARK    4  A    between atoms: C5_9  and  C6_10
REMARK       I    between atoms: C6_10  and  N3_12
REMARK    5  A    between atoms: N4_15  and  C9_16
REMARK    6  A    between atoms: C9_16  and  O2_17
REMARK    7  A    between atoms: C9_16  and  C10_19
REMARK    8  A    between atoms: C10_19  and  C11_21
REMARK    9  A    between atoms: C11_21  and  C12_22
REMARK   10  A    between atoms: C12_22  and  C13_23
REMARK   11  A    between atoms: C13_23  and  N6_24
ROOT
HETATM    1  C6  UNL     1       2.536  20.029  16.669  1.00  0.00     0.221 C
HETATM    2  O1  UNL     1       1.933  20.555  15.681  1.00  0.00    -0.273 OA
HETATM    3  N3  UNL     1       1.781  19.684  17.816  1.00  0.00    -0.349 N
HETATM    4  C7  UNL     1       2.463  19.090  18.933  1.00  0.00     0.145 C
HETATM    5  C8  UNL     1       1.457  18.861  20.039  1.00  0.00     0.145 C
HETATM    6  N4  UNL     1       0.384  18.057  19.401  1.00  0.00    -0.358 N
HETATM    7  C15 UNL     1      -0.410  18.742  18.413  1.00  0.00     0.145 C
HETATM    8  C16 UNL     1       0.371  19.927  17.858  1.00  0.00     0.145 C
ENDROOT
BRANCH   1   9
HETATM    9  C5  UNL     1       4.004  19.795  16.581  1.00  0.00     0.123 C
BRANCH   9  10
HETATM   10  C4  UNL     1       4.301  19.119  15.288  1.00  0.00     0.147 C
BRANCH  10  11
HETATM   11  N2  UNL     1       4.899  19.953  14.296  1.00  0.00    -0.226 N
HETATM   12  C3  UNL     1       4.902  19.515  12.952  1.00  0.00     0.671 C
HETATM   13  N1  UNL     1       5.928  18.915  12.488  1.00  0.00    -0.227 N
HETATM   14  N9  UNL     1       3.786  19.727  12.113  1.00  0.00    -0.218 N
ATOM     15  H1  UNL     1       5.934  18.596  11.520  1.00  0.00     0.177 HD
HETATM   16  C17 UNL     1       3.829  20.369  10.824  1.00  0.00     0.141 C
HETATM   17  C20 UNL     1       2.408  19.341  12.388  1.00  0.00     0.141 C
HETATM   18  C18 UNL     1       2.788  19.541  10.058  1.00  0.00     0.022 C
HETATM   19  C19 UNL     1       1.672  19.472  11.077  1.00  0.00     0.022 C
ATOM     20  H2  UNL     1       5.316  20.847  14.551  1.00  0.00     0.177 HD
BRANCH  13  21
HETATM   21  C2  UNL     1       7.072  18.688  13.319  1.00  0.00     0.133 C
HETATM   22  C1  UNL     1       8.178  18.116  12.453  1.00  0.00     0.027 C
ENDBRANCH  13  21
ENDBRANCH  10  11
ENDBRANCH   9  10
ENDBRANCH   1   9
BRANCH   6  23
HETATM   23  C9  UNL     1       0.246  16.731  19.772  1.00  0.00     0.158 C
BRANCH  23  24
HETATM   24  O2  UNL     1       1.244  16.200  20.428  1.00  0.00    -0.345 OA
ATOM     25  H2  UNL     1       1.213  15.260  20.561  1.00  0.00     0.219 HD
ENDBRANCH  23  24
BRANCH  23  26
HETATM   26  C10 UNL     1      -0.854  15.802  19.543  1.00  0.00     0.074 C
HETATM   27  N5  UNL     1      -1.688  15.500  20.620  1.00  0.00    -0.103 NA
BRANCH  26  28
HETATM   28  C11 UNL     1      -0.585  14.727  18.543  1.00  0.00     0.060 C
BRANCH  28  29
HETATM   29  C12 UNL     1      -0.579  13.312  18.914  1.00  0.00     0.025 C
BRANCH  29  30
HETATM   30  C13 UNL     1      -1.659  12.460  18.351  1.00  0.00     0.122 C
BRANCH  30  31
HETATM   31  N6  UNL     1      -2.175  12.873  17.100  1.00  0.00    -0.367 N
HETATM   32  C14 UNL     1      -1.851  12.263  16.021  1.00  0.00     0.196 C
HETATM   33  N7  UNL     1      -2.349  12.649  14.742  1.00  0.00    -0.067 NA
HETATM   34  N8  UNL     1      -0.964  11.160  16.091  1.00  0.00    -0.067 NA
ATOM     35  H6  UNL     1      -2.813  13.668  17.057  1.00  0.00     0.161 HD
ENDBRANCH  30  31
ENDBRANCH  29  30
ENDBRANCH  28  29
ENDBRANCH  26  28
ENDBRANCH  23  26
ENDBRANCH   6  23
TORSDOF 11
ENDMDL