MODEL 3
REMARK VINA RESULT: -6.334413830      2.041      8.347
REMARK  11 active torsions:
REMARK  status: ('A' for Active; 'I' for Inactive)
REMARK    1  A    between atoms: N3_4  and  C2_6
REMARK    2  A    between atoms: C2_6  and  C3_7
REMARK    3  A    between atoms: C3_7  and  C4_8
REMARK    4  A    between atoms: C4_8  and  C5_9
REMARK    5  A    between atoms: C5_9  and  N4_10
REMARK       I    between atoms: N4_10  and  C6_12
REMARK    6  A    between atoms: C6_12  and  C7_14
REMARK    7  A    between atoms: N6_20  and  C10_21
REMARK    8  A    between atoms: C10_21  and  O2_22
REMARK    9  A    between atoms: C10_21  and  C11_24
REMARK   10  A    between atoms: C11_24  and  N7_25
REMARK   11  A    between atoms: C14_28  and  N8_29
ROOT
HETATM    1  C7  UNL     1       2.098  18.807  16.002  1.00  0.00     0.381 C
HETATM    2  N5  UNL     1       0.855  19.351  15.426  1.00  0.00    -0.044 N
ATOM      3  H51 UNL     1       0.041  18.761  15.599  1.00  0.00     0.280 HD
ATOM      4  H52 UNL     1       0.832  19.308  14.407  1.00  0.00     0.280 HD
HETATM    5  C8  UNL     1       0.705  20.680  15.936  1.00  0.00     0.255 C
HETATM    6  C9  UNL     1       2.006  20.980  16.631  1.00  0.00     0.155 C
HETATM    7  N6  UNL     1       2.288  19.603  17.189  1.00  0.00    -0.324 N
ENDROOT
BRANCH   7   8
HETATM    8  C10 UNL     1       2.591  19.305  18.484  1.00  0.00     0.156 C
BRANCH   8   9
HETATM    9  O2  UNL     1       3.671  19.937  18.934  1.00  0.00    -0.345 OA
ATOM     10  H2  UNL     1       3.585  20.244  19.830  1.00  0.00     0.219 HD
ENDBRANCH   8   9
BRANCH   8  11
HETATM   11  C11 UNL     1       2.013  18.456  19.502  1.00  0.00     0.149 C
BRANCH  11  12
HETATM   12  N7  UNL     1       0.684  17.997  19.437  1.00  0.00    -0.322 N
HETATM   13  C12 UNL     1      -0.507  18.617  18.832  1.00  0.00     0.134 C
HETATM   14  C13 UNL     1      -1.448  17.508  18.512  1.00  0.00     0.066 C
HETATM   15  C14 UNL     1      -0.986  16.277  19.248  1.00  0.00     0.316 C
HETATM   16  C20 UNL     1       0.223  16.725  19.959  1.00  0.00     0.257 C
HETATM   17  O3  UNL     1       0.836  16.143  20.902  1.00  0.00    -0.271 OA
BRANCH  15  18
HETATM   18  N8  UNL     1      -0.722  15.192  18.338  1.00  0.00     0.102 N
HETATM   19  C15 UNL     1      -1.539  15.296  17.167  1.00  0.00     0.273 C
HETATM   20  C16 UNL     1      -2.697  14.314  17.194  1.00  0.00     0.030 C
HETATM   21  C17 UNL     1      -2.145  12.902  17.184  1.00  0.00     0.003 C
HETATM   22  C18 UNL     1      -0.800  12.827  17.875  1.00  0.00     0.030 C
HETATM   23  C19 UNL     1      -0.831  13.909  18.963  1.00  0.00     0.273 C
ENDBRANCH  15  18
ENDBRANCH  11  12
ENDBRANCH   8  11
ENDBRANCH   7   8
BRANCH   1  24
HETATM   24  C6  UNL     1       3.203  19.161  15.052  1.00  0.00     0.268 C
HETATM   25  N4  UNL     1       4.514  19.309  15.530  1.00  0.00    -0.358 N
ATOM     26  H4  UNL     1       4.678  19.164  16.527  1.00  0.00     0.162 HD
HETATM   27  O1  UNL     1       2.941  19.320  13.851  1.00  0.00    -0.269 OA
BRANCH  25  28
HETATM   28  C5  UNL     1       5.643  19.652  14.707  1.00  0.00     0.122 C
BRANCH  28  29
HETATM   29  C4  UNL     1       6.473  18.423  14.444  1.00  0.00     0.021 C
BRANCH  29  30
HETATM   30  C3  UNL     1       7.070  18.457  13.043  1.00  0.00     0.021 C
BRANCH  30  31
HETATM   31  C2  UNL     1       6.116  19.225  12.124  1.00  0.00     0.122 C
BRANCH  31  32
HETATM   32  N3  UNL     1       6.482  18.911  10.763  1.00  0.00    -0.367 N
HETATM   33  C1  UNL     1       5.595  18.914   9.843  1.00  0.00     0.196 C
HETATM   34  N1  UNL     1       5.956  18.602   8.486  1.00  0.00    -0.067 NA
HETATM   35  N2  UNL     1       4.252  19.227  10.147  1.00  0.00    -0.067 NA
ATOM     36  H3  UNL     1       7.450  18.686  10.535  1.00  0.00     0.161 HD
ENDBRANCH  31  32
ENDBRANCH  30  31
ENDBRANCH  29  30
ENDBRANCH  28  29
ENDBRANCH  25  28
ENDBRANCH   1  24
TORSDOF 11
ENDMDL