MODEL 4
REMARK VINA RESULT: -5.731357244      2.767      4.576
REMARK  12 active torsions:
REMARK  status: ('A' for Active; 'I' for Inactive)
REMARK    1  A    between atoms: C3_3  and  C4_4
REMARK    2  A    between atoms: C4_4  and  N1_5
REMARK    3  A    between atoms: N1_5  and  C5_6
REMARK    4  A    between atoms: C5_6  and  C6_7
REMARK    5  A    between atoms: C6_7  and  N2_8
REMARK       I    between atoms: N2_8  and  C7_10
REMARK    6  A    between atoms: C7_10  and  C8_12
REMARK    7  A    between atoms: C12_16  and  C14_18
REMARK       I    between atoms: C14_18  and  N3_20
REMARK    8  A    between atoms: N3_20  and  C15_22
REMARK    9  A    between atoms: C15_22  and  C16_23
REMARK   10  A    between atoms: C16_23  and  N4_24
REMARK   11  A    between atoms: C20_29  and  N5_30
REMARK   12  A    between atoms: C22_35  and  O4_36
ROOT
HETATM    1  C1  UNL     1      -1.408  17.225  22.806  1.00  0.00     0.112 C
HETATM    2  C2  UNL     1      -1.737  16.645  21.517  1.00  0.00    -0.109 C
HETATM    3  C3  UNL     1      -2.019  16.156  20.455  1.00  0.00    -0.079 C
ENDROOT
BRANCH   3   4
HETATM    4  C4  UNL     1      -2.331  15.563  19.189  1.00  0.00     0.336 C
BRANCH   4   5
HETATM    5  N1  UNL     1      -1.198  14.964  18.538  1.00  0.00    -0.001 N
HETATM    6  C20 UNL     1      -1.547  14.463  17.213  1.00  0.00     0.393 C
HETATM    7  C21 UNL     1      -1.378  13.037  17.623  1.00  0.00     0.124 C
HETATM    8  C22 UNL     1      -0.852  13.636  18.911  1.00  0.00     0.330 C
BRANCH   5   9
HETATM    9  C5  UNL     1      -0.156  15.944  18.421  1.00  0.00     0.263 C
BRANCH   9  10
HETATM   10  C6  UNL     1      -0.455  17.077  17.494  1.00  0.00     0.151 C
BRANCH  10  11
HETATM   11  N2  UNL     1       0.758  17.541  16.855  1.00  0.00    -0.357 N
HETATM   12  C7  UNL     1       1.482  18.677  17.295  1.00  0.00     0.246 C
HETATM   13  O1  UNL     1       1.015  19.291  18.300  1.00  0.00    -0.271 OA
ATOM     14  H2  UNL     1       1.109  17.024  16.049  1.00  0.00     0.162 HD
BRANCH  12  15
HETATM   15  C8  UNL     1       2.721  19.150  16.645  1.00  0.00     0.215 C
HETATM   16  C9  UNL     1       3.438  20.213  17.439  1.00  0.00     0.042 C
HETATM   17  C10 UNL     1       3.649  21.479  16.674  1.00  0.00     0.006 C
HETATM   18  C11 UNL     1       4.007  21.294  15.240  1.00  0.00     0.048 C
HETATM   19  C12 UNL     1       3.549  19.996  14.665  1.00  0.00     0.138 C
HETATM   20  C13 UNL     1       4.649  18.968  14.586  1.00  0.00     0.056 C
HETATM   21  O3  UNL     1       2.440  19.551  15.349  1.00  0.00    -0.356 OA
BRANCH  19  22
HETATM   22  C14 UNL     1       3.111  20.269  13.250  1.00  0.00     0.252 C
HETATM   23  O2  UNL     1       3.508  21.380  12.800  1.00  0.00    -0.270 OA
HETATM   24  N3  UNL     1       2.338  19.369  12.515  1.00  0.00    -0.357 N
ATOM     25  H3  UNL     1       2.056  18.487  12.942  1.00  0.00     0.162 HD
BRANCH  24  26
HETATM   26  C15 UNL     1       1.934  19.661  11.166  1.00  0.00     0.150 C
BRANCH  26  27
HETATM   27  C16 UNL     1       2.781  18.978  10.130  1.00  0.00     0.255 C
BRANCH  27  28
HETATM   28  N4  UNL     1       3.468  19.969   9.302  1.00  0.00    -0.077 N
HETATM   29  C17 UNL     1       3.510  19.531   7.928  1.00  0.00     0.271 C
HETATM   30  C18 UNL     1       2.753  21.244   9.315  1.00  0.00     0.271 C
HETATM   31  C19 UNL     1       4.808  20.186   9.773  1.00  0.00     0.271 C
ENDBRANCH  27  28
ENDBRANCH  26  27
ENDBRANCH  24  26
ENDBRANCH  19  22
ENDBRANCH  12  15
ENDBRANCH  10  11
ENDBRANCH   9  10
ENDBRANCH   5   9
BRANCH   6  32
HETATM   32  N5  UNL     1      -2.868  14.845  16.752  1.00  0.00    -0.050 N
ATOM     33  H53 UNL     1      -3.585  14.328  17.262  1.00  0.00     0.276 HD
ATOM     34  H52 UNL     1      -3.089  15.794  17.052  1.00  0.00     0.276 HD
ATOM     35  H51 UNL     1      -3.011  14.749  15.746  1.00  0.00     0.276 HD
ENDBRANCH   6  32
BRANCH   8  36
HETATM   36  O4  UNL     1      -1.459  13.138  20.061  1.00  0.00    -0.369 OA
ATOM     37  H4  UNL     1      -1.590  13.757  20.770  1.00  0.00     0.212 HD
ENDBRANCH   8  36
ENDBRANCH   4   5
ENDBRANCH   3   4
TORSDOF 12
ENDMDL