MODEL 5
REMARK VINA RESULT: -6.350684749      3.412      6.621
REMARK  11 active torsions:
REMARK  status: ('A' for Active; 'I' for Inactive)
REMARK    1  A    between atoms: C5_6  and  S1_7
REMARK    2  A    between atoms: S1_7  and  C6_8
REMARK    3  A    between atoms: C6_8  and  C7_10
REMARK    4  A    between atoms: C7_10  and  N2_11
REMARK    5  A    between atoms: N2_11  and  C8_12
REMARK    6  A    between atoms: C8_12  and  C9_13
REMARK    7  A    between atoms: C9_13  and  O2_14
REMARK    8  A    between atoms: C13_22  and  C14_23
REMARK    9  A    between atoms: C14_23  and  C15_24
REMARK   10  A    between atoms: C15_24  and  C16_25
REMARK   11  A    between atoms: C16_25  and  N4_26
ROOT
HETATM    1  N2  UNL     1      -1.538  17.098  18.600  1.00  0.00     0.001 N
HETATM    2  C10 UNL     1      -0.846  17.908  19.653  1.00  0.00     0.260 C
HETATM    3  C11 UNL     1      -1.541  17.813  20.978  1.00  0.00     0.132 C
HETATM    4  C12 UNL     1      -1.701  16.355  21.341  1.00  0.00     0.224 C
HETATM    5  O3  UNL     1      -2.085  15.981  22.467  1.00  0.00    -0.273 OA
HETATM    6  N3  UNL     1      -1.369  15.475  20.271  1.00  0.00    -0.310 N
ATOM      7  H3  UNL     1      -1.176  14.505  20.522  1.00  0.00     0.170 HD
HETATM    8  C13 UNL     1      -1.287  15.774  19.028  1.00  0.00     0.192 C
ENDROOT
BRANCH   1   9
HETATM    9  C7  UNL     1      -0.831  17.482  17.413  1.00  0.00     0.272 C
BRANCH   9  10
HETATM   10  C6  UNL     1      -0.999  18.817  16.883  1.00  0.00     0.233 C
HETATM   11  O1  UNL     1      -1.985  19.346  16.406  1.00  0.00    -0.279 OA
BRANCH  10  12
HETATM   12  S1  UNL     1       0.458  19.908  16.908  1.00  0.00    -0.082 SA
BRANCH  12  13
HETATM   13  C5  UNL     1       1.774  19.268  15.874  1.00  0.00     0.059 C
HETATM   14  C4  UNL     1       1.931  20.005  14.563  1.00  0.00     0.043 C
HETATM   15  C3  UNL     1       3.208  19.509  13.920  1.00  0.00     0.237 C
HETATM   16  N1  UNL     1       4.352  19.903  14.710  1.00  0.00    -0.075 N
HETATM   17  C1  UNL     1       5.427  18.909  14.613  1.00  0.00     0.272 C
HETATM   18  C2  UNL     1       4.874  21.131  14.146  1.00  0.00     0.272 C
HETATM   19  C19 UNL     1       4.033  20.139  16.094  1.00  0.00     0.237 C
HETATM   20  C18 UNL     1       3.067  19.095  16.607  1.00  0.00     0.043 C
ENDBRANCH  12  13
ENDBRANCH  10  12
ENDBRANCH   9  10
ENDBRANCH   1   9
BRANCH   1  21
HETATM   21  C8  UNL     1      -2.927  17.440  18.564  1.00  0.00     0.277 C
BRANCH  21  22
HETATM   22  C9  UNL     1      -3.778  16.523  17.755  1.00  0.00     0.193 C
BRANCH  22  23
HETATM   23  O2  UNL     1      -4.028  17.055  16.463  1.00  0.00    -0.399 OA
ATOM     24  H2  UNL     1      -3.669  16.496  15.783  1.00  0.00     0.209 HD
ENDBRANCH  22  23
ENDBRANCH  21  22
ENDBRANCH   1  21
BRANCH   8  25
HETATM   25  C14 UNL     1      -0.928  14.689  18.086  1.00  0.00     0.086 C
BRANCH  25  26
HETATM   26  C15 UNL     1      -0.674  13.386  18.866  1.00  0.00     0.027 C
BRANCH  26  27
HETATM   27  C16 UNL     1      -1.720  12.396  18.339  1.00  0.00     0.122 C
BRANCH  27  28
HETATM   28  N4  UNL     1      -2.228  12.810  17.046  1.00  0.00    -0.367 N
HETATM   29  C17 UNL     1      -1.840  12.194  16.003  1.00  0.00     0.196 C
HETATM   30  N5  UNL     1      -0.927  11.119  16.060  1.00  0.00    -0.067 NA
HETATM   31  N6  UNL     1      -2.337  12.598  14.744  1.00  0.00    -0.067 NA
ATOM     32  H4  UNL     1      -2.888  13.584  16.975  1.00  0.00     0.161 HD
ENDBRANCH  27  28
ENDBRANCH  26  27
ENDBRANCH  25  26
ENDBRANCH   8  25
TORSDOF 11
ENDMDL