MODEL 2
REMARK VINA RESULT: -6.888115296      2.575      6.322
REMARK  8 active torsions:
REMARK  status: ('A' for Active; 'I' for Inactive)
REMARK    1  A    between atoms: C3_3  and  C4_4
REMARK    2  A    between atoms: C5_5  and  C6_6
REMARK    3  A    between atoms: C8_11  and  C9_12
REMARK    4  A    between atoms: C9_12  and  C10_13
REMARK    5  A    between atoms: C10_13  and  C11_14
REMARK    6  A    between atoms: C11_14  and  N2_15
REMARK    7  A    between atoms: N6_26  and  C17_27
REMARK    8  A    between atoms: C17_27  and  C18_28
ROOT
HETATM    1  C1  UNL     1      -8.760  18.624  19.367  1.00  0.00     0.012 C
HETATM    2  C2  UNL     1      -7.748  18.328  18.785  1.00  0.00    -0.114 C
HETATM    3  C3  UNL     1      -6.513  17.987  18.051  1.00  0.00     0.120 C
ENDROOT
BRANCH   3   4
HETATM    4  C4  UNL     1      -5.616  19.131  17.799  1.00  0.00    -0.014 C
HETATM    5  C5  UNL     1      -4.180  19.093  17.854  1.00  0.00     0.016 C
BRANCH   5   6
HETATM    6  C6  UNL     1      -3.397  18.778  19.100  1.00  0.00     0.064 C
HETATM    7  C7  UNL     1      -3.040  19.989  19.788  1.00  0.00     0.254 C
HETATM    8  O1  UNL     1      -4.040  20.595  20.315  1.00  0.00    -0.268 OA
HETATM    9  N1  UNL     1      -1.846  20.682  20.031  1.00  0.00    -0.344 N
HETATM   10  C8  UNL     1      -0.539  20.189  20.120  1.00  0.00     0.177 C
ATOM     11  H1  UNL     1      -1.944  21.688  20.162  1.00  0.00     0.163 HD
HETATM   12  C13 UNL     1      -0.216  19.137  19.122  1.00  0.00     0.247 C
HETATM   13  O2  UNL     1       0.840  19.297  18.505  1.00  0.00    -0.271 OA
HETATM   14  N5  UNL     1      -1.017  18.030  18.866  1.00  0.00    -0.310 N
HETATM   15  C14 UNL     1      -0.020  17.086  18.319  1.00  0.00     0.134 C
HETATM   16  C20 UNL     1      -2.408  17.693  19.028  1.00  0.00     0.121 C
HETATM   17  C15 UNL     1       0.147  15.899  19.247  1.00  0.00     0.040 C
HETATM   18  C16 UNL     1      -0.837  14.788  18.982  1.00  0.00     0.128 C
HETATM   19  N6  UNL     1      -2.042  15.222  18.301  1.00  0.00    -0.337 N
HETATM   20  C19 UNL     1      -2.644  16.535  18.165  1.00  0.00     0.272 C
HETATM   21  O5  UNL     1      -3.400  16.519  17.182  1.00  0.00    -0.266 OA
BRANCH  10  22
HETATM   22  C9  UNL     1      -0.178  19.766  21.506  1.00  0.00     0.036 C
BRANCH  22  23
HETATM   23  C10 UNL     1      -0.988  20.211  22.643  1.00  0.00     0.022 C
BRANCH  23  24
HETATM   24  C11 UNL     1      -1.523  19.226  23.612  1.00  0.00     0.122 C
BRANCH  24  25
HETATM   25  N2  UNL     1      -2.042  18.037  22.937  1.00  0.00    -0.367 N
HETATM   26  C12 UNL     1      -1.453  16.890  22.971  1.00  0.00     0.196 C
HETATM   27  N3  UNL     1      -0.233  16.681  23.677  1.00  0.00    -0.067 NA
HETATM   28  N4  UNL     1      -1.991  15.761  22.301  1.00  0.00    -0.067 NA
ATOM     29  H2  UNL     1      -2.913  18.119  22.414  1.00  0.00     0.161 HD
ENDBRANCH  24  25
ENDBRANCH  23  24
ENDBRANCH  22  23
ENDBRANCH  10  22
BRANCH  19  30
HETATM   30  C17 UNL     1      -2.777  14.180  17.631  1.00  0.00     0.239 C
BRANCH  30  31
HETATM   31  C18 UNL     1      -2.000  12.999  17.298  1.00  0.00     0.191 C
HETATM   32  O3  UNL     1      -1.318  12.925  16.257  1.00  0.00    -0.647 OA
HETATM   33  O4  UNL     1      -2.001  11.911  18.142  1.00  0.00    -0.647 OA
ENDBRANCH  30  31
ENDBRANCH  19  30
ENDBRANCH   5   6
ENDBRANCH   3   4
TORSDOF 8
ENDMDL