MODEL 3
REMARK VINA RESULT: -3.703316238      1.090      2.986
REMARK  1 active torsions:
REMARK  status: ('A' for Active; 'I' for Inactive)
REMARK    1  A    between atoms: C2_2  and  N1_3
ROOT
HETATM    1  N1  UNL     1      52.991  68.797 -30.425  1.00  0.00    -0.032 N
HETATM    2  C3  UNL     1      54.024  68.967 -29.447  1.00  0.00     0.267 C
HETATM    3  C4  UNL     1      53.370  69.727 -28.327  1.00  0.00     0.262 C
HETATM    4  N2  UNL     1      52.225  70.403 -28.927  1.00  0.00    -0.042 N
ATOM      5  H21 UNL     1      52.349  71.414 -28.992  1.00  0.00     0.279 HD
ATOM      6  H22 UNL     1      51.403  70.408 -28.322  1.00  0.00     0.279 HD
HETATM    7  C5  UNL     1      51.980  69.789 -30.193  1.00  0.00     0.413 A
HETATM    8  C6  UNL     1      52.851  69.882 -31.345  1.00  0.00     0.303 A
ENDROOT
BRANCH   1   9
HETATM    9  C2  UNL     1      52.508  67.504 -30.796  1.00  0.00     0.236 C
HETATM   10  C1  UNL     1      53.048  66.389 -29.961  1.00  0.00     0.035 C
ENDBRANCH   1   9
TORSDOF 1
ENDMDL