MODEL 1
REMARK VINA RESULT: -3.805971316      0.000      0.000
REMARK  2 active torsions:
REMARK  status: ('A' for Active; 'I' for Inactive)
REMARK    1  A    between atoms: C2_2  and  N1_3
REMARK    2  A    between atoms: N1_3  and  C5_6
ROOT
HETATM    1  C5  UNL     1      52.572  67.882 -29.397  1.00  0.00     0.240 A
HETATM    2  C6  UNL     1      53.571  66.911 -28.833  1.00  0.00     0.267 A
HETATM    3  N2  UNL     1      53.387  65.980 -29.926  1.00  0.00    -0.071 N
ATOM      4  H21 UNL     1      53.210  64.991 -29.746  1.00  0.00     0.277 HD
ATOM      5  H22 UNL     1      54.172  65.714 -30.522  1.00  0.00     0.277 HD
HETATM    6  C7  UNL     1      52.340  66.837 -30.424  1.00  0.00     0.267 A
ENDROOT
BRANCH   1   7
HETATM    7  N1  UNL     1      53.061  69.150 -29.816  1.00  0.00    -0.068 N
HETATM    8  C3  UNL     1      53.127  69.346 -31.229  1.00  0.00     0.272 C
HETATM    9  C4  UNL     1      54.381  69.465 -29.259  1.00  0.00     0.272 C
BRANCH   7  10
HETATM   10  C2  UNL     1      52.164  70.183 -29.282  1.00  0.00     0.232 C
HETATM   11  C1  UNL     1      51.194  70.685 -30.287  1.00  0.00     0.035 C
ENDBRANCH   7  10
ENDBRANCH   1   7
TORSDOF 2
ENDMDL