MODEL 1
REMARK VINA RESULT: -4.447140740      0.000      0.000
REMARK  3 active torsions:
REMARK  status: ('A' for Active; 'I' for Inactive)
REMARK    1  A    between atoms: C3_3  and  C4_4
REMARK    2  A    between atoms: C5_5  and  C6_6
REMARK    3  A    between atoms: C6_6  and  C7_7
ROOT
HETATM    1  C1  UNL     1      51.151  71.397 -28.599  1.00  0.00     0.013 C
HETATM    2  C2  UNL     1      51.323  70.852 -29.659  1.00  0.00    -0.105 C
HETATM    3  C3  UNL     1      51.537  70.157 -30.952  1.00  0.00     0.186 C
ENDROOT
BRANCH   3   4
HETATM    4  C4  UNL     1      52.131  68.834 -30.669  1.00  0.00    -0.095 C
HETATM    5  C5  UNL     1      52.628  67.764 -30.424  1.00  0.00    -0.104 C
BRANCH   5   6
HETATM    6  C6  UNL     1      53.249  66.461 -30.102  1.00  0.00     0.128 C
BRANCH   6   7
HETATM    7  C7  UNL     1      52.813  66.105 -28.705  1.00  0.00     0.222 A
HETATM    8  C8  UNL     1      53.848  66.349 -27.628  1.00  0.00     0.266 A
HETATM    9  N1  UNL     1      53.455  65.017 -28.008  1.00  0.00    -0.067 N
ATOM     10  H12 UNL     1      53.097  64.219 -27.483  1.00  0.00     0.277 HD
ATOM     11  H11 UNL     1      53.977  64.198 -28.323  1.00  0.00     0.277 HD
ENDBRANCH   6   7
ENDBRANCH   5   6
ENDBRANCH   3   4
TORSDOF 3
ENDMDL