MODEL 1
REMARK VINA RESULT: -3.727690314      0.000      0.000
REMARK  1 active torsions:
REMARK  status: ('A' for Active; 'I' for Inactive)
REMARK    1  A    between atoms: C2_2  and  N1_3
ROOT
HETATM    1  N1  UNL     1      53.387  68.100 -29.046  1.00  0.00     0.012 N
HETATM    2  C3  UNL     1      52.893  67.664 -30.332  1.00  0.00     0.262 C
HETATM    3  C4  UNL     1      52.518  69.043 -30.916  1.00  0.00     0.054 C
HETATM    4  C5  UNL     1      53.048  69.870 -29.768  1.00  0.00     0.136 C
HETATM    5  C6  UNL     1      54.339  69.150 -29.449  1.00  0.00     0.283 C
HETATM    6  N2  UNL     1      52.559  69.154 -28.626  1.00  0.00    -0.040 NA
ENDROOT
BRANCH   1   7
HETATM    7  C2  UNL     1      53.816  67.161 -28.114  1.00  0.00     0.256 C
HETATM    8  C1  UNL     1      53.183  65.798 -28.207  1.00  0.00     0.036 C
ENDBRANCH   1   7
TORSDOF 1
ENDMDL