MODEL 4
REMARK VINA RESULT: -4.110709304      1.684      3.160
REMARK  1 active torsions:
REMARK  status: ('A' for Active; 'I' for Inactive)
REMARK    1  A    between atoms: C3_3  and  N1_4
ROOT
HETATM    1  C1  UNL     1      54.887  71.317 -27.875  1.00  0.00     0.013 C
HETATM    2  C2  UNL     1      53.867  70.781 -28.258  1.00  0.00    -0.089 C
HETATM    3  C3  UNL     1      52.635  70.124 -28.698  1.00  0.00     0.332 C
ENDROOT
BRANCH   3   4
HETATM    4  N1  UNL     1      52.869  68.961 -29.485  1.00  0.00    -0.021 N
HETATM    5  C4  UNL     1      53.396  67.772 -28.845  1.00  0.00     0.268 C
HETATM    6  C5  UNL     1      53.230  66.685 -29.897  1.00  0.00     0.262 C
HETATM    7  N2  UNL     1      52.055  67.092 -30.604  1.00  0.00    -0.042 N
HETATM    8  C6  UNL     1      52.025  68.558 -30.552  1.00  0.00     0.414 A
ATOM      9  H22 UNL     1      52.005  66.720 -31.553  1.00  0.00     0.279 HD
ATOM     10  H21 UNL     1      51.201  66.657 -30.253  1.00  0.00     0.279 HD
HETATM   11  C7  UNL     1      53.311  69.210 -30.844  1.00  0.00     0.304 A
ENDBRANCH   3   4
TORSDOF 1
ENDMDL