MODEL 5
REMARK VINA RESULT: -4.572782178      1.836      4.594
REMARK  2 active torsions:
REMARK  status: ('A' for Active; 'I' for Inactive)
REMARK    1  A    between atoms: C5_5  and  C6_6
REMARK    2  A    between atoms: C6_6  and  N1_7
ROOT
HETATM    1  C1  UNL     1      53.259  65.555 -27.483  1.00  0.00     0.014 C
HETATM    2  C2  UNL     1      53.391  66.404 -28.343  1.00  0.00    -0.084 C
HETATM    3  C3  UNL     1      53.558  67.421 -29.392  1.00  0.00     0.265 C
HETATM    4  C4  UNL     1      53.329  68.837 -28.927  1.00  0.00     0.081 C
HETATM    5  C5  UNL     1      52.407  68.913 -30.099  1.00  0.00     0.209 C
HETATM    6  N3  UNL     1      52.400  67.470 -30.245  1.00  0.00    -0.054 N
ATOM      7  H31 UNL     1      51.565  66.927 -30.023  1.00  0.00     0.279 HD
ATOM      8  H32 UNL     1      52.415  67.040 -31.170  1.00  0.00     0.279 HD
ENDROOT
BRANCH   5   9
HETATM    9  C6  UNL     1      53.008  69.549 -31.340  1.00  0.00     0.172 C
BRANCH   9  10
HETATM   10  N1  UNL     1      52.020  70.349 -31.966  1.00  0.00    -0.341 N
HETATM   11  N2  UNL     1      50.817  70.375 -31.646  1.00  0.00    -0.349 N
ATOM     12  H22 UNL     1      50.538  69.769 -30.874  1.00  0.00     0.176 HD
ATOM     13  H21 UNL     1      50.106  70.951 -32.097  1.00  0.00     0.176 HD
ATOM     14  H1  UNL     1      52.316  70.949 -32.737  1.00  0.00     0.179 HD
ENDBRANCH   9  10
ENDBRANCH   5   9
TORSDOF 2
ENDMDL