MODEL 5
REMARK VINA RESULT: -3.119761803      1.517      1.885
REMARK  0 active torsions:
REMARK  status: ('A' for Active; 'I' for Inactive)
ROOT
HETATM    1  C1  UNL     1      52.357  68.076 -30.789  1.00  0.00     0.030 C
HETATM    2  C2  UNL     1      52.363  69.561 -30.844  1.00  0.00     0.104 C
HETATM    3  C3  UNL     1      52.004  70.202 -29.496  1.00  0.00     0.052 C
HETATM    4  C4  UNL     1      51.725  71.624 -30.003  1.00  0.00     0.261 C
HETATM    5  N1  UNL     1      51.127  71.430 -31.303  1.00  0.00     0.003 N
HETATM    6  C5  UNL     1      51.778  72.297 -32.272  1.00  0.00     0.296 C
HETATM    7  C6  UNL     1      49.701  71.711 -31.202  1.00  0.00     0.296 C
HETATM    8  N2  UNL     1      51.264  70.102 -31.648  1.00  0.00    -0.043 NA
ENDROOT
TORSDOF 0
ENDMDL