MODEL 5
REMARK VINA RESULT: -3.636044753      1.129      3.662
REMARK  1 active torsions:
REMARK  status: ('A' for Active; 'I' for Inactive)
REMARK    1  A    between atoms: C2_2  and  N1_3
ROOT
HETATM    1  N1  UNL     1      52.912  68.653 -30.046  1.00  0.00    -0.055 N
HETATM    2  C3  UNL     1      53.909  68.164 -29.077  1.00  0.00     0.273 C
HETATM    3  C4  UNL     1      52.217  69.754 -29.666  1.00  0.00     0.248 A
HETATM    4  C5  UNL     1      52.571  71.143 -29.325  1.00  0.00     0.268 C
HETATM    5  N2  UNL     1      52.432  71.792 -30.645  1.00  0.00    -0.071 N
ATOM      6  H21 UNL     1      53.133  72.511 -30.825  1.00  0.00     0.277 HD
ATOM      7  H22 UNL     1      51.616  72.398 -30.720  1.00  0.00     0.277 HD
HETATM    8  C6  UNL     1      52.446  70.689 -31.631  1.00  0.00     0.268 C
HETATM    9  C7  UNL     1      53.218  69.688 -30.863  1.00  0.00     0.248 A
ENDROOT
BRANCH   1  10
HETATM   10  C2  UNL     1      52.211  67.521 -30.650  1.00  0.00     0.234 C
HETATM   11  C1  UNL     1      52.449  66.238 -29.921  1.00  0.00     0.035 C
ENDBRANCH   1  10
TORSDOF 1
ENDMDL