MODEL 3
REMARK VINA RESULT: -3.020400556      1.722      2.236
REMARK  0 active torsions:
REMARK  status: ('A' for Active; 'I' for Inactive)
ROOT
HETATM    1  C1  UNL     1      54.290  69.171 -29.442  1.00  0.00     0.081 C
HETATM    2  S1  UNL     1      53.033  67.968 -29.089  1.00  0.00    -0.173 SA
HETATM    3  C2  UNL     1      53.533  66.518 -28.208  1.00  0.00     0.298 C
HETATM    4  N1  UNL     1      52.648  65.730 -29.082  1.00  0.00    -0.060 N
ATOM      5  H11 UNL     1      51.648  65.656 -28.894  1.00  0.00     0.278 HD
ATOM      6  H12 UNL     1      52.693  64.711 -29.101  1.00  0.00     0.278 HD
HETATM    7  C3  UNL     1      53.145  66.521 -30.181  1.00  0.00     0.298 C
ENDROOT
TORSDOF 0
ENDMDL