MODEL 2
REMARK VINA RESULT: -4.686068064      1.030      1.591
REMARK  2 active torsions:
REMARK  status: ('A' for Active; 'I' for Inactive)
REMARK    1  A    between atoms: C5_5  and  C6_6
REMARK    2  A    between atoms: N1_7  and  N2_9
ROOT
HETATM    1  C1  UNL     1      52.970  70.189 -31.758  1.00  0.00     0.046 C
HETATM    2  C2  UNL     1      52.760  69.794 -30.316  1.00  0.00     0.121 C
HETATM    3  C3  UNL     1      52.154  70.940 -29.537  1.00  0.00     0.046 C
HETATM    4  C4  UNL     1      53.984  69.170 -29.678  1.00  0.00     0.076 C
HETATM    5  C5  UNL     1      52.993  68.256 -29.037  1.00  0.00     0.228 C
HETATM    6  N3  UNL     1      52.090  68.518 -30.142  1.00  0.00    -0.058 N
ATOM      7  H31 UNL     1      52.006  67.860 -30.916  1.00  0.00     0.278 HD
ATOM      8  H32 UNL     1      51.079  68.469 -30.015  1.00  0.00     0.278 HD
ENDROOT
BRANCH   5   9
HETATM    9  C6  UNL     1      53.413  66.838 -28.923  1.00  0.00     0.112 C
HETATM   10  N1  UNL     1      53.042  66.056 -27.994  1.00  0.00    -0.320 N
ATOM     11  H1  UNL     1      52.416  66.401 -27.267  1.00  0.00     0.185 HD
BRANCH  10  12
HETATM   12  N2  UNL     1      53.480  64.734 -27.955  1.00  0.00    -0.346 N
ATOM     13  H22 UNL     1      54.320  64.482 -28.477  1.00  0.00     0.176 HD
ATOM     14  H21 UNL     1      52.974  64.031 -27.417  1.00  0.00     0.176 HD
ENDBRANCH  10  12
ENDBRANCH   5   9
TORSDOF 2
ENDMDL