MODEL 5
REMARK VINA RESULT: -7.020742453      2.201      2.903
REMARK  9 active torsions:
REMARK  status: ('A' for Active; 'I' for Inactive)
REMARK    1  A    between atoms: C2_2  and  C3_3
REMARK    2  A    between atoms: C3_3  and  C4_4
REMARK    3  A    between atoms: C4_4  and  C5_5
REMARK    4  A    between atoms: C5_5  and  C6_6
REMARK    5  A    between atoms: C6_6  and  C7_7
REMARK    6  A    between atoms: N2_14  and  S1_15
REMARK    7  A    between atoms: S1_15  and  N3_18
REMARK    8  A    between atoms: C13_24  and  C14_25
REMARK       I    between atoms: C14_25  and  N5_27
REMARK    9  A    between atoms: N5_27  and  C15_29
ROOT
HETATM    1  N3  UNL     1      -1.644  19.141  18.374  1.00  0.00    -0.194 N
HETATM    2  C11 UNL     1      -2.680  19.394  17.387  1.00  0.00     0.334 C
HETATM    3  O4  UNL     1      -2.463  19.533  16.153  1.00  0.00    -0.246 OA
HETATM    4  N4  UNL     1      -3.914  19.444  18.086  1.00  0.00    -0.340 N
ATOM      5  H4  UNL     1      -4.819  19.693  17.688  1.00  0.00     0.164 HD
HETATM    6  C12 UNL     1      -3.661  19.078  19.464  1.00  0.00     0.160 C
HETATM    7  C13 UNL     1      -2.347  18.344  19.359  1.00  0.00     0.217 C
ENDROOT
BRANCH   1   8
HETATM    8  S1  UNL     1      -0.008  19.681  18.293  1.00  0.00     0.332 S
HETATM    9  O2  UNL     1      -0.014  20.770  17.204  1.00  0.00    -0.182 OA
HETATM   10  O3  UNL     1       0.771  18.486  17.740  1.00  0.00    -0.182 OA
BRANCH   8  11
HETATM   11  N2  UNL     1       0.602  20.274  19.698  1.00  0.00    -0.256 N
HETATM   12  C7  UNL     1       1.267  19.506  20.673  1.00  0.00     0.091 C
HETATM   13  C8  UNL     1       0.349  19.024  21.729  1.00  0.00     0.264 C
HETATM   14  O1  UNL     1       0.338  17.879  22.226  1.00  0.00    -0.266 OA
HETATM   15  N1  UNL     1      -0.649  19.950  22.244  1.00  0.00    -0.354 N
HETATM   16  C9  UNL     1      -1.194  20.901  21.300  1.00  0.00     0.144 C
ATOM     17  H1  UNL     1      -0.949  19.929  23.219  1.00  0.00     0.162 HD
HETATM   18  C10 UNL     1      -0.096  21.339  20.366  1.00  0.00     0.163 C
BRANCH  12  19
HETATM   19  C6  UNL     1       2.449  18.725  20.368  1.00  0.00     0.064 C
BRANCH  19  20
HETATM   20  C5  UNL     1       3.812  19.215  20.707  1.00  0.00     0.006 C
BRANCH  20  21
HETATM   21  C4  UNL     1       4.033  20.379  21.560  1.00  0.00     0.000 C
BRANCH  21  22
HETATM   22  C3  UNL     1       4.901  21.402  20.790  1.00  0.00    -0.000 C
BRANCH  22  23
HETATM   23  C2  UNL     1       4.304  21.766  19.461  1.00  0.00    -0.005 C
HETATM   24  C1  UNL     1       5.391  21.998  18.414  1.00  0.00     0.005 C
ENDBRANCH  22  23
ENDBRANCH  21  22
ENDBRANCH  20  21
ENDBRANCH  19  20
ENDBRANCH  12  19
ENDBRANCH   8  11
ENDBRANCH   1   8
BRANCH   7  25
HETATM   25  C14 UNL     1      -2.661  16.963  18.846  1.00  0.00     0.243 C
HETATM   26  O5  UNL     1      -3.857  16.675  18.605  1.00  0.00    -0.271 OA
HETATM   27  N5  UNL     1      -1.662  15.999  18.630  1.00  0.00    -0.353 N
ATOM     28  H5  UNL     1      -0.702  16.270  18.845  1.00  0.00     0.163 HD
BRANCH  27  29
HETATM   29  C15 UNL     1      -1.870  14.676  18.137  1.00  0.00     0.111 C
HETATM   30  C16 UNL     1      -2.228  14.696  16.683  1.00  0.00     0.054 C
HETATM   31  C17 UNL     1      -1.383  13.640  16.032  1.00  0.00     0.234 C
HETATM   32  N6  UNL     1      -0.605  12.997  17.046  1.00  0.00    -0.073 N
HETATM   33  C18 UNL     1      -0.609  13.841  18.213  1.00  0.00     0.257 C
ATOM     34  H62 UNL     1      -0.922  12.048  17.244  1.00  0.00     0.277 HD
ATOM     35  H61 UNL     1       0.337  12.763  16.731  1.00  0.00     0.277 HD
ENDBRANCH  27  29
ENDBRANCH   7  25
TORSDOF 9
ENDMDL