MODEL 5
REMARK VINA RESULT: -6.026234885      1.011      1.328
REMARK  10 active torsions:
REMARK  status: ('A' for Active; 'I' for Inactive)
REMARK    1  A    between atoms: C2_2  and  C3_3
REMARK    2  A    between atoms: C3_3  and  C4_4
REMARK    3  A    between atoms: C4_4  and  N1_5
REMARK    4  A    between atoms: N1_5  and  C7_8
REMARK    5  A    between atoms: C7_8  and  C8_9
REMARK    6  A    between atoms: C8_9  and  C9_10
REMARK    7  A    between atoms: C9_10  and  S1_11
REMARK    8  A    between atoms: C14_17  and  C15_18
REMARK       I    between atoms: C15_18  and  N2_20
REMARK       I    between atoms: N2_20  and  C16_22
REMARK    9  A    between atoms: C18_27  and  O4_28
REMARK   10  A    between atoms: C19_30  and  O5_31
ROOT
HETATM    1  S1  UNL     1      -0.015  21.436  18.698  1.00  0.00    -0.187 SA
HETATM    2  C10 UNL     1       0.404  19.803  19.239  1.00  0.00     0.104 C
HETATM    3  C11 UNL     1      -0.765  19.111  19.892  1.00  0.00     0.263 C
HETATM    4  C12 UNL     1      -2.037  19.700  19.317  1.00  0.00     0.187 C
HETATM    5  O1  UNL     1      -3.119  18.878  19.491  1.00  0.00    -0.378 OA
HETATM    6  C13 UNL     1      -3.025  17.686  18.810  1.00  0.00     0.214 C
HETATM    7  C14 UNL     1      -1.568  17.235  18.598  1.00  0.00     0.338 C
HETATM    8  N4  UNL     1      -0.818  17.689  19.713  1.00  0.00     0.108 N
HETATM    9  C17 UNL     1       0.488  17.075  19.831  1.00  0.00     0.311 C
HETATM   10  C18 UNL     1      -2.280  20.986  20.075  1.00  0.00     0.187 C
HETATM   11  C19 UNL     1      -1.495  22.066  19.367  1.00  0.00     0.201 C
ENDROOT
BRANCH   1  12
HETATM   12  C9  UNL     1       1.325  22.586  18.924  1.00  0.00     0.067 C
BRANCH  12  13
HETATM   13  C8  UNL     1       2.275  22.566  17.761  1.00  0.00     0.037 C
BRANCH  13  14
HETATM   14  C7  UNL     1       3.452  21.701  17.922  1.00  0.00     0.237 C
BRANCH  14  15
HETATM   15  N1  UNL     1       4.761  22.276  17.935  1.00  0.00    -0.075 N
HETATM   16  C5  UNL     1       4.757  23.674  17.686  1.00  0.00     0.272 C
HETATM   17  C6  UNL     1       5.325  22.059  19.278  1.00  0.00     0.272 C
BRANCH  15  18
HETATM   18  C4  UNL     1       5.556  21.507  17.013  1.00  0.00     0.236 C
BRANCH  18  19
HETATM   19  C3  UNL     1       4.882  20.730  15.965  1.00  0.00     0.027 C
BRANCH  19  20
HETATM   20  C2  UNL     1       5.529  20.724  14.604  1.00  0.00    -0.003 C
HETATM   21  C1  UNL     1       6.855  19.983  14.677  1.00  0.00     0.005 C
ENDBRANCH  19  20
ENDBRANCH  18  19
ENDBRANCH  15  18
ENDBRANCH  14  15
ENDBRANCH  13  14
ENDBRANCH  12  13
ENDBRANCH   1  12
BRANCH  11  22
HETATM   22  O5  UNL     1      -2.306  22.497  18.292  1.00  0.00    -0.383 OA
ATOM     23  H5  UNL     1      -3.212  22.353  18.537  1.00  0.00     0.211 HD
ENDBRANCH  11  22
BRANCH  10  24
HETATM   24  O4  UNL     1      -3.635  21.308  20.122  1.00  0.00    -0.390 OA
ATOM     25  H4  UNL     1      -3.786  22.223  19.915  1.00  0.00     0.210 HD
ENDBRANCH  10  24
BRANCH   7  26
HETATM   26  C15 UNL     1      -1.619  15.771  18.485  1.00  0.00     0.261 C
HETATM   27  O2  UNL     1      -1.885  15.107  19.545  1.00  0.00    -0.271 OA
HETATM   28  N2  UNL     1      -1.394  15.038  17.300  1.00  0.00    -0.280 N
HETATM   29  C16 UNL     1      -1.479  13.608  17.270  1.00  0.00     0.335 C
ATOM     30  H2  UNL     1      -1.164  15.539  16.442  1.00  0.00     0.173 HD
HETATM   31  N3  UNL     1      -1.259  12.853  16.108  1.00  0.00    -0.040 NA
HETATM   32  O3  UNL     1      -1.765  13.027  18.340  1.00  0.00    -0.251 OA
ENDBRANCH   7  26
TORSDOF 10
ENDMDL