MODEL 4
REMARK VINA RESULT: -7.113054778      1.370      1.605
REMARK  9 active torsions:
REMARK  status: ('A' for Active; 'I' for Inactive)
REMARK       I    between atoms: N3_4  and  C2_6
REMARK    1  A    between atoms: C2_6  and  C3_8
REMARK       I    between atoms: N4_12  and  C7_13
REMARK    2  A    between atoms: C7_13  and  C8_15
REMARK    3  A    between atoms: C8_15  and  N5_16
REMARK       I    between atoms: N5_16  and  C9_18
REMARK    4  A    between atoms: C9_18  and  C10_20
REMARK       I    between atoms: N6_24  and  C14_25
REMARK    5  A    between atoms: C14_25  and  C15_27
REMARK    6  A    between atoms: C15_27  and  C16_28
REMARK    7  A    between atoms: C16_28  and  C17_29
REMARK    8  A    between atoms: C17_29  and  C18_30
REMARK    9  A    between atoms: C18_30  and  C19_31
ROOT
HETATM    1  N5  UNL     1       1.288  20.012  20.321  1.00  0.00    -0.351 N
ATOM      2  H5  UNL     1       1.852  19.353  20.857  1.00  0.00     0.163 HD
HETATM    3  C9  UNL     1       1.939  20.755  19.309  1.00  0.00     0.241 C
HETATM    4  O3  UNL     1       1.272  21.576  18.635  1.00  0.00    -0.271 OA
ENDROOT
BRANCH   1   5
HETATM    5  C8  UNL     1      -0.105  20.112  20.652  1.00  0.00     0.225 C
BRANCH   5   6
HETATM    6  C7  UNL     1      -0.795  18.787  20.671  1.00  0.00     0.238 C
HETATM    7  N4  UNL     1      -1.406  18.267  19.503  1.00  0.00    -0.337 N
HETATM    8  C3  UNL     1      -2.092  17.007  19.405  1.00  0.00     0.179 C
HETATM    9  C6  UNL     1      -1.444  18.906  18.230  1.00  0.00     0.127 C
HETATM   10  C4  UNL     1      -3.204  17.272  18.439  1.00  0.00     0.037 C
HETATM   11  C5  UNL     1      -2.714  18.415  17.611  1.00  0.00     0.022 C
HETATM   12  O2  UNL     1      -0.842  18.115  21.727  1.00  0.00    -0.272 OA
BRANCH   8  13
HETATM   13  C2  UNL     1      -1.217  15.926  18.875  1.00  0.00     0.246 C
HETATM   14  N3  UNL     1      -1.341  15.311  17.625  1.00  0.00    -0.302 N
HETATM   15  C1  UNL     1      -1.520  14.082  17.366  1.00  0.00     0.203 C
ATOM     16  H3  UNL     1      -1.280  15.931  16.818  1.00  0.00     0.171 HD
HETATM   17  N1  UNL     1      -1.626  13.091  18.368  1.00  0.00    -0.066 NA
HETATM   18  N2  UNL     1      -1.608  13.716  15.973  1.00  0.00    -0.066 NA
HETATM   19  O1  UNL     1      -0.278  15.539  19.639  1.00  0.00    -0.271 OA
ENDBRANCH   8  13
ENDBRANCH   5   6
ENDBRANCH   1   5
BRANCH   3  20
HETATM   20  C10 UNL     1       3.385  20.554  19.062  1.00  0.00     0.179 C
HETATM   21  C11 UNL     1       4.119  21.013  20.330  1.00  0.00     0.037 C
HETATM   22  C12 UNL     1       5.031  22.129  19.850  1.00  0.00     0.022 C
HETATM   23  C13 UNL     1       4.254  22.636  18.635  1.00  0.00     0.127 C
HETATM   24  N6  UNL     1       3.889  21.394  18.011  1.00  0.00    -0.339 N
HETATM   25  C14 UNL     1       4.008  21.076  16.638  1.00  0.00     0.220 C
HETATM   26  O4  UNL     1       3.652  19.946  16.198  1.00  0.00    -0.273 OA
BRANCH  25  27
HETATM   27  C15 UNL     1       4.550  22.041  15.659  1.00  0.00     0.103 C
BRANCH  27  28
HETATM   28  C16 UNL     1       6.008  21.955  15.406  1.00  0.00     0.010 C
BRANCH  28  29
HETATM   29  C17 UNL     1       6.487  20.714  14.729  1.00  0.00     0.011 C
BRANCH  29  30
HETATM   30  C18 UNL     1       6.283  20.737  13.225  1.00  0.00     0.113 C
BRANCH  30  31
HETATM   31  C19 UNL     1       7.574  20.472  12.565  1.00  0.00     0.172 C
HETATM   32  O5  UNL     1       8.679  20.467  13.138  1.00  0.00    -0.648 OA
HETATM   33  O6  UNL     1       7.557  20.204  11.184  1.00  0.00    -0.648 OA
ENDBRANCH  30  31
ENDBRANCH  29  30
ENDBRANCH  28  29
ENDBRANCH  27  28
ENDBRANCH  25  27
ENDBRANCH   3  20
TORSDOF 9
ENDMDL