MODEL 3
REMARK VINA RESULT: -6.586817542      2.230      9.543
REMARK  10 active torsions:
REMARK  status: ('A' for Active; 'I' for Inactive)
REMARK       I    between atoms: C1_2  and  N3_4
REMARK    1  A    between atoms: N3_4  and  C2_5
REMARK    2  A    between atoms: C2_5  and  C3_6
REMARK    3  A    between atoms: C3_6  and  C4_7
REMARK    4  A    between atoms: C4_7  and  C5_8
REMARK    5  A    between atoms: C5_8  and  N4_9
REMARK    6  A    between atoms: C5_8  and  C6_13
REMARK       I    between atoms: C6_13  and  N5_15
REMARK    7  A    between atoms: N5_15  and  C7_17
REMARK    8  A    between atoms: C7_17  and  C8_18
REMARK    9  A    between atoms: C7_17  and  C19_33
REMARK       I    between atoms: C8_18  and  N6_20
REMARK   10  A    between atoms: C12_24  and  C13_25
REMARK       I    between atoms: C13_25  and  N7_27
ROOT
HETATM    1  C7  UNL     1       2.194  19.991  18.312  1.00  0.00     0.181 C
ENDROOT
BRANCH   1   2
HETATM    2  N5  UNL     1       3.204  20.958  18.816  1.00  0.00    -0.346 N
HETATM    3  C6  UNL     1       3.842  20.757  20.065  1.00  0.00     0.249 C
HETATM    4  O1  UNL     1       3.527  19.739  20.731  1.00  0.00    -0.271 OA
ATOM      5  H5  UNL     1       3.442  21.776  18.255  1.00  0.00     0.163 HD
BRANCH   3   6
HETATM    6  C5  UNL     1       4.852  21.751  20.537  1.00  0.00     0.275 C
BRANCH   6   7
HETATM    7  C4  UNL     1       5.095  21.523  22.003  1.00  0.00     0.049 C
BRANCH   7   8
HETATM    8  C3  UNL     1       6.388  21.999  22.539  1.00  0.00     0.062 C
BRANCH   8   9
HETATM    9  C2  UNL     1       6.398  23.366  23.173  1.00  0.00     0.158 C
BRANCH   9  10
HETATM   10  N3  UNL     1       6.842  24.314  22.332  1.00  0.00    -0.393 NA
HETATM   11  C1  UNL     1       7.172  25.137  21.547  1.00  0.00     0.274 C
HETATM   12  N1  UNL     1       6.416  25.451  20.361  1.00  0.00    -0.052 NA
HETATM   13  N2  UNL     1       8.390  25.898  21.734  1.00  0.00    -0.052 NA
ENDBRANCH   9  10
ENDBRANCH   8   9
ENDBRANCH   7   8
ENDBRANCH   6   7
BRANCH   6  14
HETATM   14  N4  UNL     1       4.418  23.075  20.230  1.00  0.00    -0.066 N
ATOM     15  H43 UNL     1       3.682  23.371  20.871  1.00  0.00     0.275 HD
ATOM     16  H42 UNL     1       5.138  23.756  20.471  1.00  0.00     0.275 HD
ATOM     17  H41 UNL     1       4.119  23.192  19.262  1.00  0.00     0.275 HD
ENDBRANCH   6  14
ENDBRANCH   3   6
ENDBRANCH   1   2
BRANCH   1  18
HETATM   18  C8  UNL     1       0.865  20.442  18.712  1.00  0.00     0.243 C
HETATM   19  O2  UNL     1       0.567  21.654  18.561  1.00  0.00    -0.271 OA
HETATM   20  N6  UNL     1      -0.090  19.573  19.263  1.00  0.00    -0.350 N
HETATM   21  C9  UNL     1      -1.434  20.065  19.629  1.00  0.00     0.126 C
HETATM   22  C18 UNL     1       0.147  18.184  19.535  1.00  0.00     0.139 C
HETATM   23  C10 UNL     1      -2.012  19.055  20.603  1.00  0.00     0.021 C
HETATM   24  C11 UNL     1      -2.225  17.716  19.883  1.00  0.00     0.017 C
HETATM   25  C12 UNL     1      -1.049  17.403  18.982  1.00  0.00     0.096 C
BRANCH  25  26
HETATM   26  C13 UNL     1      -0.729  15.959  19.000  1.00  0.00     0.225 C
HETATM   27  O3  UNL     1       0.128  15.532  19.813  1.00  0.00    -0.273 OA
HETATM   28  N7  UNL     1      -1.356  15.044  18.136  1.00  0.00    -0.352 N
HETATM   29  C14 UNL     1      -2.344  15.360  17.139  1.00  0.00     0.126 C
HETATM   30  C17 UNL     1      -1.132  13.623  18.089  1.00  0.00     0.126 C
HETATM   31  C15 UNL     1      -1.971  14.427  15.990  1.00  0.00     0.021 C
HETATM   32  C16 UNL     1      -1.271  13.263  16.640  1.00  0.00     0.021 C
ENDBRANCH  25  26
ENDBRANCH   1  18
BRANCH   1  33
HETATM   33  C19 UNL     1       2.386  19.999  16.811  1.00  0.00     0.018 A
HETATM   34  C20 UNL     1       2.549  21.196  15.998  1.00  0.00     0.007 A
HETATM   35  C21 UNL     1       3.769  20.373  16.365  1.00  0.00     0.007 A
ENDBRANCH   1  33
TORSDOF 10
ENDMDL