MODEL 2
REMARK VINA RESULT: -6.423022907      4.582      7.321
REMARK  9 active torsions:
REMARK  status: ('A' for Active; 'I' for Inactive)
REMARK    1  A    between atoms: C2_2  and  C3_4
REMARK    2  A    between atoms: C3_4  and  N1_5
REMARK    3  A    between atoms: C8_11  and  N2_12
REMARK       I    between atoms: N2_12  and  C9_13
REMARK       I    between atoms: N2_12  and  C10_16
REMARK    4  A    between atoms: C10_16  and  C11_18
REMARK    5  A    between atoms: C11_18  and  C12_19
REMARK    6  A    between atoms: C12_19  and  C13_20
REMARK    7  A    between atoms: C13_20  and  N4_21
REMARK    8  A    between atoms: C17_28  and  C18_29
REMARK    9  A    between atoms: C18_29  and  C19_30
ROOT
HETATM    1  N1  UNL     1      -0.628  17.769  19.239  1.00  0.00    -0.340 N
HETATM    2  C4  UNL     1      -0.294  18.679  18.190  1.00  0.00     0.225 C
HETATM    3  O2  UNL     1       0.867  18.686  17.670  1.00  0.00    -0.273 OA
HETATM    4  C5  UNL     1      -1.332  19.616  17.722  1.00  0.00     0.084 C
HETATM    5  C6  UNL     1      -0.857  20.874  17.070  1.00  0.00     0.016 C
HETATM    6  C7  UNL     1      -2.036  21.837  17.365  1.00  0.00     0.027 C
HETATM    7  C8  UNL     1      -2.528  21.451  18.722  1.00  0.00     0.102 C
HETATM    8  C15 UNL     1      -1.946  20.161  18.969  1.00  0.00     0.024 C
HETATM    9  C16 UNL     1      -2.651  19.077  19.715  1.00  0.00     0.033 C
HETATM   10  C17 UNL     1      -1.538  18.216  20.289  1.00  0.00     0.098 C
ENDROOT
BRANCH   7  11
HETATM   11  N2  UNL     1      -3.959  21.633  18.882  1.00  0.00    -0.267 N
HETATM   12  C9  UNL     1      -4.889  21.313  17.886  1.00  0.00     0.338 C
HETATM   13  N3  UNL     1      -6.298  21.425  17.951  1.00  0.00    -0.039 NA
HETATM   14  O3  UNL     1      -4.468  20.864  16.768  1.00  0.00    -0.250 OA
HETATM   15  C10 UNL     1      -4.440  22.163  20.133  1.00  0.00     0.227 C
HETATM   16  O4  UNL     1      -3.558  22.437  21.028  1.00  0.00    -0.273 OA
BRANCH  15  17
HETATM   17  C11 UNL     1      -5.825  22.427  20.498  1.00  0.00     0.105 C
BRANCH  17  18
HETATM   18  C12 UNL     1      -6.168  21.621  21.739  1.00  0.00     0.029 C
BRANCH  18  19
HETATM   19  C13 UNL     1      -7.523  20.964  21.617  1.00  0.00     0.122 C
BRANCH  19  20
HETATM   20  N4  UNL     1      -7.554  20.316  20.324  1.00  0.00    -0.367 N
HETATM   21  C14 UNL     1      -8.221  19.233  20.189  1.00  0.00     0.196 C
HETATM   22  N5  UNL     1      -8.910  18.692  21.300  1.00  0.00    -0.067 NA
HETATM   23  N6  UNL     1      -8.245  18.613  18.926  1.00  0.00    -0.067 NA
ATOM     24  H4  UNL     1      -7.052  20.717  19.532  1.00  0.00     0.161 HD
ENDBRANCH  19  20
ENDBRANCH  18  19
ENDBRANCH  17  18
ENDBRANCH  15  17
ENDBRANCH   7  11
BRANCH  10  25
HETATM   25  C18 UNL     1      -1.964  17.139  21.190  1.00  0.00     0.138 C
BRANCH  25  26
HETATM   26  C19 UNL     1      -1.366  17.173  22.532  1.00  0.00     0.174 C
HETATM   27  O5  UNL     1      -1.905  16.747  23.568  1.00  0.00    -0.648 OA
HETATM   28  O6  UNL     1      -0.080  17.718  22.730  1.00  0.00    -0.648 OA
ENDBRANCH  25  26
ENDBRANCH  10  25
BRANCH   1  29
HETATM   29  C3  UNL     1      -0.009  16.460  19.249  1.00  0.00     0.204 C
BRANCH  29  30
HETATM   30  C2  UNL     1      -0.765  15.446  18.483  1.00  0.00     0.140 C
HETATM   31  C1  UNL     1      -0.996  14.104  19.055  1.00  0.00     0.092 C
HETATM   32  O1  UNL     1      -1.220  15.686  17.366  1.00  0.00    -0.297 OA
ENDBRANCH  29  30
ENDBRANCH   1  29
TORSDOF 9
ENDMDL