MODEL 4
REMARK VINA RESULT: -6.528122392      4.699      7.326
REMARK  11 active torsions:
REMARK  status: ('A' for Active; 'I' for Inactive)
REMARK    1  A    between atoms: N1_2  and  C2_4
REMARK       I    between atoms: N1_2  and  C13_24
REMARK    2  A    between atoms: C2_4  and  C3_5
REMARK    3  A    between atoms: C3_5  and  N2_6
REMARK       I    between atoms: N2_6  and  C4_8
REMARK    4  A    between atoms: C4_8  and  C5_10
REMARK       I    between atoms: N3_13  and  C8_14
REMARK    5  A    between atoms: C8_14  and  C9_16
REMARK    6  A    between atoms: C9_16  and  O4_17
REMARK    7  A    between atoms: C9_16  and  C10_19
REMARK    8  A    between atoms: C10_19  and  O5_20
REMARK    9  A    between atoms: C13_24  and  C14_26
REMARK   10  A    between atoms: C14_26  and  C15_27
REMARK   11  A    between atoms: C15_27  and  S1_28
ROOT
HETATM    1  N2  UNL     1       0.672  18.816  20.446  1.00  0.00    -0.335 N
ATOM      2  H2  UNL     1       0.781  17.842  20.164  1.00  0.00     0.168 HD
HETATM    3  C4  UNL     1      -0.667  19.232  20.413  1.00  0.00     0.225 C
HETATM    4  O2  UNL     1      -1.040  20.374  20.688  1.00  0.00    -0.273 OA
ENDROOT
BRANCH   1   5
HETATM    5  C3  UNL     1       1.885  19.411  20.770  1.00  0.00     0.125 C
BRANCH   5   6
HETATM    6  C2  UNL     1       2.681  20.271  19.898  1.00  0.00     0.301 C
BRANCH   6   7
HETATM    7  N1  UNL     1       2.265  20.671  18.604  1.00  0.00     0.100 N
HETATM    8  C1  UNL     1       1.565  21.960  18.598  1.00  0.00     0.374 C
HETATM    9  O1  UNL     1       1.635  19.720  17.906  1.00  0.00    -0.052 OA
HETATM   10  C13 UNL     1       3.481  20.943  17.799  1.00  0.00     0.383 C
HETATM   11  O6  UNL     1       4.291  21.658  18.317  1.00  0.00    -0.255 OA
BRANCH  10  12
HETATM   12  C14 UNL     1       3.684  20.381  16.460  1.00  0.00     0.131 C
BRANCH  12  13
HETATM   13  C15 UNL     1       3.701  21.515  15.467  1.00  0.00     0.073 C
BRANCH  13  14
HETATM   14  S1  UNL     1       5.300  21.905  14.874  1.00  0.00    -0.219 SA
HETATM   15  C16 UNL     1       5.494  21.325  13.183  1.00  0.00     0.063 C
HETATM   16  C17 UNL     1       6.836  20.631  13.277  1.00  0.00     0.010 C
HETATM   17  C18 UNL     1       6.874  19.915  14.596  1.00  0.00     0.010 C
HETATM   18  C19 UNL     1       6.586  20.972  15.661  1.00  0.00     0.063 C
ENDBRANCH  13  14
ENDBRANCH  12  13
ENDBRANCH  10  12
ENDBRANCH   6   7
ENDBRANCH   5   6
ENDBRANCH   1   5
BRANCH   3  19
HETATM   19  C5  UNL     1      -1.754  18.227  20.012  1.00  0.00     0.081 C
HETATM   20  C6  UNL     1      -1.328  16.912  20.567  1.00  0.00     0.034 C
HETATM   21  C7  UNL     1      -1.811  15.707  19.835  1.00  0.00     0.127 C
HETATM   22  N3  UNL     1      -2.114  15.896  18.454  1.00  0.00    -0.350 N
HETATM   23  C8  UNL     1      -1.836  14.954  17.431  1.00  0.00     0.250 C
HETATM   24  C11 UNL     1      -2.760  17.163  18.085  1.00  0.00     0.127 C
HETATM   25  O3  UNL     1      -2.143  15.244  16.224  1.00  0.00    -0.270 OA
HETATM   26  C12 UNL     1      -1.810  18.261  18.513  1.00  0.00     0.034 C
BRANCH  23  27
HETATM   27  C9  UNL     1      -1.205  13.658  17.731  1.00  0.00     0.233 C
BRANCH  27  28
HETATM   28  O4  UNL     1       0.043  13.906  18.363  1.00  0.00    -0.384 OA
ATOM     29  H4  UNL     1       0.622  14.312  17.729  1.00  0.00     0.210 HD
ENDBRANCH  27  28
BRANCH  27  30
HETATM   30  C10 UNL     1      -0.831  12.877  16.479  1.00  0.00     0.205 C
BRANCH  30  31
HETATM   31  O5  UNL     1      -1.945  12.555  15.732  1.00  0.00    -0.398 OA
ATOM     32  H5  UNL     1      -1.816  12.753  14.811  1.00  0.00     0.209 HD
ENDBRANCH  30  31
ENDBRANCH  27  30
ENDBRANCH  23  27
ENDBRANCH   3  19
TORSDOF 11
ENDMDL