MODEL 4
REMARK VINA RESULT: -6.913911788      2.124      3.011
REMARK  9 active torsions:
REMARK  status: ('A' for Active; 'I' for Inactive)
REMARK    1  A    between atoms: C6_6  and  C7_7
REMARK    2  A    between atoms: C7_7  and  C8_8
REMARK    3  A    between atoms: C8_8  and  N1_9
REMARK       I    between atoms: N1_9  and  C9_10
REMARK    4  A    between atoms: C9_10  and  C10_12
REMARK    5  A    between atoms: C10_12  and  N2_13
REMARK    6  A    between atoms: C17_21  and  O3_22
REMARK    7  A    between atoms: C18_24  and  C19_25
REMARK    8  A    between atoms: C19_25  and  N3_26
REMARK    9  A    between atoms: N3_26  and  C20_28
ROOT
HETATM    1  C1  UNL     1       0.411  20.988  20.020  1.00  0.00     0.020 C
HETATM    2  C2  UNL     1       1.609  20.158  19.589  1.00  0.00     0.011 C
HETATM    3  C3  UNL     1       2.212  19.549  20.815  1.00  0.00     0.095 C
HETATM    4  C4  UNL     1       3.051  20.588  21.580  1.00  0.00     0.026 C
HETATM    5  C5  UNL     1       4.254  20.840  20.700  1.00  0.00     0.009 C
HETATM    6  C6  UNL     1       3.783  21.485  19.454  1.00  0.00     0.021 C
HETATM    7  C14 UNL     1       2.535  21.054  18.830  1.00  0.00     0.136 C
HETATM    8  O2  UNL     1       2.773  20.467  17.588  1.00  0.00    -0.384 OA
HETATM    9  C15 UNL     1       1.587  19.812  17.283  1.00  0.00     0.176 C
HETATM   10  C16 UNL     1       1.309  19.091  18.605  1.00  0.00     0.051 C
HETATM   11  C17 UNL     1      -0.070  18.530  18.654  1.00  0.00     0.131 C
HETATM   12  C18 UNL     1      -0.046  17.258  19.446  1.00  0.00     0.041 C
HETATM   13  C21 UNL     1      -0.779  17.499  20.725  1.00  0.00     0.111 C
HETATM   14  C22 UNL     1       0.139  18.110  21.702  1.00  0.00     0.218 C
HETATM   15  O5  UNL     1      -0.211  17.815  22.872  1.00  0.00    -0.274 OA
HETATM   16  N4  UNL     1       1.294  18.926  21.703  1.00  0.00    -0.356 N
ATOM     17  H4  UNL     1       1.557  19.140  22.666  1.00  0.00     0.162 HD
ENDROOT
BRANCH   6  18
HETATM   18  C7  UNL     1       4.894  21.626  18.453  1.00  0.00     0.067 C
BRANCH  18  19
HETATM   19  C8  UNL     1       5.281  23.027  18.086  1.00  0.00     0.159 C
BRANCH  19  20
HETATM   20  N1  UNL     1       5.164  23.264  16.740  1.00  0.00    -0.386 NA
HETATM   21  C9  UNL     1       5.047  23.500  15.392  1.00  0.00     0.317 C
HETATM   22  O1  UNL     1       4.279  24.237  14.747  1.00  0.00    -0.255 OA
BRANCH  21  23
HETATM   23  C10 UNL     1       6.028  22.726  14.519  1.00  0.00     0.354 C
BRANCH  23  24
HETATM   24  N2  UNL     1       5.582  21.396  14.256  1.00  0.00    -0.069 N
HETATM   25  C11 UNL     1       5.906  21.124  12.844  1.00  0.00     0.272 C
HETATM   26  C12 UNL     1       4.161  21.229  14.407  1.00  0.00     0.272 C
HETATM   27  C13 UNL     1       6.323  20.414  15.041  1.00  0.00     0.272 C
ENDBRANCH  23  24
ENDBRANCH  21  23
ENDBRANCH  19  20
ENDBRANCH  18  19
ENDBRANCH   6  18
BRANCH  11  28
HETATM   28  O3  UNL     1      -0.451  18.228  17.347  1.00  0.00    -0.395 OA
ATOM     29  H3  UNL     1       0.246  17.716  16.955  1.00  0.00     0.210 HD
ENDBRANCH  11  28
BRANCH  12  30
HETATM   30  C19 UNL     1      -0.671  16.100  18.730  1.00  0.00     0.129 C
BRANCH  30  31
HETATM   31  N3  UNL     1      -0.209  14.821  19.210  1.00  0.00    -0.368 N
ATOM     32  H3  UNL     1       0.336  14.755  20.070  1.00  0.00     0.161 HD
BRANCH  31  33
HETATM   33  C20 UNL     1      -0.526  13.659  18.465  1.00  0.00     0.348 C
HETATM   34  O4  UNL     1      -1.710  13.238  18.418  1.00  0.00    -0.284 OA
ENDBRANCH  31  33
ENDBRANCH  30  31
ENDBRANCH  12  30
TORSDOF 9
ENDMDL