MODEL 2
REMARK VINA RESULT: -6.630478748      0.748      1.644
REMARK  9 active torsions:
REMARK  status: ('A' for Active; 'I' for Inactive)
REMARK       I    between atoms: C2_4  and  N2_5
REMARK       I    between atoms: C2_4  and  N7_35
REMARK    1  A    between atoms: N2_5  and  C3_7
REMARK    2  A    between atoms: C3_7  and  C4_8
REMARK    3  A    between atoms: C4_8  and  C5_9
REMARK    4  A    between atoms: C5_9  and  C6_10
REMARK    5  A    between atoms: C6_10  and  C7_11
REMARK    6  A    between atoms: C7_11  and  C8_12
REMARK    7  A    between atoms: C8_12  and  C9_13
REMARK    8  A    between atoms: C9_13  and  C10_14
REMARK    9  A    between atoms: C10_14  and  C11_16
ROOT
HETATM    1  C11 UNL     1      -0.852  17.699  21.009  1.00  0.00     0.346 C
HETATM    2  N3  UNL     1      -1.482  18.603  20.060  1.00  0.00    -0.047 N
ATOM      3  H31 UNL     1      -0.960  18.648  19.185  1.00  0.00     0.279 HD
ATOM      4  H32 UNL     1      -1.386  19.575  20.351  1.00  0.00     0.279 HD
HETATM    5  C12 UNL     1      -2.868  18.255  19.831  1.00  0.00     0.336 C
HETATM    6  C13 UNL     1      -3.288  18.406  18.439  1.00  0.00     0.243 C
HETATM    7  O2  UNL     1      -3.913  19.478  18.124  1.00  0.00    -0.272 OA
HETATM    8  N4  UNL     1      -3.063  17.461  17.408  1.00  0.00    -0.351 N
ATOM      9  H4  UNL     1      -3.860  17.199  16.828  1.00  0.00     0.163 HD
HETATM   10  C14 UNL     1      -1.788  16.837  17.111  1.00  0.00     0.225 C
HETATM   11  C15 UNL     1      -1.897  15.372  17.324  1.00  0.00     0.242 C
HETATM   12  O3  UNL     1      -2.846  14.813  16.666  1.00  0.00    -0.271 OA
HETATM   13  N5  UNL     1      -1.061  14.599  18.164  1.00  0.00    -0.317 N
HETATM   14  C16 UNL     1      -0.599  13.321  17.638  1.00  0.00     0.160 C
HETATM   15  C17 UNL     1      -0.660  15.005  19.489  1.00  0.00     0.188 C
HETATM   16  N6  UNL     1       0.376  15.990  19.533  1.00  0.00    -0.321 N
ATOM     17  H6  UNL     1       1.162  15.891  18.890  1.00  0.00     0.169 HD
HETATM   18  C18 UNL     1       0.372  17.100  20.423  1.00  0.00     0.261 C
HETATM   19  O4  UNL     1       1.477  17.606  20.732  1.00  0.00    -0.270 OA
ENDROOT
BRANCH   1  20
HETATM   20  C10 UNL     1      -0.500  18.399  22.273  1.00  0.00     0.166 C
HETATM   21  O1  UNL     1      -0.174  17.742  23.231  1.00  0.00    -0.295 OA
BRANCH  20  22
HETATM   22  C9  UNL     1      -0.548  19.882  22.356  1.00  0.00     0.081 C
BRANCH  22  23
HETATM   23  C8  UNL     1       0.738  20.448  22.931  1.00  0.00     0.007 C
BRANCH  23  24
HETATM   24  C7  UNL     1       1.635  20.900  21.806  1.00  0.00     0.000 C
BRANCH  24  25
HETATM   25  C6  UNL     1       3.102  20.740  22.134  1.00  0.00     0.000 C
BRANCH  25  26
HETATM   26  C5  UNL     1       3.934  20.336  20.965  1.00  0.00     0.002 C
BRANCH  26  27
HETATM   27  C4  UNL     1       4.541  21.561  20.328  1.00  0.00     0.020 C
BRANCH  27  28
HETATM   28  C3  UNL     1       3.868  21.974  19.055  1.00  0.00     0.138 C
BRANCH  28  29
HETATM   29  N2  UNL     1       4.064  20.878  18.093  1.00  0.00    -0.227 N
HETATM   30  C2  UNL     1       3.319  20.755  16.904  1.00  0.00     0.670 C
HETATM   31  N1  UNL     1       3.817  20.655  15.722  1.00  0.00    -0.231 N
HETATM   32  N7  UNL     1       1.888  20.739  17.000  1.00  0.00    -0.227 N
HETATM   33  C1  UNL     1       5.230  20.653  15.435  1.00  0.00     0.165 C
ATOM     34  H1  UNL     1       3.170  20.571  14.937  1.00  0.00     0.177 HD
HETATM   35  C19 UNL     1       1.145  21.469  16.011  1.00  0.00     0.168 C
HETATM   36  C20 UNL     1       1.247  19.991  18.086  1.00  0.00     0.168 C
ATOM     37  H2  UNL     1       4.774  20.173  18.297  1.00  0.00     0.177 HD
ENDBRANCH  28  29
ENDBRANCH  27  28
ENDBRANCH  26  27
ENDBRANCH  25  26
ENDBRANCH  24  25
ENDBRANCH  23  24
ENDBRANCH  22  23
ENDBRANCH  20  22
ENDBRANCH   1  20
TORSDOF 9
ENDMDL