MODEL 1
REMARK VINA RESULT: -7.293640937      0.000      0.000
REMARK  9 active torsions:
REMARK  status: ('A' for Active; 'I' for Inactive)
REMARK    1  A    between atoms: N1_2  and  O1_3
REMARK    2  A    between atoms: N1_2  and  C2_5
REMARK    3  A    between atoms: C2_5  and  C3_6
REMARK    4  A    between atoms: C2_5  and  C12_26
REMARK    5  A    between atoms: C4_7  and  C5_8
REMARK    6  A    between atoms: C5_8  and  N2_9
REMARK       I    between atoms: C6_11  and  N3_12
REMARK       I    between atoms: C6_11  and  N6_17
REMARK    7  A    between atoms: C11_21  and  N7_22
REMARK       I    between atoms: C12_26  and  N8_28
REMARK    8  A    between atoms: N8_28  and  C13_30
REMARK    9  A    between atoms: C13_30  and  C14_31
REMARK       I    between atoms: C14_31  and  N9_33
ROOT
HETATM    1  C3  UNL     1       2.087  19.248  18.501  1.00  0.00     0.035 C
HETATM    2  C4  UNL     1       1.939  20.588  18.003  1.00  0.00    -0.004 C
ENDROOT
BRANCH   1   3
HETATM    3  C2  UNL     1       2.282  18.772  19.871  1.00  0.00     0.128 C
BRANCH   3   4
HETATM    4  N1  UNL     1       2.691  19.569  20.900  1.00  0.00    -0.241 N
HETATM    5  C1  UNL     1       3.927  19.969  21.311  1.00  0.00     0.156 C
BRANCH   4   6
HETATM    6  O1  UNL     1       1.715  20.192  21.616  1.00  0.00    -0.284 OA
ATOM      7  H1  UNL     1       1.456  19.668  22.365  1.00  0.00     0.245 HD
ENDBRANCH   4   6
ENDBRANCH   3   4
BRANCH   3   8
HETATM    8  C12 UNL     1       1.109  17.883  20.291  1.00  0.00     0.271 C
HETATM    9  O2  UNL     1       0.921  17.549  21.475  1.00  0.00    -0.266 OA
HETATM   10  N8  UNL     1       0.230  17.440  19.297  1.00  0.00    -0.347 N
ATOM     11  H8  UNL     1       0.413  17.737  18.339  1.00  0.00     0.163 HD
BRANCH  10  12
HETATM   12  C13 UNL     1      -0.912  16.597  19.526  1.00  0.00     0.225 C
BRANCH  12  13
HETATM   13  C14 UNL     1      -0.604  15.216  19.127  1.00  0.00     0.237 C
HETATM   14  O3  UNL     1       0.086  14.489  19.871  1.00  0.00    -0.272 OA
HETATM   15  N9  UNL     1      -1.088  14.675  17.878  1.00  0.00    -0.351 N
HETATM   16  C15 UNL     1      -0.750  13.326  17.566  1.00  0.00     0.126 C
HETATM   17  C19 UNL     1      -1.871  15.549  17.051  1.00  0.00     0.126 C
HETATM   18  C16 UNL     1      -0.861  12.963  16.117  1.00  0.00     0.020 C
HETATM   19  C17 UNL     1      -1.893  13.713  15.352  1.00  0.00     0.003 C
HETATM   20  C18 UNL     1      -2.712  14.677  16.145  1.00  0.00     0.020 C
ENDBRANCH  12  13
ENDBRANCH  10  12
ENDBRANCH   3   8
ENDBRANCH   1   3
BRANCH   2  21
HETATM   21  C5  UNL     1       2.978  21.641  18.089  1.00  0.00     0.165 C
BRANCH  21  22
HETATM   22  N2  UNL     1       4.109  21.260  17.193  1.00  0.00    -0.223 N
HETATM   23  C6  UNL     1       4.340  21.882  16.099  1.00  0.00     0.680 C
HETATM   24  N3  UNL     1       3.499  22.959  15.733  1.00  0.00    -0.166 N
HETATM   25  N6  UNL     1       5.412  21.513  15.256  1.00  0.00    -0.188 N
HETATM   26  C7  UNL     1       2.490  22.887  14.957  1.00  0.00     0.215 C
ATOM     27  H3  UNL     1       3.720  23.874  16.125  1.00  0.00     0.186 HD
HETATM   28  N4  UNL     1       2.028  21.708  14.318  1.00  0.00    -0.066 NA
HETATM   29  N5  UNL     1       1.777  24.116  14.723  1.00  0.00    -0.066 NA
HETATM   30  C8  UNL     1       6.334  20.399  15.521  1.00  0.00     0.143 C
HETATM   31  C11 UNL     1       5.832  22.115  13.997  1.00  0.00     0.299 C
HETATM   32  C9  UNL     1       7.008  20.090  14.223  1.00  0.00     0.024 C
HETATM   33  C10 UNL     1       6.194  20.852  13.207  1.00  0.00     0.056 C
ATOM     34  H2  UNL     1       4.713  20.483  17.459  1.00  0.00     0.178 HD
BRANCH  31  35
HETATM   35  N7  UNL     1       7.082  22.841  14.172  1.00  0.00    -0.058 N
ATOM     36  H73 UNL     1       6.932  23.849  14.227  1.00  0.00     0.276 HD
ATOM     37  H72 UNL     1       7.478  22.696  15.101  1.00  0.00     0.276 HD
ATOM     38  H71 UNL     1       7.742  22.596  13.435  1.00  0.00     0.276 HD
ENDBRANCH  31  35
ENDBRANCH  21  22
ENDBRANCH   2  21
TORSDOF 9
ENDMDL