MODEL 3
REMARK VINA RESULT: -6.652306584      1.349      1.707
REMARK  10 active torsions:
REMARK  status: ('A' for Active; 'I' for Inactive)
REMARK    1  A    between atoms: C5_8  and  C6_9
REMARK    2  A    between atoms: C9_15  and  N3_16
REMARK       I    between atoms: N3_16  and  C10_18
REMARK    3  A    between atoms: C10_18  and  C11_20
REMARK    4  A    between atoms: C11_20  and  C12_21
REMARK    5  A    between atoms: C12_21  and  N4_22
REMARK    6  A    between atoms: N5_25  and  C15_26
REMARK    7  A    between atoms: C15_26  and  C16_27
REMARK    8  A    between atoms: C16_27  and  C17_28
REMARK    9  A    between atoms: C17_28  and  C18_29
REMARK   10  A    between atoms: C18_29  and  O3_30
ROOT
HETATM    1  N3  UNL     1       1.082  20.680  19.251  1.00  0.00    -0.354 N
ATOM      2  H3  UNL     1       1.986  20.726  19.721  1.00  0.00     0.162 HD
HETATM    3  C10 UNL     1       0.720  21.749  18.390  1.00  0.00     0.219 C
HETATM    4  O2  UNL     1      -0.393  21.689  17.816  1.00  0.00    -0.274 OA
ENDROOT
BRANCH   1   5
HETATM    5  C9  UNL     1       0.252  19.538  19.498  1.00  0.00     0.124 C
HETATM    6  C6  UNL     1       0.998  18.231  19.360  1.00  0.00     0.275 C
HETATM    7  N2  UNL     1       1.540  17.950  20.674  1.00  0.00    -0.062 N
HETATM    8  C7  UNL     1       0.689  18.575  21.639  1.00  0.00     0.235 C
ATOM      9  H22 UNL     1       1.668  16.952  20.844  1.00  0.00     0.278 HD
ATOM     10  H21 UNL     1       2.517  18.229  20.768  1.00  0.00     0.278 HD
HETATM   11  C8  UNL     1      -0.285  19.458  20.892  1.00  0.00     0.055 C
BRANCH   6  12
HETATM   12  C5  UNL     1       0.071  17.132  18.985  1.00  0.00     0.113 C
HETATM   13  N1  UNL     1       0.115  15.884  19.652  1.00  0.00    -0.315 N
HETATM   14  C4  UNL     1      -0.773  14.810  19.303  1.00  0.00     0.225 C
ATOM     15  H1  UNL     1       0.795  15.745  20.400  1.00  0.00     0.170 HD
HETATM   16  C3  UNL     1      -1.475  14.915  18.000  1.00  0.00     0.127 C
HETATM   17  O1  UNL     1      -0.971  13.820  20.034  1.00  0.00    -0.273 OA
HETATM   18  C2  UNL     1      -1.739  16.325  17.584  1.00  0.00     0.087 C
HETATM   19  C1  UNL     1      -3.120  16.703  18.077  1.00  0.00     0.032 C
HETATM   20  N6  UNL     1      -0.795  17.289  18.044  1.00  0.00    -0.373 N
ATOM     21  H6  UNL     1      -0.807  18.197  17.580  1.00  0.00     0.161 HD
ENDBRANCH   6  12
ENDBRANCH   1   5
BRANCH   3  22
HETATM   22  C11 UNL     1       1.587  22.917  18.148  1.00  0.00     0.130 C
BRANCH  22  23
HETATM   23  C12 UNL     1       2.041  22.947  16.725  1.00  0.00     0.247 C
BRANCH  23  24
HETATM   24  N4  UNL     1       3.333  22.389  16.495  1.00  0.00    -0.062 N
HETATM   25  C13 UNL     1       3.180  21.005  16.084  1.00  0.00     0.265 C
HETATM   26  C14 UNL     1       4.522  20.363  15.817  1.00  0.00     0.265 C
HETATM   27  N5  UNL     1       5.550  21.384  15.891  1.00  0.00    -0.062 N
HETATM   28  C19 UNL     1       5.212  22.394  14.909  1.00  0.00     0.265 C
HETATM   29  C21 UNL     1       5.549  21.908  17.234  1.00  0.00     0.265 C
HETATM   30  C20 UNL     1       3.993  23.129  15.417  1.00  0.00     0.265 C
HETATM   31  C22 UNL     1       4.206  22.463  17.643  1.00  0.00     0.265 C
BRANCH  27  32
HETATM   32  C15 UNL     1       6.824  20.763  15.633  1.00  0.00     0.237 C
BRANCH  32  33
HETATM   33  C16 UNL     1       6.864  19.976  14.365  1.00  0.00     0.030 C
BRANCH  33  34
HETATM   34  C17 UNL     1       7.930  20.515  13.444  1.00  0.00     0.028 C
BRANCH  34  35
HETATM   35  C18 UNL     1       7.422  20.945  12.105  1.00  0.00     0.164 C
BRANCH  35  36
HETATM   36  O3  UNL     1       7.666  19.886  11.218  1.00  0.00    -0.401 OA
ATOM     37  H3  UNL     1       7.202  20.087  10.415  1.00  0.00     0.209 HD
ENDBRANCH  35  36
ENDBRANCH  34  35
ENDBRANCH  33  34
ENDBRANCH  32  33
ENDBRANCH  27  32
ENDBRANCH  23  24
ENDBRANCH  22  23
ENDBRANCH   3  22
TORSDOF 10
ENDMDL