MODEL 1
REMARK VINA RESULT: -7.633645748      0.000      0.000
REMARK  10 active torsions:
REMARK  status: ('A' for Active; 'I' for Inactive)
REMARK    1  A    between atoms: C2_2  and  O1_3
REMARK    2  A    between atoms: C2_2  and  C11_24
REMARK    3  A    between atoms: O1_3  and  N1_4
REMARK    4  A    between atoms: C5_12  and  O3_13
REMARK    5  A    between atoms: C5_12  and  C6_15
REMARK    6  A    between atoms: C6_15  and  O4_16
REMARK    7  A    between atoms: C8_19  and  C9_20
REMARK    8  A    between atoms: C9_20  and  C10_21
REMARK    9  A    between atoms: C11_24  and  O5_25
REMARK   10  A    between atoms: C11_24  and  O6_27
ROOT
HETATM    1  N1  UNL     1      74.446  45.699  50.938  1.00  0.00    -0.247 N
ATOM      2  H1  UNL     1      74.442  46.075  51.886  1.00  0.00     0.196 HD
HETATM    3  C3  UNL     1      74.474  44.417  50.801  1.00  0.00     0.149 C
HETATM    4  O2  UNL     1      74.481  43.819  49.564  1.00  0.00    -0.280 OA
HETATM    5  C4  UNL     1      74.532  42.442  49.359  1.00  0.00     0.156 C
HETATM    6  N2  UNL     1      74.429  41.931  48.177  1.00  0.00    -0.381 N
ATOM      7  H21 UNL     1      74.466  40.923  48.028  1.00  0.00     0.158 HD
ATOM      8  H22 UNL     1      74.307  42.512  47.348  1.00  0.00     0.158 HD
HETATM    9  C5  UNL     1      74.710  41.592  50.573  1.00  0.00     0.144 C
HETATM   10  C7  UNL     1      73.859  42.259  51.665  1.00  0.00     0.061 C
HETATM   11  C8  UNL     1      74.498  43.570  52.040  1.00  0.00     0.069 C
ENDROOT
BRANCH   1  12
HETATM   12  O1  UNL     1      74.423  46.579  49.912  1.00  0.00    -0.269 OA
BRANCH  12  13
HETATM   13  C2  UNL     1      73.880  47.873  50.010  1.00  0.00     0.203 C
HETATM   14  C1  UNL     1      72.464  47.950  49.488  1.00  0.00     0.047 C
BRANCH  13  15
HETATM   15  C11 UNL     1      74.742  48.830  49.192  1.00  0.00     0.284 C
BRANCH  15  16
HETATM   16  O5  UNL     1      75.741  48.096  48.574  1.00  0.00    -0.369 OA
ATOM     17  H5  UNL     1      76.286  48.694  48.076  1.00  0.00     0.212 HD
ENDBRANCH  15  16
BRANCH  15  18
HETATM   18  O6  UNL     1      75.251  49.840  50.011  1.00  0.00    -0.369 OA
ATOM     19  H6  UNL     1      75.298  50.659  49.532  1.00  0.00     0.212 HD
ENDBRANCH  15  18
ENDBRANCH  13  15
ENDBRANCH  12  13
ENDBRANCH   1  12
BRANCH  11  20
HETATM   20  C9  UNL     1      73.716  44.217  53.132  1.00  0.00     0.049 C
BRANCH  20  21
HETATM   21  C10 UNL     1      72.384  43.585  53.320  1.00  0.00     0.179 C
HETATM   22 CL1  UNL     1      71.159  44.746  52.696  1.00  0.00    -0.108 Cl
HETATM   23 CL2  UNL     1      71.995  43.241  55.002  1.00  0.00    -0.108 Cl
ENDBRANCH  20  21
ENDBRANCH  11  20
BRANCH   9  24
HETATM   24  O3  UNL     1      76.047  41.588  50.892  1.00  0.00    -0.379 OA
ATOM     25  H3  UNL     1      76.131  41.284  51.789  1.00  0.00     0.211 HD
ENDBRANCH   9  24
BRANCH   9  26
HETATM   26  C6  UNL     1      74.149  40.211  50.372  1.00  0.00     0.210 C
BRANCH  26  27
HETATM   27  O4  UNL     1      75.064  39.350  49.787  1.00  0.00    -0.397 OA
ATOM     28  H4  UNL     1      75.411  38.716  50.404  1.00  0.00     0.209 HD
ENDBRANCH  26  27
ENDBRANCH   9  26
TORSDOF 10
ENDMDL