MODEL 1
REMARK VINA RESULT: -7.288718385      0.000      0.000
REMARK  9 active torsions:
REMARK  status: ('A' for Active; 'I' for Inactive)
REMARK    1  A    between atoms: N1_2  and  C3_4
REMARK    2  A    between atoms: N2_6  and  N3_8
REMARK    3  A    between atoms: N3_8  and  N4_10
REMARK    4  A    between atoms: N4_10  and  N5_11
REMARK    5  A    between atoms: N5_11  and  C4_13
REMARK    6  A    between atoms: C8_18  and  O1_19
REMARK    7  A    between atoms: C9_21  and  N6_22
REMARK    8  A    between atoms: N6_22  and  N7_24
REMARK    9  A    between atoms: N8_26  and  N9_28
ROOT
HETATM    1  C4  UNL     1      71.820  46.430  50.216  1.00  0.00     0.115 A
HETATM    2  C5  UNL     1      72.250  47.657  49.803  1.00  0.00     0.146 A
HETATM    3  F1  UNL     1      71.432  48.736  49.693  1.00  0.00    -0.204 F
HETATM    4  C6  UNL     1      73.577  47.826  49.476  1.00  0.00     0.047 A
HETATM    5  C7  UNL     1      74.437  46.761  49.573  1.00  0.00     0.042 A
HETATM    6  C8  UNL     1      73.967  45.496  50.005  1.00  0.00     0.096 A
HETATM    7  C9  UNL     1      72.647  45.296  50.339  1.00  0.00     0.113 A
ENDROOT
BRANCH   1   8
HETATM    8  N5  UNL     1      70.436  46.315  50.527  1.00  0.00    -0.278 N
ATOM      9  H5  UNL     1      69.810  45.796  49.911  1.00  0.00     0.184 HD
BRANCH   8  10
HETATM   10  N4  UNL     1      69.953  46.913  51.670  1.00  0.00    -0.006 NA
BRANCH  10  11
HETATM   11  N3  UNL     1      69.787  45.998  52.722  1.00  0.00    -0.224 N
ATOM     12  H3  UNL     1      69.561  45.019  52.549  1.00  0.00     0.205 HD
BRANCH  11  13
HETATM   13  N2  UNL     1      69.946  46.494  54.014  1.00  0.00    -0.263 N
HETATM   14  C3  UNL     1      70.795  45.974  54.800  1.00  0.00     0.192 C
HETATM   15 CL1  UNL     1      70.993  46.594  56.416  1.00  0.00    -0.044 Cl
ATOM     16  H2  UNL     1      69.377  47.280  54.329  1.00  0.00     0.190 HD
BRANCH  14  17
HETATM   17  N1  UNL     1      71.588  44.887  54.383  1.00  0.00    -0.365 N
HETATM   18  C1  UNL     1      72.986  45.178  54.036  1.00  0.00     0.151 C
HETATM   19  C2  UNL     1      71.071  43.533  54.288  1.00  0.00     0.151 C
ENDBRANCH  14  17
ENDBRANCH  11  13
ENDBRANCH  10  11
ENDBRANCH   8  10
ENDBRANCH   1   8
BRANCH   7  20
HETATM   20  N6  UNL     1      72.089  44.075  50.784  1.00  0.00    -0.280 N
ATOM     21  H6  UNL     1      71.073  44.051  50.865  1.00  0.00     0.188 HD
BRANCH  20  22
HETATM   22  N7  UNL     1      72.742  42.926  51.117  1.00  0.00    -0.223 N
HETATM   23  N8  UNL     1      73.075  42.030  50.315  1.00  0.00    -0.168 N
ATOM     24  H8  UNL     1      72.860  42.125  49.323  1.00  0.00     0.216 HD
ATOM     25  H7  UNL     1      72.977  42.789  52.100  1.00  0.00     0.210 HD
BRANCH  23  26
HETATM   26  N9  UNL     1      73.747  40.891  50.783  1.00  0.00    -0.022 N
HETATM   27  O2  UNL     1      74.971  40.889  50.851  1.00  0.00    -0.515 OA
HETATM   28  O3  UNL     1      73.044  39.794  51.158  1.00  0.00    -0.515 OA
ENDBRANCH  23  26
ENDBRANCH  20  22
ENDBRANCH   7  20
BRANCH   6  29
HETATM   29  O1  UNL     1      74.914  44.527  50.060  1.00  0.00    -0.358 OA
ATOM     30  H1  UNL     1      75.197  44.295  50.937  1.00  0.00     0.217 HD
ENDBRANCH   6  29
TORSDOF 9
ENDMDL