MODEL 2
REMARK VINA RESULT: -8.255045570      1.612      1.749
REMARK  11 active torsions:
REMARK  status: ('A' for Active; 'I' for Inactive)
REMARK    1  A    between atoms: C4_4  and  O1_5
REMARK    2  A    between atoms: O1_5  and  C5_6
REMARK       I    between atoms: C5_6  and  N1_8
REMARK    3  A    between atoms: N1_8  and  N2_10
REMARK    4  A    between atoms: N2_10  and  O3_11
REMARK    5  A    between atoms: N2_10  and  C6_13
REMARK    6  A    between atoms: C6_13  and  C7_14
REMARK    7  A    between atoms: C7_14  and  O4_15
REMARK    8  A    between atoms: C7_14  and  C8_17
REMARK    9  A    between atoms: C10_21  and  C11_22
REMARK   10  A    between atoms: C11_22  and  O5_23
REMARK   11  A    between atoms: N3_25  and  O6_27
ROOT
HETATM    1  O1  UNL     1      74.078  44.882  50.184  1.00  0.00    -0.297 OA
ENDROOT
BRANCH   1   2
HETATM    2  C4  UNL     1      74.080  43.651  50.878  1.00  0.00     0.139 C
HETATM    3  C3  UNL     1      74.826  43.747  52.186  1.00  0.00     0.064 C
HETATM    4  C2  UNL     1      75.152  42.423  52.789  1.00  0.00     0.121 C
HETATM    5  C1  UNL     1      73.993  41.965  53.674  1.00  0.00     0.040 C
HETATM    6  O7  UNL     1      75.469  41.422  51.958  1.00  0.00    -0.373 OA
HETATM    7  C10 UNL     1      75.135  41.412  50.659  1.00  0.00     0.200 C
HETATM    8  C9  UNL     1      74.761  42.662  49.980  1.00  0.00     0.073 C
BRANCH   7   9
HETATM    9  C11 UNL     1      74.144  40.292  50.392  1.00  0.00     0.165 C
HETATM   10  N3  UNL     1      72.892  40.477  50.614  1.00  0.00    -0.249 N
ATOM     11  H3  UNL     1      72.568  41.376  50.969  1.00  0.00     0.196 HD
BRANCH   9  12
HETATM   12  O5  UNL     1      74.551  39.059  49.910  1.00  0.00    -0.346 OA
ATOM     13  H5  UNL     1      74.744  38.921  48.990  1.00  0.00     0.219 HD
ENDBRANCH   9  12
BRANCH  10  14
HETATM   14  O6  UNL     1      71.997  39.481  50.378  1.00  0.00    -0.288 OA
ATOM     15  H6  UNL     1      71.743  38.887  51.074  1.00  0.00     0.244 HD
ENDBRANCH  10  14
ENDBRANCH   7   9
ENDBRANCH   1   2
BRANCH   1  16
HETATM   16  C5  UNL     1      73.132  45.863  50.254  1.00  0.00     0.377 C
HETATM   17  O2  UNL     1      72.653  46.118  51.384  1.00  0.00    -0.237 OA
HETATM   18  N1  UNL     1      72.670  46.603  49.138  1.00  0.00    -0.241 N
ATOM     19  H1  UNL     1      73.048  46.394  48.214  1.00  0.00     0.188 HD
BRANCH  18  20
HETATM   20  N2  UNL     1      71.738  47.582  49.265  1.00  0.00    -0.101 NA
BRANCH  20  21
HETATM   21  O3  UNL     1      70.627  47.176  49.944  1.00  0.00    -0.293 OA
ATOM     22  H3  UNL     1      70.318  46.320  49.672  1.00  0.00     0.239 HD
ENDBRANCH  20  21
BRANCH  20  23
HETATM   23  C6  UNL     1      72.136  48.853  49.741  1.00  0.00     0.183 C
BRANCH  23  24
HETATM   24  C7  UNL     1      73.207  49.497  48.939  1.00  0.00     0.200 C
BRANCH  24  25
HETATM   25  O4  UNL     1      73.201  50.873  48.954  1.00  0.00    -0.389 OA
ATOM     26  H4  UNL     1      73.292  51.285  48.103  1.00  0.00     0.210 HD
ENDBRANCH  24  25
BRANCH  24  27
HETATM   27  C8  UNL     1      74.549  49.049  49.513  1.00  0.00     0.382 C
HETATM   28  F1  UNL     1      75.440  48.778  48.505  1.00  0.00    -0.212 F
HETATM   29  F2  UNL     1      75.034  49.953  50.420  1.00  0.00    -0.212 F
ENDBRANCH  24  27
ENDBRANCH  23  24
ENDBRANCH  20  23
ENDBRANCH  18  20
ENDBRANCH   1  16
TORSDOF 11
ENDMDL