MODEL 3
REMARK VINA RESULT: -7.548802524      1.554      3.591
REMARK  9 active torsions:
REMARK  status: ('A' for Active; 'I' for Inactive)
REMARK    1  A    between atoms: O1_2  and  C2_3
REMARK    2  A    between atoms: C2_3  and  N2_7
REMARK    3  A    between atoms: N2_7  and  N3_9
REMARK    4  A    between atoms: C3_11  and  C4_12
REMARK    5  A    between atoms: C3_11  and  C6_15
REMARK    6  A    between atoms: C6_15  and  O3_16
REMARK    7  A    between atoms: C6_15  and  N4_18
REMARK    8  A    between atoms: N4_18  and  N5_19
REMARK       I    between atoms: N5_19  and  C7_21
REMARK    9  A    between atoms: C7_21  and  C8_23
ROOT
HETATM    1  C6  UNL     1      75.377  42.099  50.872  1.00  0.00     0.286 C
ENDROOT
BRANCH   1   2
HETATM    2  C3  UNL     1      74.462  41.037  51.333  1.00  0.00     0.117 C
HETATM    3  N3  UNL     1      73.949  40.928  52.492  1.00  0.00    -0.294 N
ATOM      4  H3  UNL     1      73.343  40.118  52.621  1.00  0.00     0.187 HD
BRANCH   3   5
HETATM    5  N2  UNL     1      74.085  41.731  53.592  1.00  0.00    -0.265 N
ATOM      6  H2  UNL     1      74.997  41.818  54.040  1.00  0.00     0.190 HD
BRANCH   5   7
HETATM    7  C2  UNL     1      72.976  42.444  54.120  1.00  0.00     0.231 C
HETATM    8  N1  UNL     1      72.478  43.476  53.513  1.00  0.00    -0.364 N
ATOM      9  H12 UNL     1      71.681  43.987  53.893  1.00  0.00     0.159 HD
ATOM     10  H11 UNL     1      72.930  43.741  52.637  1.00  0.00     0.159 HD
BRANCH   7  11
HETATM   11  O1  UNL     1      72.361  42.082  55.313  1.00  0.00    -0.326 OA
HETATM   12  C1  UNL     1      71.274  42.850  55.845  1.00  0.00     0.213 C
ENDBRANCH   7  11
ENDBRANCH   5   7
ENDBRANCH   3   5
BRANCH   2  13
HETATM   13  C4  UNL     1      74.116  39.989  50.347  1.00  0.00     0.173 C
HETATM   14  C5  UNL     1      72.718  39.676  50.013  1.00  0.00     0.098 C
HETATM   15  O2  UNL     1      75.046  39.370  49.798  1.00  0.00    -0.291 OA
ENDBRANCH   2  13
ENDBRANCH   1   2
BRANCH   1  16
HETATM   16  O3  UNL     1      75.080  42.303  49.512  1.00  0.00    -0.372 OA
ATOM     17  H3  UNL     1      75.609  41.677  49.032  1.00  0.00     0.212 HD
ENDBRANCH   1  16
BRANCH   1  18
HETATM   18  N4  UNL     1      75.234  43.346  51.609  1.00  0.00    -0.100 NA
BRANCH  18  19
HETATM   19  N5  UNL     1      74.698  44.328  50.732  1.00  0.00    -0.267 N
HETATM   20  C7  UNL     1      74.239  45.530  51.302  1.00  0.00     0.270 C
HETATM   21  O4  UNL     1      74.327  45.678  52.590  1.00  0.00    -0.266 OA
ATOM     22  H5  UNL     1      74.648  44.167  49.726  1.00  0.00     0.185 HD
BRANCH  20  23
HETATM   23  C8  UNL     1      73.660  46.662  50.604  1.00  0.00     0.072 A
HETATM   24  C9  UNL     1      74.500  47.693  50.166  1.00  0.00     0.023 A
HETATM   25  C10 UNL     1      74.026  48.808  49.512  1.00  0.00     0.043 A
HETATM   26  C11 UNL     1      72.687  48.976  49.251  1.00  0.00     0.119 A
HETATM   27  F1  UNL     1      72.234  50.086  48.604  1.00  0.00    -0.206 F
HETATM   28  C12 UNL     1      71.843  47.984  49.669  1.00  0.00     0.085 A
HETATM   29  C13 UNL     1      72.327  46.847  50.334  1.00  0.00     0.135 A
HETATM   30  F2  UNL     1      71.448  45.891  50.717  1.00  0.00    -0.205 F
ENDBRANCH  20  23
ENDBRANCH  18  19
ENDBRANCH   1  18
TORSDOF 9
ENDMDL