MODEL 3
REMARK VINA RESULT: -6.912932934      2.933      4.464
REMARK  7 active torsions:
REMARK  status: ('A' for Active; 'I' for Inactive)
REMARK       I    between atoms: C1_4  and  N3_6
REMARK    1  A    between atoms: N3_6  and  N4_8
REMARK    2  A    between atoms: N4_8  and  C2_10
REMARK    3  A    between atoms: C5_16  and  C6_17
REMARK    4  A    between atoms: C6_17  and  O2_18
REMARK    5  A    between atoms: O2_18  and  C7_19
REMARK    6  A    between atoms: C9_23  and  N6_24
REMARK    7  A    between atoms: C10_28  and  N7_29
ROOT
HETATM    1  C2  UNL     1      74.865  42.493  50.030  1.00  0.00     0.193 A
HETATM    2  O1  UNL     1      74.615  43.257  48.981  1.00  0.00    -0.218 OA
HETATM    3  N5  UNL     1      74.192  44.404  49.358  1.00  0.00    -0.260 N
ATOM      4  H5  UNL     1      73.931  45.164  48.729  1.00  0.00     0.194 HD
HETATM    5  C3  UNL     1      74.138  44.465  50.714  1.00  0.00     0.068 A
HETATM    6  C4  UNL     1      74.574  43.228  51.130  1.00  0.00     0.032 A
HETATM    7  C5  UNL     1      74.612  43.010  52.598  1.00  0.00     0.086 C
HETATM    8  C8  UNL     1      73.378  43.539  53.187  1.00  0.00     0.213 C
HETATM    9  F1  UNL     1      73.330  43.397  54.579  1.00  0.00    -0.246 F
HETATM   10  C9  UNL     1      73.161  45.019  52.889  1.00  0.00     0.246 C
HETATM   11  C10 UNL     1      73.747  45.531  51.652  1.00  0.00     0.167 C
ENDROOT
BRANCH   1  12
HETATM   12  N4  UNL     1      75.354  41.145  49.984  1.00  0.00    -0.275 N
ATOM     13  H4  UNL     1      76.341  40.969  50.171  1.00  0.00     0.189 HD
BRANCH  12  14
HETATM   14  N3  UNL     1      74.510  40.061  49.689  1.00  0.00    -0.272 N
HETATM   15  C1  UNL     1      73.524  39.592  50.565  1.00  0.00     0.200 C
HETATM   16  N1  UNL     1      73.842  39.020  51.681  1.00  0.00    -0.372 N
HETATM   17  N2  UNL     1      72.136  39.712  50.290  1.00  0.00    -0.062 NA
ATOM     18  H12 UNL     1      73.123  38.678  52.319  1.00  0.00     0.158 HD
ATOM     19  H11 UNL     1      74.839  38.933  51.879  1.00  0.00     0.158 HD
ATOM     20  H3  UNL     1      74.623  39.591  48.791  1.00  0.00     0.189 HD
ENDBRANCH  12  14
ENDBRANCH   1  12
BRANCH   7  21
HETATM   21  C6  UNL     1      74.990  41.659  53.052  1.00  0.00     0.190 C
BRANCH  21  22
HETATM   22  O2  UNL     1      74.214  40.952  53.882  1.00  0.00    -0.328 OA
BRANCH  22  23
HETATM   23  C7  UNL     1      74.249  40.320  55.054  1.00  0.00     0.398 C
HETATM   24  O3  UNL     1      75.052  39.433  55.325  1.00  0.00    -0.276 OA
ENDBRANCH  22  23
ENDBRANCH  21  22
ENDBRANCH   7  21
BRANCH  11  25
HETATM   25  N7  UNL     1      72.724  46.300  50.936  1.00  0.00    -0.378 N
HETATM   26  C11 UNL     1      72.939  47.395  50.362  1.00  0.00     0.169 C
HETATM   27 CL1  UNL     1      71.620  48.198  49.549  1.00  0.00    -0.079 Cl
ATOM     28  H7  UNL     1      71.778  45.921  50.902  1.00  0.00     0.160 HD
ENDBRANCH  11  25
BRANCH  10  29
HETATM   29  N6  UNL     1      71.752  45.315  52.966  1.00  0.00    -0.070 N
ATOM     30  H63 UNL     1      71.174  44.520  52.696  1.00  0.00     0.274 HD
ATOM     31  H62 UNL     1      71.428  45.408  53.929  1.00  0.00     0.274 HD
ATOM     32  H61 UNL     1      71.554  46.146  52.409  1.00  0.00     0.274 HD
ENDBRANCH  10  29
TORSDOF 7
ENDMDL