MODEL 4
REMARK VINA RESULT: -6.851117858      1.888      2.830
REMARK  9 active torsions:
REMARK  status: ('A' for Active; 'I' for Inactive)
REMARK    1  A    between atoms: C2_2  and  O1_3
REMARK    2  A    between atoms: O1_3  and  C3_4
REMARK    3  A    between atoms: C5_7  and  O3_8
REMARK    4  A    between atoms: C6_10  and  O4_11
REMARK    5  A    between atoms: C7_13  and  O5_14
REMARK    6  A    between atoms: C8_16  and  N1_17
REMARK    7  A    between atoms: C8_16  and  N2_21
REMARK    8  A    between atoms: N1_17  and  O6_19
REMARK    9  A    between atoms: N2_21  and  C9_23
ROOT
HETATM    1  C1  UNL     1      71.742  45.204  51.003  1.00  0.00     0.080 C
HETATM    2  C2  UNL     1      72.316  44.424  52.146  1.00  0.00     0.091 C
HETATM    3  C8  UNL     1      71.833  44.494  53.352  1.00  0.00     0.155 C
ENDROOT
BRANCH   2   4
HETATM    4  O1  UNL     1      73.389  43.620  51.869  1.00  0.00    -0.319 OA
BRANCH   4   5
HETATM    5  C3  UNL     1      73.395  42.646  50.844  1.00  0.00     0.297 C
HETATM    6  O2  UNL     1      73.167  41.407  51.402  1.00  0.00    -0.356 OA
HETATM    7  C4  UNL     1      72.959  40.511  50.365  1.00  0.00     0.205 C
HETATM    8  C5  UNL     1      74.129  40.321  49.472  1.00  0.00     0.173 C
HETATM    9  C6  UNL     1      74.947  41.532  49.214  1.00  0.00     0.182 C
HETATM   10  C7  UNL     1      74.726  42.664  50.173  1.00  0.00     0.205 C
BRANCH   8  11
HETATM   11  O3  UNL     1      74.953  39.325  50.032  1.00  0.00    -0.391 OA
ATOM     12  H3  UNL     1      74.927  38.564  49.464  1.00  0.00     0.210 HD
ENDBRANCH   8  11
BRANCH   9  13
HETATM   13  O4  UNL     1      74.624  42.007  47.933  1.00  0.00    -0.390 OA
ATOM     14  H4  UNL     1      74.068  42.769  48.036  1.00  0.00     0.210 HD
ENDBRANCH   9  13
BRANCH  10  15
HETATM   15  O5  UNL     1      75.711  42.649  51.163  1.00  0.00    -0.388 OA
ATOM     16  H5  UNL     1      76.252  43.421  51.051  1.00  0.00     0.210 HD
ENDBRANCH  10  15
ENDBRANCH   4   5
ENDBRANCH   2   4
BRANCH   3  17
HETATM   17  N1  UNL     1      72.419  43.733  54.396  1.00  0.00    -0.251 N
ATOM     18  H1  UNL     1      72.717  44.203  55.250  1.00  0.00     0.196 HD
BRANCH  17  19
HETATM   19  O6  UNL     1      72.587  42.415  54.282  1.00  0.00    -0.288 OA
ATOM     20  H6  UNL     1      72.510  41.841  55.035  1.00  0.00     0.244 HD
ENDBRANCH  17  19
ENDBRANCH   3  17
BRANCH   3  21
HETATM   21  N2  UNL     1      70.720  45.324  53.653  1.00  0.00    -0.337 N
ATOM     22  H2  UNL     1      70.856  46.325  53.790  1.00  0.00     0.168 HD
BRANCH  21  23
HETATM   23  C9  UNL     1      69.419  44.765  53.765  1.00  0.00     0.072 A
HETATM   24  C10 UNL     1      69.226  43.432  53.478  1.00  0.00     0.036 A
HETATM   25  C11 UNL     1      67.965  42.841  53.574  1.00  0.00     0.044 A
HETATM   26  C12 UNL     1      66.870  43.582  53.961  1.00  0.00     0.119 A
HETATM   27  F1  UNL     1      65.625  43.028  54.064  1.00  0.00    -0.206 F
HETATM   28  C13 UNL     1      67.055  44.912  54.249  1.00  0.00     0.086 A
HETATM   29  C14 UNL     1      68.320  45.501  54.152  1.00  0.00     0.145 A
HETATM   30  F2  UNL     1      68.481  46.817  54.440  1.00  0.00    -0.204 F
ENDBRANCH  21  23
ENDBRANCH   3  21
TORSDOF 9
ENDMDL