MODEL 2
REMARK VINA RESULT: -6.624110052      1.096      2.490
REMARK  11 active torsions:
REMARK  status: ('A' for Active; 'I' for Inactive)
REMARK    1  A    between atoms: C1_4  and  N2_5
REMARK    2  A    between atoms: C1_4  and  C9_25
REMARK    3  A    between atoms: N2_5  and  S1_7
REMARK    4  A    between atoms: S1_7  and  C2_8
REMARK    5  A    between atoms: C2_8  and  S2_9
REMARK    6  A    between atoms: S2_9  and  C3_10
REMARK    7  A    between atoms: C4_12  and  C5_13
REMARK    8  A    between atoms: C5_13  and  O2_14
REMARK    9  A    between atoms: C6_16  and  O3_17
REMARK   10  A    between atoms: C7_19  and  O4_20
REMARK   11  A    between atoms: C8_22  and  O5_23
ROOT
HETATM    1  C3  UNL     1      74.417  43.569  51.489  1.00  0.00     0.215 C
HETATM    2  O1  UNL     1      73.540  42.951  50.637  1.00  0.00    -0.363 OA
HETATM    3  C4  UNL     1      74.008  41.714  50.287  1.00  0.00     0.178 C
HETATM    4  C6  UNL     1      74.352  40.788  51.391  1.00  0.00     0.180 C
HETATM    5  C7  UNL     1      74.657  41.398  52.713  1.00  0.00     0.181 C
HETATM    6  C8  UNL     1      74.325  42.859  52.820  1.00  0.00     0.188 C
ENDROOT
BRANCH   1   7
HETATM    7  S2  UNL     1      73.973  45.324  51.769  1.00  0.00    -0.123 SA
BRANCH   7   8
HETATM    8  C2  UNL     1      72.394  45.599  50.935  1.00  0.00     0.174 C
BRANCH   8   9
HETATM    9  S1  UNL     1      72.411  46.955  49.790  1.00  0.00    -0.044 SA
BRANCH   9  10
HETATM   10  N2  UNL     1      73.865  47.095  48.849  1.00  0.00    -0.315 N
ATOM     11  H2  UNL     1      74.089  46.398  48.139  1.00  0.00     0.175 HD
BRANCH  10  12
HETATM   12  C1  UNL     1      74.732  48.183  49.077  1.00  0.00     0.147 C
HETATM   13  N1  UNL     1      75.843  48.280  48.451  1.00  0.00    -0.384 N
ATOM     14  H12 UNL     1      76.102  47.558  47.778  1.00  0.00     0.157 HD
ATOM     15  H11 UNL     1      76.470  49.066  48.615  1.00  0.00     0.157 HD
BRANCH  12  16
HETATM   16  C9  UNL     1      74.357  49.227  50.050  1.00  0.00     0.420 C
HETATM   17  F1  UNL     1      73.488  50.104  49.397  1.00  0.00    -0.206 F
HETATM   18  F2  UNL     1      75.482  49.939  50.470  1.00  0.00    -0.206 F
ENDBRANCH  12  16
ENDBRANCH  10  12
ENDBRANCH   9  10
ENDBRANCH   8   9
ENDBRANCH   7   8
ENDBRANCH   1   7
BRANCH   6  19
HETATM   19  O5  UNL     1      73.020  43.039  53.288  1.00  0.00    -0.389 OA
ATOM     20  H5  UNL     1      73.015  42.775  54.201  1.00  0.00     0.210 HD
ENDBRANCH   6  19
BRANCH   3  21
HETATM   21  C5  UNL     1      75.147  41.791  49.261  1.00  0.00     0.198 C
BRANCH  21  22
HETATM   22  O2  UNL     1      74.572  42.030  48.027  1.00  0.00    -0.398 OA
ATOM     23  H2  UNL     1      73.893  41.377  47.901  1.00  0.00     0.209 HD
ENDBRANCH  21  22
ENDBRANCH   3  21
BRANCH   5  24
HETATM   24  O4  UNL     1      74.000  40.746  53.756  1.00  0.00    -0.390 OA
ATOM     25  H4  UNL     1      74.077  41.216  54.577  1.00  0.00     0.210 HD
ENDBRANCH   5  24
BRANCH   4  26
HETATM   26  O3  UNL     1      73.319  39.843  51.588  1.00  0.00    -0.390 OA
ATOM     27  H3  UNL     1      72.503  40.158  51.218  1.00  0.00     0.210 HD
ENDBRANCH   4  26
TORSDOF 11
ENDMDL