MODEL 2
REMARK VINA RESULT: -6.923502042      1.547      1.662
REMARK  11 active torsions:
REMARK  status: ('A' for Active; 'I' for Inactive)
REMARK    1  A    between atoms: C1_2  and  C2_3
REMARK       I    between atoms: C1_2  and  N2_10
REMARK    2  A    between atoms: C2_3  and  O2_4
REMARK    3  A    between atoms: N1_6  and  O3_8
REMARK    4  A    between atoms: N2_10  and  O4_11
REMARK    5  A    between atoms: N2_10  and  C3_13
REMARK    6  A    between atoms: C4_14  and  C5_15
REMARK    7  A    between atoms: C4_14  and  C6_20
REMARK    8  A    between atoms: C5_15  and  O5_16
REMARK    9  A    between atoms: C5_15  and  O6_18
REMARK   10  A    between atoms: C9_23  and  S1_24
REMARK   11  A    between atoms: S1_24  and  C10_25
ROOT
HETATM    1  C3  UNL     1      74.544  44.663  50.605  1.00  0.00     0.135 C
HETATM    2  C4  UNL     1      73.489  45.560  51.020  1.00  0.00    -0.004 C
ENDROOT
BRANCH   2   3
HETATM    3  C5  UNL     1      72.438  45.826  49.921  1.00  0.00     0.286 C
BRANCH   3   4
HETATM    4  O5  UNL     1      71.810  47.033  50.066  1.00  0.00    -0.367 OA
ATOM      5  H5  UNL     1      70.920  47.029  49.732  1.00  0.00     0.213 HD
ENDBRANCH   3   4
BRANCH   3   6
HETATM    6  O6  UNL     1      73.149  45.840  48.727  1.00  0.00    -0.367 OA
ATOM      7  H6  UNL     1      72.585  45.414  48.092  1.00  0.00     0.213 HD
ENDBRANCH   3   6
ENDBRANCH   2   3
BRANCH   2   8
HETATM    8  C6  UNL     1      72.748  45.462  52.271  1.00  0.00     0.022 C
HETATM    9  C7  UNL     1      73.565  45.282  53.537  1.00  0.00     0.010 C
HETATM   10  C8  UNL     1      72.460  45.280  54.596  1.00  0.00     0.016 C
HETATM   11  C9  UNL     1      71.196  44.833  53.904  1.00  0.00     0.053 C
HETATM   12  C11 UNL     1      71.607  44.552  52.439  1.00  0.00     0.024 C
BRANCH  11  13
HETATM   13  S1  UNL     1      70.552  43.321  54.654  1.00  0.00    -0.096 SA
BRANCH  13  14
HETATM   14  C10 UNL     1      71.719  42.558  55.770  1.00  0.00     0.416 C
HETATM   15  F1  UNL     1      71.076  41.508  56.409  1.00  0.00    -0.203 F
HETATM   16  F2  UNL     1      72.780  42.063  55.048  1.00  0.00    -0.203 F
ENDBRANCH  13  14
ENDBRANCH  11  13
ENDBRANCH   2   8
BRANCH   1  17
HETATM   17  N2  UNL     1      74.342  43.344  50.164  1.00  0.00    -0.195 N
HETATM   18  C1  UNL     1      74.199  42.215  51.004  1.00  0.00     0.323 C
HETATM   19  O1  UNL     1      74.292  42.300  52.260  1.00  0.00    -0.261 OA
BRANCH  18  20
HETATM   20  C2  UNL     1      73.931  40.869  50.488  1.00  0.00     0.232 C
HETATM   21  N1  UNL     1      72.735  40.381  50.490  1.00  0.00    -0.243 N
ATOM     22  H1  UNL     1      71.974  40.952  50.858  1.00  0.00     0.196 HD
BRANCH  20  23
HETATM   23  O2  UNL     1      74.948  40.082  49.984  1.00  0.00    -0.341 OA
ATOM     24  H2  UNL     1      75.204  40.135  49.071  1.00  0.00     0.219 HD
ENDBRANCH  20  23
BRANCH  21  25
HETATM   25  O3  UNL     1      72.452  39.144  50.022  1.00  0.00    -0.288 OA
ATOM     26  H3  UNL     1      72.331  38.962  49.097  1.00  0.00     0.244 HD
ENDBRANCH  21  25
ENDBRANCH  18  20
BRANCH  17  27
HETATM   27  O4  UNL     1      74.248  43.051  48.810  1.00  0.00    -0.280 OA
ATOM     28  H4  UNL     1      73.762  43.697  48.310  1.00  0.00     0.245 HD
ENDBRANCH  17  27
ENDBRANCH   1  17
TORSDOF 11
ENDMDL