MODEL 1
REMARK VINA RESULT: -8.099781515      0.000      0.000
REMARK  9 active torsions:
REMARK  status: ('A' for Active; 'I' for Inactive)
REMARK    1  A    between atoms: C4_4  and  N1_5
REMARK    2  A    between atoms: N1_5  and  N2_7
REMARK    3  A    between atoms: C5_9  and  C6_10
REMARK    4  A    between atoms: C9_16  and  N5_17
REMARK    5  A    between atoms: N5_17  and  C10_19
REMARK    6  A    between atoms: C10_19  and  C11_20
REMARK    7  A    between atoms: C11_20  and  C12_21
REMARK    8  A    between atoms: C12_21  and  C13_22
REMARK    9  A    between atoms: C13_22  and  C14_23
ROOT
HETATM    1  C6  UNL     1      50.895  55.048  20.280  1.00  0.00     0.029 C
HETATM    2  C7  UNL     1      51.068  56.271  20.740  1.00  0.00     0.095 C
HETATM    3  C8  UNL     1      52.293  56.632  21.379  1.00  0.00     0.087 C
HETATM    4  N3  UNL     1      53.297  56.927  21.883  1.00  0.00    -0.192 NA
ENDROOT
BRANCH   1   5
HETATM    5  C5  UNL     1      49.639  54.691  19.629  1.00  0.00     0.108 C
HETATM    6  N2  UNL     1      49.504  53.541  19.105  1.00  0.00    -0.310 N
ATOM      7  H2  UNL     1      48.619  53.308  18.655  1.00  0.00     0.186 HD
BRANCH   6   8
HETATM    8  N1  UNL     1      50.520  52.583  19.123  1.00  0.00    -0.285 N
ATOM      9  H1  UNL     1      51.500  52.856  19.190  1.00  0.00     0.188 HD
BRANCH   8  10
HETATM   10  C4  UNL     1      50.176  51.335  19.051  1.00  0.00     0.137 A
HETATM   11  C3  UNL     1      50.217  50.519  20.172  1.00  0.00     0.075 A
HETATM   12  C2  UNL     1      49.849  49.181  20.101  1.00  0.00     0.026 A
HETATM   13  C1  UNL     1      49.910  48.354  21.323  1.00  0.00     0.069 C
HETATM   14  N6  UNL     1      49.450  48.684  18.927  1.00  0.00    -0.196 N
HETATM   15  C9  UNL     1      49.406  49.478  17.817  1.00  0.00     0.679 A
ATOM     16  H6  UNL     1      49.175  47.704  18.858  1.00  0.00     0.184 HD
HETATM   17  N4  UNL     1      49.762  50.765  17.898  1.00  0.00    -0.175 N
ATOM     18  H4  UNL     1      49.720  51.338  17.055  1.00  0.00     0.186 HD
BRANCH  15  19
HETATM   19  N5  UNL     1      49.006  48.900  16.739  1.00  0.00    -0.226 N
ATOM     20  H5  UNL     1      48.418  48.068  16.797  1.00  0.00     0.177 HD
BRANCH  19  21
HETATM   21  C10 UNL     1      49.389  49.428  15.437  1.00  0.00     0.138 C
BRANCH  21  22
HETATM   22  C11 UNL     1      48.370  48.943  14.409  1.00  0.00     0.020 C
BRANCH  22  23
HETATM   23  C12 UNL     1      47.006  49.312  14.809  1.00  0.00     0.004 C
BRANCH  23  24
HETATM   24  C13 UNL     1      45.957  48.290  14.992  1.00  0.00     0.032 C
BRANCH  24  25
HETATM   25  C14 UNL     1      45.414  47.990  16.323  1.00  0.00     0.121 C
HETATM   26  C15 UNL     1      44.183  47.172  16.461  1.00  0.00     0.032 C
HETATM   27  C16 UNL     1      43.666  47.211  17.911  1.00  0.00     0.004 C
HETATM   28  C17 UNL     1      44.789  46.740  18.781  1.00  0.00     0.026 C
HETATM   29  C18 UNL     1      46.016  47.589  18.514  1.00  0.00     0.168 C
HETATM   30  O1  UNL     1      46.421  47.535  17.207  1.00  0.00    -0.386 OA
ENDBRANCH  24  25
ENDBRANCH  23  24
ENDBRANCH  22  23
ENDBRANCH  21  22
ENDBRANCH  19  21
ENDBRANCH  15  19
ENDBRANCH   8  10
ENDBRANCH   6   8
ENDBRANCH   1   5
TORSDOF 9
ENDMDL