MODEL 5
REMARK VINA RESULT: -8.103599544      3.040      7.921
REMARK  8 active torsions:
REMARK  status: ('A' for Active; 'I' for Inactive)
REMARK    1  A    between atoms: N1_2  and  C2_4
REMARK    2  A    between atoms: C3_7  and  C4_8
REMARK    3  A    between atoms: C4_8  and  S1_9
REMARK    4  A    between atoms: S1_9  and  C5_10
REMARK    5  A    between atoms: C5_10  and  C6_11
REMARK    6  A    between atoms: C6_11  and  C7_12
REMARK    7  A    between atoms: C14_19  and  N3_20
REMARK    8  A    between atoms: C15_22  and  C16_23
ROOT
HETATM    1  C16 UNL     1      51.586  55.614  20.279  1.00  0.00     0.168 C
HETATM    2  C17 UNL     1      52.536  56.583  20.879  1.00  0.00     0.064 C
HETATM    3  N4  UNL     1      53.284  57.315  21.345  1.00  0.00    -0.197 NA
ENDROOT
BRANCH   1   4
HETATM    4  C15 UNL     1      50.559  55.294  21.356  1.00  0.00     0.076 C
HETATM    5  N3  UNL     1      50.015  54.045  21.344  1.00  0.00    -0.355 N
ATOM      6  H3  UNL     1      49.402  54.014  22.159  1.00  0.00     0.166 HD
BRANCH   5   7
HETATM    7  C14 UNL     1      49.909  52.931  20.819  1.00  0.00     0.122 A
HETATM    8  C13 UNL     1      49.309  52.819  19.533  1.00  0.00     0.075 A
HETATM    9  C3  UNL     1      49.200  51.585  18.971  1.00  0.00     0.039 A
HETATM   10  N2  UNL     1      49.641  50.471  19.592  1.00  0.00    -0.195 N
HETATM   11  C2  UNL     1      50.202  50.613  20.803  1.00  0.00     0.679 A
ATOM     12  H2  UNL     1      49.552  49.553  19.156  1.00  0.00     0.184 HD
HETATM   13  N5  UNL     1      50.342  51.813  21.422  1.00  0.00    -0.177 N
ATOM     14  H5  UNL     1      50.776  51.864  22.345  1.00  0.00     0.186 HD
BRANCH   9  15
HETATM   15  C4  UNL     1      48.565  51.481  17.624  1.00  0.00     0.131 C
BRANCH  15  16
HETATM   16  S1  UNL     1      49.421  50.162  16.731  1.00  0.00    -0.163 SA
BRANCH  16  17
HETATM   17  C5  UNL     1      48.367  48.725  16.477  1.00  0.00     0.074 C
BRANCH  17  18
HETATM   18  C6  UNL     1      46.964  49.215  16.206  1.00  0.00     0.015 C
BRANCH  18  19
HETATM   19  C7  UNL     1      45.983  48.835  17.296  1.00  0.00    -0.014 C
HETATM   20  C8  UNL     1      46.706  47.943  18.264  1.00  0.00     0.005 C
HETATM   21  C9  UNL     1      45.795  47.116  19.121  1.00  0.00     0.000 C
HETATM   22  C10 UNL     1      44.702  46.438  18.350  1.00  0.00     0.000 C
HETATM   23  C11 UNL     1      43.888  47.518  17.668  1.00  0.00     0.000 C
HETATM   24  C12 UNL     1      44.809  48.156  16.638  1.00  0.00     0.005 C
ENDBRANCH  18  19
ENDBRANCH  17  18
ENDBRANCH  16  17
ENDBRANCH  15  16
ENDBRANCH   9  15
BRANCH  11  25
HETATM   25  N1  UNL     1      50.647  49.578  21.455  1.00  0.00    -0.230 N
HETATM   26  C1  UNL     1      50.008  48.267  21.301  1.00  0.00     0.165 C
ATOM     27  H1  UNL     1      51.448  49.680  22.079  1.00  0.00     0.177 HD
ENDBRANCH  11  25
ENDBRANCH   5   7
ENDBRANCH   1   4
TORSDOF 8
ENDMDL