MODEL 2
REMARK VINA RESULT: -8.328354915      1.535      1.803
REMARK  8 active torsions:
REMARK  status: ('A' for Active; 'I' for Inactive)
REMARK    1  A    between atoms: C1_2  and  C2_4
REMARK    2  A    between atoms: C4_8  and  C5_9
REMARK    3  A    between atoms: C5_9  and  O4_11
REMARK    4  A    between atoms: O4_11  and  C6_12
REMARK    5  A    between atoms: C6_12  and  C7_13
REMARK    6  A    between atoms: C7_13  and  C8_14
REMARK    7  A    between atoms: C8_14  and  C9_15
REMARK    8  A    between atoms: C9_15  and  C10_16
ROOT
HETATM    1  C6  UNL     1      50.101  51.764  21.866  1.00  0.00     0.179 C
ENDROOT
BRANCH   1   2
HETATM    2  O4  UNL     1      50.947  50.975  21.229  1.00  0.00    -0.317 OA
BRANCH   2   3
HETATM    3  C5  UNL     1      51.151  49.972  20.369  1.00  0.00     0.305 C
HETATM    4  O3  UNL     1      52.307  49.500  20.308  1.00  0.00    -0.258 OA
BRANCH   3   5
HETATM    5  C4  UNL     1      50.086  49.445  19.518  1.00  0.00     0.082 C
HETATM    6  N1  UNL     1      49.363  50.396  18.734  1.00  0.00    -0.387 N
HETATM    7  C3  UNL     1      48.407  49.596  17.978  1.00  0.00     0.135 C
ATOM      8  H1  UNL     1      49.488  51.409  18.709  1.00  0.00     0.159 HD
HETATM    9  C2  UNL     1      48.545  48.158  18.428  1.00  0.00     0.110 C
HETATM   10  C18 UNL     1      49.146  48.373  19.859  1.00  0.00     0.080 C
BRANCH   9  11
HETATM   11  C1  UNL     1      47.343  47.380  18.427  1.00  0.00     0.178 C
HETATM   12  O1  UNL     1      47.434  46.292  17.685  1.00  0.00    -0.648 OA
HETATM   13  O2  UNL     1      46.179  47.626  19.075  1.00  0.00    -0.648 OA
ENDBRANCH   9  11
ENDBRANCH   3   5
ENDBRANCH   2   3
ENDBRANCH   1   2
BRANCH   1  14
HETATM   14  C7  UNL     1      50.297  53.275  21.698  1.00  0.00     0.027 C
BRANCH  14  15
HETATM   15  C8  UNL     1      49.896  53.801  20.399  1.00  0.00     0.004 C
BRANCH  15  16
HETATM   16  C9  UNL     1      48.487  53.995  19.968  1.00  0.00     0.032 C
BRANCH  16  17
HETATM   17  C10 UNL     1      48.379  55.434  19.415  1.00  0.00     0.122 C
HETATM   18  C11 UNL     1      48.835  56.372  20.521  1.00  0.00     0.035 C
HETATM   19  C12 UNL     1      47.423  56.882  20.928  1.00  0.00     0.040 C
HETATM   20  C13 UNL     1      46.713  56.862  19.619  1.00  0.00     0.061 C
HETATM   21  C14 UNL     1      45.261  56.482  19.780  1.00  0.00     0.038 C
HETATM   22  C17 UNL     1      46.752  58.175  18.925  1.00  0.00     0.038 C
HETATM   23  O5  UNL     1      47.269  55.823  18.857  1.00  0.00    -0.375 OA
HETATM   24  C15 UNL     1      44.481  57.702  19.369  1.00  0.00     0.003 C
HETATM   25  C16 UNL     1      45.373  58.379  18.352  1.00  0.00     0.003 C
ENDBRANCH  16  17
ENDBRANCH  15  16
ENDBRANCH  14  15
ENDBRANCH   1  14
TORSDOF 8
ENDMDL