MODEL 1
REMARK VINA RESULT: -8.723921166      0.000      0.000
REMARK  7 active torsions:
REMARK  status: ('A' for Active; 'I' for Inactive)
REMARK    1  A    between atoms: C2_2  and  C5_5
REMARK    2  A    between atoms: C9_11  and  C10_12
REMARK    3  A    between atoms: C10_12  and  C11_13
REMARK    4  A    between atoms: C11_13  and  C12_14
REMARK    5  A    between atoms: C12_14  and  C13_15
REMARK    6  A    between atoms: N4_21  and  C15_23
REMARK    7  A    between atoms: C15_23  and  C16_24
ROOT
HETATM    1  C12 UNL     1      49.894  49.078  19.711  1.00  0.00     0.066 C
ENDROOT
BRANCH   1   2
HETATM    2  C11 UNL     1      48.666  49.051  18.867  1.00  0.00     0.007 C
BRANCH   2   3
HETATM    3  C10 UNL     1      47.951  47.717  18.850  1.00  0.00     0.005 C
BRANCH   3   4
HETATM    4  C9  UNL     1      46.524  47.826  18.403  1.00  0.00    -0.007 C
HETATM    5  C5  UNL     1      46.239  48.660  17.225  1.00  0.00     0.014 C
HETATM    6  C6  UNL     1      44.730  48.926  17.269  1.00  0.00     0.119 C
HETATM    7  N1  UNL     1      43.946  47.744  17.414  1.00  0.00    -0.421 N
HETATM    8  C7  UNL     1      44.303  46.863  18.469  1.00  0.00     0.114 C
ATOM      9  H1  UNL     1      43.166  47.540  16.788  1.00  0.00     0.153 HD
HETATM   10  C8  UNL     1      45.795  46.498  18.411  1.00  0.00     0.024 C
BRANCH   5  11
HETATM   11  C2  UNL     1      46.668  48.373  15.879  1.00  0.00    -0.046 C
HETATM   12  C1  UNL     1      46.891  49.751  15.201  1.00  0.00     0.015 C
HETATM   13  C3  UNL     1      45.703  47.687  14.939  1.00  0.00     0.015 C
HETATM   14  C4  UNL     1      47.984  47.674  15.685  1.00  0.00     0.015 C
ENDBRANCH   5  11
ENDBRANCH   3   4
ENDBRANCH   2   3
ENDBRANCH   1   2
BRANCH   1  15
HETATM   15  C13 UNL     1      50.052  50.361  20.460  1.00  0.00     0.069 A
HETATM   16  N2  UNL     1      50.367  50.529  21.728  1.00  0.00    -0.296 N
HETATM   17  N3  UNL     1      50.465  51.690  22.225  1.00  0.00    -0.279 N
ATOM     18  H2  UNL     1      50.534  49.714  22.318  1.00  0.00     0.187 HD
HETATM   19  C14 UNL     1      50.246  52.746  21.442  1.00  0.00     0.161 A
ATOM     20  H3  UNL     1      50.709  51.815  23.208  1.00  0.00     0.189 HD
HETATM   21  N4  UNL     1      50.296  54.017  21.760  1.00  0.00    -0.369 N
HETATM   22  S1  UNL     1      49.887  51.993  19.944  1.00  0.00    -0.038 SA
ATOM     23  H4  UNL     1      50.529  54.291  22.714  1.00  0.00     0.161 HD
BRANCH  21  24
HETATM   24  C15 UNL     1      50.023  55.036  20.761  1.00  0.00     0.126 C
BRANCH  24  25
HETATM   25  C16 UNL     1      48.683  55.691  20.963  1.00  0.00     0.003 A
HETATM   26  C17 UNL     1      48.632  57.023  21.656  1.00  0.00     0.007 A
HETATM   27  C18 UNL     1      48.314  56.915  20.208  1.00  0.00     0.007 A
ENDBRANCH  24  25
ENDBRANCH  21  24
ENDBRANCH   1  15
TORSDOF 7
ENDMDL