MODEL 5
REMARK VINA RESULT: -6.544308121      2.279      6.341
REMARK  8 active torsions:
REMARK  status: ('A' for Active; 'I' for Inactive)
REMARK    1  A    between atoms: C2_2  and  N1_3
REMARK    2  A    between atoms: N1_3  and  C3_5
REMARK    3  A    between atoms: C3_5  and  C6_9
REMARK    4  A    between atoms: C6_9  and  C12_16
REMARK    5  A    between atoms: C7_10  and  C8_11
REMARK    6  A    between atoms: C8_11  and  C9_12
REMARK       I    between atoms: C12_16  and  N3_18
REMARK       I    between atoms: N3_18  and  C13_20
REMARK    7  A    between atoms: C13_20  and  O4_22
REMARK    8  A    between atoms: O4_22  and  C14_23
ROOT
HETATM    1  C3  UNL     1      45.203  46.448  17.460  1.00  0.00     0.145 C
HETATM    2  C4  UNL     1      46.602  45.769  17.093  1.00  0.00     0.060 C
HETATM    3  C5  UNL     1      44.376  46.182  16.306  1.00  0.00     0.095 C
HETATM    4  N2  UNL     1      43.734  45.950  15.373  1.00  0.00    -0.194 NA
ENDROOT
BRANCH   1   5
HETATM    5  N1  UNL     1      44.757  45.726  18.600  1.00  0.00    -0.398 N
ATOM      6  H1  UNL     1      45.310  44.959  18.981  1.00  0.00     0.155 HD
BRANCH   5   7
HETATM    7  C2  UNL     1      43.531  46.096  19.194  1.00  0.00     0.111 C
HETATM    8  C1  UNL     1      43.629  45.700  20.681  1.00  0.00     0.026 C
ENDBRANCH   5   7
ENDBRANCH   1   5
BRANCH   1   9
HETATM    9  C6  UNL     1      45.553  47.845  17.735  1.00  0.00     0.051 C
HETATM   10  C7  UNL     1      45.608  48.930  16.782  1.00  0.00     0.029 C
BRANCH  10  11
HETATM   11  C8  UNL     1      46.427  49.055  15.585  1.00  0.00     0.100 A
HETATM   12  C11 UNL     1      45.860  48.503  14.257  1.00  0.00     0.211 A
HETATM   13  O1  UNL     1      47.017  48.090  14.855  1.00  0.00    -0.371 OA
BRANCH  11  14
HETATM   14  C9  UNL     1      46.805  50.557  15.238  1.00  0.00     0.040 C
HETATM   15  C10 UNL     1      46.273  51.459  16.311  1.00  0.00     0.008 C
ENDBRANCH  11  14
ENDBRANCH  10  11
BRANCH   9  16
HETATM   16  C12 UNL     1      46.757  47.900  18.682  1.00  0.00     0.259 C
HETATM   17  O2  UNL     1      46.786  47.256  19.743  1.00  0.00    -0.267 OA
HETATM   18  N3  UNL     1      47.872  48.698  18.353  1.00  0.00    -0.269 N
HETATM   19  C13 UNL     1      49.024  48.767  19.214  1.00  0.00     0.368 C
ATOM     20  H3  UNL     1      47.862  49.237  17.488  1.00  0.00     0.174 HD
HETATM   21  O3  UNL     1      49.077  48.116  20.293  1.00  0.00    -0.238 OA
BRANCH  19  22
HETATM   22  O4  UNL     1      50.126  49.544  18.905  1.00  0.00    -0.294 OA
BRANCH  22  23
HETATM   23  C14 UNL     1      50.236  50.872  19.313  1.00  0.00     0.061 C
HETATM   24  C15 UNL     1      51.500  51.523  18.785  1.00  0.00     0.046 C
HETATM   25  C16 UNL     1      49.061  51.643  18.696  1.00  0.00     0.046 C
HETATM   26  C17 UNL     1      50.177  51.091  20.787  1.00  0.00     0.046 C
ENDBRANCH  22  23
ENDBRANCH  19  22
ENDBRANCH   9  16
ENDBRANCH   1   9
TORSDOF 8
ENDMDL