MODEL 5
REMARK VINA RESULT: -8.168511527      1.533      2.064
REMARK  8 active torsions:
REMARK  status: ('A' for Active; 'I' for Inactive)
REMARK    1  A    between atoms: C2_2  and  C3_3
REMARK       I    between atoms: C3_3  and  N1_5
REMARK    2  A    between atoms: C4_7  and  C5_8
REMARK    3  A    between atoms: C4_7  and  N5_20
REMARK    4  A    between atoms: C5_8  and  C6_9
REMARK    5  A    between atoms: C6_9  and  C7_10
REMARK    6  A    between atoms: C7_10  and  S1_11
REMARK    7  A    between atoms: S1_11  and  C8_12
REMARK    8  A    between atoms: N5_20  and  C10_22
ROOT
HETATM    1  C10 UNL     1      48.448  49.447  16.673  1.00  0.00     0.120 C
HETATM    2  C11 UNL     1      47.595  50.508  16.142  1.00  0.00     0.091 C
HETATM    3  N6  UNL     1      46.921  51.326  15.726  1.00  0.00    -0.195 NA
HETATM    4  C12 UNL     1      48.394  48.206  15.811  1.00  0.00     0.046 C
HETATM    5  C13 UNL     1      46.991  47.701  16.089  1.00  0.00     0.004 C
HETATM    6  C14 UNL     1      46.608  48.219  17.454  1.00  0.00     0.004 C
HETATM    7  C15 UNL     1      47.854  48.946  17.972  1.00  0.00     0.046 C
ENDROOT
BRANCH   1   8
HETATM    8  N5  UNL     1      49.785  49.913  16.905  1.00  0.00    -0.358 N
ATOM      9  H5  UNL     1      50.370  50.115  16.094  1.00  0.00     0.162 HD
BRANCH   8  10
HETATM   10  C4  UNL     1      50.342  50.110  18.192  1.00  0.00     0.080 C
HETATM   11  N1  UNL     1      50.697  49.092  18.872  1.00  0.00    -0.317 N
HETATM   12  C3  UNL     1      51.256  49.275  20.161  1.00  0.00     0.222 C
ATOM     13  H1  UNL     1      50.579  48.153  18.490  1.00  0.00     0.170 HD
HETATM   14  O1  UNL     1      52.477  49.503  20.317  1.00  0.00    -0.273 OA
BRANCH  12  15
HETATM   15  C2  UNL     1      50.384  49.197  21.354  1.00  0.00     0.098 C
HETATM   16  C1  UNL     1      49.487  47.999  21.230  1.00  0.00     0.014 C
ENDBRANCH  12  15
BRANCH  10  17
HETATM   17  C5  UNL     1      50.512  51.466  18.739  1.00  0.00     0.077 C
BRANCH  17  18
HETATM   18  C6  UNL     1      49.178  52.114  19.066  1.00  0.00     0.018 C
BRANCH  18  19
HETATM   19  C7  UNL     1      49.275  52.771  20.425  1.00  0.00     0.081 C
BRANCH  19  20
HETATM   20  S1  UNL     1      50.301  54.275  20.340  1.00  0.00    -0.110 SA
BRANCH  20  21
HETATM   21  C8  UNL     1      49.458  55.644  21.096  1.00  0.00     0.102 A
HETATM   22  C9  UNL     1      48.230  56.203  20.768  1.00  0.00     0.146 A
HETATM   23  N2  UNL     1      47.999  57.215  21.609  1.00  0.00    -0.295 N
HETATM   24  N3  UNL     1      49.020  57.301  22.431  1.00  0.00    -0.242 N
ATOM     25  H2  UNL     1      47.174  57.816  21.613  1.00  0.00     0.187 HD
HETATM   26  N4  UNL     1      49.910  56.358  22.132  1.00  0.00    -0.279 N
ATOM     27  H3  UNL     1      49.117  57.986  23.181  1.00  0.00     0.208 HD
ATOM     28  H4  UNL     1      50.794  56.205  22.617  1.00  0.00     0.189 HD
ENDBRANCH  20  21
ENDBRANCH  19  20
ENDBRANCH  18  19
ENDBRANCH  17  18
ENDBRANCH  10  17
ENDBRANCH   8  10
ENDBRANCH   1   8
TORSDOF 8
ENDMDL