MODEL 5
REMARK VINA RESULT: -7.934922186      0.355      1.815
REMARK  11 active torsions:
REMARK  status: ('A' for Active; 'I' for Inactive)
REMARK    1  A    between atoms: C2_2  and  C3_3
REMARK    2  A    between atoms: C3_3  and  N1_4
REMARK    3  A    between atoms: N1_4  and  C4_5
REMARK    4  A    between atoms: N1_4  and  C6_7
REMARK    5  A    between atoms: C6_7  and  C7_8
REMARK    6  A    between atoms: C8_11  and  N3_12
REMARK    7  A    between atoms: N3_12  and  C9_14
REMARK    8  A    between atoms: C9_14  and  O1_15
REMARK    9  A    between atoms: C9_14  and  C10_17
REMARK   10  A    between atoms: C10_17  and  C11_18
REMARK   11  A    between atoms: C11_18  and  C13_20
ROOT
HETATM    1  C7  UNL     1      50.762  50.172  19.064  1.00  0.00     0.218 C
HETATM    2  N2  UNL     1      50.744  51.618  19.374  1.00  0.00    -0.209 N
ATOM      3  H2  UNL     1      51.002  52.321  18.681  1.00  0.00     0.178 HD
HETATM    4  C8  UNL     1      50.353  51.969  20.667  1.00  0.00     0.701 C
HETATM    5  N4  UNL     1      50.591  51.129  21.660  1.00  0.00    -0.088 N
ATOM      6  H4  UNL     1      50.306  51.388  22.604  1.00  0.00     0.214 HD
HETATM    7  O2  UNL     1      51.210  49.921  21.464  1.00  0.00    -0.183 OA
HETATM    8  C17 UNL     1      51.594  49.575  20.181  1.00  0.00     0.306 C
HETATM    9  O3  UNL     1      52.568  48.815  19.954  1.00  0.00    -0.261 OA
ENDROOT
BRANCH   4  10
HETATM   10  N3  UNL     1      49.719  53.181  21.007  1.00  0.00    -0.169 N
ATOM     11  H3  UNL     1      49.496  53.345  21.988  1.00  0.00     0.186 HD
BRANCH  10  12
HETATM   12  C9  UNL     1      49.383  54.156  20.096  1.00  0.00     0.155 C
BRANCH  12  13
HETATM   13  O1  UNL     1      50.294  54.572  19.238  1.00  0.00    -0.346 OA
ATOM     14  H1  UNL     1      50.140  54.452  18.308  1.00  0.00     0.219 HD
ENDBRANCH  12  13
BRANCH  12  15
HETATM   15  C10 UNL     1      48.141  54.830  19.918  1.00  0.00     0.059 C
BRANCH  15  16
HETATM   16  C11 UNL     1      47.752  56.004  20.244  1.00  0.00    -0.072 C
HETATM   17  C12 UNL     1      48.210  56.806  21.405  1.00  0.00     0.044 C
BRANCH  16  18
HETATM   18  C13 UNL     1      46.709  56.700  19.387  1.00  0.00    -0.028 C
HETATM   19  C14 UNL     1      47.161  58.139  19.270  1.00  0.00     0.019 C
HETATM   20  C15 UNL     1      45.352  56.680  19.976  1.00  0.00     0.019 C
HETATM   21  C16 UNL     1      46.786  55.995  18.046  1.00  0.00     0.019 C
ENDBRANCH  16  18
ENDBRANCH  15  16
ENDBRANCH  12  15
ENDBRANCH  10  12
ENDBRANCH   4  10
BRANCH   1  22
HETATM   22  C6  UNL     1      49.398  49.605  19.099  1.00  0.00     0.153 C
BRANCH  22  23
HETATM   23  N1  UNL     1      48.842  49.141  17.882  1.00  0.00    -0.410 N
BRANCH  23  24
HETATM   24  C3  UNL     1      49.407  49.690  16.700  1.00  0.00     0.116 C
BRANCH  24  25
HETATM   25  C2  UNL     1      48.733  49.115  15.493  1.00  0.00     0.015 C
HETATM   26  C1  UNL     1      49.724  48.726  14.413  1.00  0.00     0.006 C
ENDBRANCH  24  25
ENDBRANCH  23  24
BRANCH  23  27
HETATM   27  C4  UNL     1      47.466  48.840  17.852  1.00  0.00     0.112 C
HETATM   28  C5  UNL     1      47.091  47.659  18.754  1.00  0.00     0.026 C
ENDBRANCH  23  27
ENDBRANCH  22  23
ENDBRANCH   1  22
TORSDOF 11
ENDMDL