MODEL 3
REMARK VINA RESULT: -8.234949465      1.125      1.361
REMARK  11 active torsions:
REMARK  status: ('A' for Active; 'I' for Inactive)
REMARK    1  A    between atoms: N1_2  and  C2_3
REMARK    2  A    between atoms: N1_2  and  C8_9
REMARK    3  A    between atoms: C2_3  and  C3_4
REMARK    4  A    between atoms: C8_9  and  O1_10
REMARK    5  A    between atoms: C8_9  and  C9_12
REMARK    6  A    between atoms: C9_12  and  C10_13
REMARK    7  A    between atoms: N3_18  and  C14_19
REMARK    8  A    between atoms: C14_19  and  C15_20
REMARK    9  A    between atoms: C15_20  and  C16_21
REMARK   10  A    between atoms: C16_21  and  O2_22
REMARK   11  A    between atoms: N4_24  and  O3_26
ROOT
HETATM    1  C10 UNL     1      49.869  51.306  20.669  1.00  0.00     0.143 C
HETATM    2  C11 UNL     1      51.092  50.473  20.548  1.00  0.00     0.060 C
HETATM    3  N2  UNL     1      52.058  49.841  20.452  1.00  0.00    -0.197 NA
ENDROOT
BRANCH   1   4
HETATM    4  C9  UNL     1      49.583  52.097  19.437  1.00  0.00     0.054 C
HETATM    5  C12 UNL     1      48.511  53.129  19.913  1.00  0.00     0.040 C
HETATM    6  C13 UNL     1      48.934  54.418  19.297  1.00  0.00     0.123 C
HETATM    7  N3  UNL     1      50.332  54.355  19.110  1.00  0.00    -0.392 N
HETATM    8  C17 UNL     1      50.732  52.981  19.106  1.00  0.00     0.140 C
BRANCH   4   9
HETATM    9  C8  UNL     1      49.087  51.396  18.267  1.00  0.00     0.124 C
BRANCH   9  10
HETATM   10  N1  UNL     1      49.323  50.208  17.617  1.00  0.00    -0.369 N
HETATM   11  C1  UNL     1      50.394  50.296  16.541  1.00  0.00     0.151 C
BRANCH  10  12
HETATM   12  C2  UNL     1      48.732  48.938  17.810  1.00  0.00     0.128 C
BRANCH  12  13
HETATM   13  C3  UNL     1      47.284  48.806  18.047  1.00  0.00     0.004 C
HETATM   14  C4  UNL     1      46.375  48.897  16.884  1.00  0.00     0.006 C
HETATM   15  C5  UNL     1      45.076  48.320  17.402  1.00  0.00     0.000 C
HETATM   16  C6  UNL     1      45.474  47.375  18.518  1.00  0.00     0.000 C
HETATM   17  C7  UNL     1      46.995  47.356  18.507  1.00  0.00     0.006 C
ENDBRANCH  12  13
ENDBRANCH  10  12
ENDBRANCH   9  10
BRANCH   9  18
HETATM   18  O1  UNL     1      48.131  52.117  17.654  1.00  0.00    -0.349 OA
ATOM     19  H1  UNL     1      47.283  51.695  17.710  1.00  0.00     0.219 HD
ENDBRANCH   9  18
ENDBRANCH   4   9
BRANCH   7  20
HETATM   20  C14 UNL     1      51.157  55.262  19.804  1.00  0.00     0.066 C
BRANCH  20  21
HETATM   21  C15 UNL     1      50.467  56.316  20.621  1.00  0.00     0.130 C
BRANCH  21  22
HETATM   22  C16 UNL     1      51.333  56.592  21.797  1.00  0.00     0.140 C
HETATM   23  N4  UNL     1      52.018  57.675  21.852  1.00  0.00    -0.251 N
ATOM     24  H4  UNL     1      51.964  58.344  21.084  1.00  0.00     0.196 HD
BRANCH  22  25
HETATM   25  O2  UNL     1      51.420  55.690  22.858  1.00  0.00    -0.348 OA
ATOM     26  H2  UNL     1      52.037  55.823  23.569  1.00  0.00     0.219 HD
ENDBRANCH  22  25
BRANCH  23  27
HETATM   27  O3  UNL     1      52.818  57.946  22.922  1.00  0.00    -0.288 OA
ATOM     28  H3  UNL     1      52.447  58.195  23.760  1.00  0.00     0.244 HD
ENDBRANCH  23  27
ENDBRANCH  21  22
ENDBRANCH  20  21
ENDBRANCH   7  20
ENDBRANCH   1   4
TORSDOF 11
ENDMDL