MODEL 1
REMARK VINA RESULT: -7.629117863      0.000      0.000
REMARK  8 active torsions:
REMARK  status: ('A' for Active; 'I' for Inactive)
REMARK    1  A    between atoms: C2_2  and  O1_3
REMARK    2  A    between atoms: O1_3  and  C3_4
REMARK       I    between atoms: C3_4  and  N1_6
REMARK    3  A    between atoms: N1_6  and  C4_8
REMARK    4  A    between atoms: C4_8  and  C5_9
REMARK    5  A    between atoms: C4_8  and  C8_13
REMARK    6  A    between atoms: C5_9  and  C6_10
REMARK    7  A    between atoms: C6_10  and  S1_11
REMARK       I    between atoms: C8_13  and  N2_15
REMARK    8  A    between atoms: N2_15  and  C9_17
ROOT
HETATM    1  C9  UNL     1      47.144  47.665  17.384  1.00  0.00     0.122 C
HETATM    2  C10 UNL     1      47.560  46.260  17.434  1.00  0.00     0.091 C
HETATM    3  N3  UNL     1      47.913  45.138  17.473  1.00  0.00    -0.195 NA
HETATM    4  C11 UNL     1      46.612  47.928  15.979  1.00  0.00     0.046 C
HETATM    5  C12 UNL     1      45.582  46.859  15.691  1.00  0.00     0.004 C
HETATM    6  C13 UNL     1      44.273  47.283  16.319  1.00  0.00     0.000 C
HETATM    7  C14 UNL     1      44.058  46.588  17.619  1.00  0.00     0.000 C
HETATM    8  C15 UNL     1      45.160  46.717  18.607  1.00  0.00     0.004 C
HETATM    9  C16 UNL     1      46.066  47.900  18.388  1.00  0.00     0.046 C
ENDROOT
BRANCH   1  10
HETATM   10  N2  UNL     1      48.261  48.537  17.704  1.00  0.00    -0.337 N
HETATM   11  C8  UNL     1      48.905  48.570  18.947  1.00  0.00     0.241 C
HETATM   12  O3  UNL     1      48.519  47.816  19.854  1.00  0.00    -0.271 OA
ATOM     13  H2  UNL     1      48.599  49.166  16.976  1.00  0.00     0.164 HD
BRANCH  11  14
HETATM   14  C4  UNL     1      50.025  49.484  19.181  1.00  0.00     0.179 C
BRANCH  14  15
HETATM   15  N1  UNL     1      50.819  49.736  18.004  1.00  0.00    -0.324 N
HETATM   16  C3  UNL     1      50.452  50.607  16.962  1.00  0.00     0.361 C
HETATM   17  O2  UNL     1      49.376  51.268  16.954  1.00  0.00    -0.238 OA
ATOM     18  H1  UNL     1      51.710  49.247  17.920  1.00  0.00     0.165 HD
BRANCH  16  19
HETATM   19  O1  UNL     1      51.273  50.796  15.859  1.00  0.00    -0.304 OA
BRANCH  19  20
HETATM   20  C2  UNL     1      51.465  49.792  14.901  1.00  0.00     0.176 C
HETATM   21  C1  UNL     1      50.216  49.055  14.541  1.00  0.00     0.034 C
ENDBRANCH  19  20
ENDBRANCH  16  19
ENDBRANCH  14  15
BRANCH  14  22
HETATM   22  C5  UNL     1      49.529  50.734  19.834  1.00  0.00     0.045 C
BRANCH  22  23
HETATM   23  C6  UNL     1      50.331  51.128  21.048  1.00  0.00     0.076 C
BRANCH  23  24
HETATM   24  S1  UNL     1      50.301  52.952  21.220  1.00  0.00    -0.173 SA
HETATM   25  C7  UNL     1      50.575  53.645  19.585  1.00  0.00     0.089 C
ENDBRANCH  23  24
ENDBRANCH  22  23
ENDBRANCH  14  22
ENDBRANCH  11  14
ENDBRANCH   1  10
TORSDOF 8
ENDMDL