MODEL 4
REMARK VINA RESULT: -8.460269012      3.306      9.386
REMARK  13 active torsions:
REMARK  status: ('A' for Active; 'I' for Inactive)
REMARK    1  A    between atoms: C2_2  and  O1_4
REMARK    2  A    between atoms: C2_2  and  C17_42
REMARK    3  A    between atoms: O1_4  and  C4_5
REMARK    4  A    between atoms: C6_8  and  O3_9
REMARK    5  A    between atoms: C7_11  and  C8_12
REMARK    6  A    between atoms: N1_13  and  N2_15
REMARK       I    between atoms: N2_15  and  C9_17
REMARK    7  A    between atoms: C9_17  and  C10_19
REMARK    8  A    between atoms: N3_21  and  C12_22
REMARK    9  A    between atoms: C15_28  and  N6_29
REMARK   10  A    between atoms: C16_34  and  N8_35
REMARK   11  A    between atoms: C17_42  and  O5_43
REMARK   12  A    between atoms: C17_42  and  C18_45
REMARK   13  A    between atoms: C18_45  and  N11_46
ROOT
HETATM    1  C12 UNL     1     -44.499  76.073 101.884  1.00  0.00     0.139 A
HETATM    2  C13 UNL     1     -45.834  75.842 101.689  1.00  0.00     0.162 A
HETATM    3  C14 UNL     1     -46.246  74.648 101.041  1.00  0.00     0.120 C
HETATM    4  N4  UNL     1     -46.591  73.671 100.525  1.00  0.00    -0.190 NA
HETATM    5  N5  UNL     1     -46.729  76.749 102.112  1.00  0.00    -0.180 N
ATOM      6  H5  UNL     1     -47.723  76.572 101.965  1.00  0.00     0.185 HD
HETATM    7  C15 UNL     1     -46.350  77.881 102.725  1.00  0.00     0.678 A
HETATM    8  N7  UNL     1     -45.055  78.099 102.912  1.00  0.00    -0.175 N
ATOM      9  H7  UNL     1     -44.766  78.960 103.378  1.00  0.00     0.186 HD
HETATM   10  C16 UNL     1     -44.107  77.234 102.514  1.00  0.00     0.146 A
ENDROOT
BRANCH   1  11
HETATM   11  N3  UNL     1     -43.561  75.102 101.430  1.00  0.00    -0.244 N
HETATM   12  C11 UNL     1     -42.451  75.310 100.687  1.00  0.00     0.155 A
HETATM   13  C10 UNL     1     -41.814  74.107 100.461  1.00  0.00     0.136 A
HETATM   14  N10 UNL     1     -42.571  73.189 101.087  1.00  0.00    -0.279 N
HETATM   15  N9  UNL     1     -43.615  73.809 101.662  1.00  0.00    -0.235 N
ATOM     16  H10 UNL     1     -42.384  72.187 101.120  1.00  0.00     0.189 HD
ATOM     17  H9  UNL     1     -44.345  73.344 102.201  1.00  0.00     0.209 HD
BRANCH  13  18
HETATM   18  C9  UNL     1     -40.587  73.886  99.707  1.00  0.00     0.289 C
HETATM   19  N2  UNL     1     -39.645  74.939  99.562  1.00  0.00    -0.265 N
ATOM     20  H2  UNL     1     -39.826  75.850  99.985  1.00  0.00     0.190 HD
HETATM   21  O4  UNL     1     -40.359  72.768  99.185  1.00  0.00    -0.264 OA
BRANCH  19  22
HETATM   22  N1  UNL     1     -38.472  74.725  98.841  1.00  0.00    -0.308 N
HETATM   23  C8  UNL     1     -37.783  75.714  98.446  1.00  0.00     0.126 C
ATOM     24  H1  UNL     1     -38.167  73.775  98.632  1.00  0.00     0.186 HD
BRANCH  23  25
HETATM   25  C7  UNL     1     -36.553  75.470  97.689  1.00  0.00     0.074 A
HETATM   26  C4  UNL     1     -35.441  74.716  98.049  1.00  0.00     0.108 A
HETATM   27  C5  UNL     1     -34.574  74.791  96.991  1.00  0.00     0.182 A
HETATM   28  O2  UNL     1     -35.112  75.526  96.067  1.00  0.00    -0.297 OA
HETATM   29  C6  UNL     1     -36.284  75.956  96.428  1.00  0.00     0.197 A
BRANCH  26  30
HETATM   30  O1  UNL     1     -35.239  74.047  99.188  1.00  0.00    -0.335 OA
BRANCH  30  31
HETATM   31  C2  UNL     1     -35.624  72.904  99.802  1.00  0.00     0.088 C
HETATM   32  C1  UNL     1     -34.287  72.190 100.217  1.00  0.00     0.049 C
HETATM   33  C3  UNL     1     -36.346  71.911  98.908  1.00  0.00     0.049 C
BRANCH  31  34
HETATM   34  C17 UNL     1     -36.358  72.976 101.105  1.00  0.00     0.180 C
BRANCH  34  35
HETATM   35  O5  UNL     1     -36.775  74.322 101.253  1.00  0.00    -0.391 OA
ATOM     36  H5  UNL     1     -37.088  74.407 102.146  1.00  0.00     0.210 HD
ENDBRANCH  34  35
BRANCH  34  37
HETATM   37  C18 UNL     1     -37.488  72.065 101.341  1.00  0.00     0.306 C
BRANCH  37  38
HETATM   38  N11 UNL     1     -38.515  72.533 102.246  1.00  0.00     0.091 N
HETATM   39  C19 UNL     1     -38.029  72.327 103.623  1.00  0.00     0.274 C
HETATM   40  C20 UNL     1     -38.707  70.979 103.682  1.00  0.00     0.060 C
HETATM   41  C21 UNL     1     -39.540  71.552 102.557  1.00  0.00     0.274 C
ENDBRANCH  37  38
ENDBRANCH  34  37
ENDBRANCH  31  34
ENDBRANCH  30  31
ENDBRANCH  26  30
BRANCH  29  42
HETATM   42  O3  UNL     1     -37.112  76.768  95.657  1.00  0.00    -0.340 OA
ATOM     43  H3  UNL     1     -37.699  76.460  94.976  1.00  0.00     0.220 HD
ENDBRANCH  29  42
ENDBRANCH  23  25
ENDBRANCH  19  22
ENDBRANCH  13  18
ENDBRANCH   1  11
BRANCH  10  44
HETATM   44  N8  UNL     1     -42.873  77.483 102.713  1.00  0.00    -0.383 N
ATOM     45  H82 UNL     1     -42.205  77.460 101.941  1.00  0.00     0.157 HD
ATOM     46  H81 UNL     1     -42.530  77.708 103.646  1.00  0.00     0.157 HD
ENDBRANCH  10  44
BRANCH   7  47
HETATM   47  N6  UNL     1     -47.255  78.732 103.119  1.00  0.00    -0.234 N
ATOM     48  H62 UNL     1     -47.211  79.180 104.035  1.00  0.00     0.174 HD
ATOM     49  H61 UNL     1     -48.032  78.962 102.500  1.00  0.00     0.174 HD
ENDBRANCH   7  47
TORSDOF 13
ENDMDL