MODEL 2
REMARK VINA RESULT: -8.836927322      2.278      3.216
REMARK  15 active torsions:
REMARK  status: ('A' for Active; 'I' for Inactive)
REMARK    1  A    between atoms: O1_2  and  C2_3
REMARK    2  A    between atoms: C5_6  and  C6_7
REMARK    3  A    between atoms: C7_12  and  S1_13
REMARK    4  A    between atoms: S1_13  and  C8_14
REMARK    5  A    between atoms: C8_14  and  C9_15
REMARK    6  A    between atoms: C9_15  and  N5_21
REMARK    7  A    between atoms: N3_16  and  N4_18
REMARK    8  A    between atoms: N5_21  and  N6_23
REMARK    9  A    between atoms: C10_25  and  C11_26
REMARK   10  A    between atoms: C14_29  and  O2_30
REMARK   11  A    between atoms: C15_32  and  C16_33
REMARK   12  A    between atoms: C16_33  and  N8_37
REMARK   13  A    between atoms: N8_37  and  N9_39
REMARK   14  A    between atoms: N11_44  and  N12_45
REMARK   15  A    between atoms: C18_49  and  O3_50
ROOT
HETATM    1  C9  UNL     1     -42.041  71.468  99.500  1.00  0.00     0.119 C
HETATM    2  N3  UNL     1     -41.971  71.585  98.239  1.00  0.00    -0.294 N
ATOM      3  H3  UNL     1     -41.470  72.399  97.884  1.00  0.00     0.187 HD
ENDROOT
BRANCH   1   4
HETATM    4  C8  UNL     1     -42.716  70.372 100.239  1.00  0.00     0.161 C
BRANCH   4   5
HETATM    5  S1  UNL     1     -44.478  70.435  99.809  1.00  0.00    -0.083 SA
BRANCH   5   6
HETATM    6  C7  UNL     1     -45.000  72.138  99.772  1.00  0.00     0.182 A
HETATM    7  N2  UNL     1     -45.325  72.869  98.726  1.00  0.00    -0.277 N
HETATM    8  N1  UNL     1     -45.650  74.068  99.134  1.00  0.00    -0.281 N
ATOM      9  H2  UNL     1     -45.323  72.552  97.756  1.00  0.00     0.189 HD
HETATM   10  C6  UNL     1     -45.545  74.158 100.491  1.00  0.00     0.154 A
ATOM     11  H1  UNL     1     -45.941  74.831  98.523  1.00  0.00     0.188 HD
HETATM   12  N11 UNL     1     -45.137  72.941 100.872  1.00  0.00    -0.221 N
BRANCH  10  13
HETATM   13  C5  UNL     1     -45.826  75.334 101.281  1.00  0.00     0.014 A
HETATM   14  C4  UNL     1     -47.127  75.546 101.727  1.00  0.00     0.018 A
HETATM   15  C3  UNL     1     -47.433  76.671 102.494  1.00  0.00     0.040 A
HETATM   16  C2  UNL     1     -46.471  77.594 102.828  1.00  0.00     0.101 A
HETATM   17  C18 UNL     1     -45.194  77.359 102.372  1.00  0.00     0.102 A
HETATM   18  C17 UNL     1     -44.874  76.242 101.608  1.00  0.00     0.055 A
BRANCH  16  19
HETATM   19  O1  UNL     1     -46.806  78.685 103.580  1.00  0.00    -0.353 OA
HETATM   20  C1  UNL     1     -48.080  79.051 103.987  1.00  0.00     0.210 C
ENDBRANCH  16  19
BRANCH  17  21
HETATM   21  O3  UNL     1     -44.199  78.253 102.680  1.00  0.00    -0.353 OA
HETATM   22  C19 UNL     1     -42.845  77.868 102.831  1.00  0.00     0.210 C
ENDBRANCH  17  21
ENDBRANCH  10  13
BRANCH  12  23
HETATM   23  N12 UNL     1     -44.865  72.457 102.151  1.00  0.00    -0.335 N
ATOM     24 2H12 UNL     1     -45.620  72.183 102.780  1.00  0.00     0.177 HD
ATOM     25 1H12 UNL     1     -43.967  72.316 102.614  1.00  0.00     0.177 HD
ENDBRANCH  12  23
ENDBRANCH   5   6
ENDBRANCH   4   5
ENDBRANCH   1   4
BRANCH   1  26
HETATM   26  N5  UNL     1     -41.420  72.476 100.301  1.00  0.00    -0.288 N
ATOM     27  H5  UNL     1     -41.774  72.721 101.226  1.00  0.00     0.188 HD
BRANCH  26  28
HETATM   28  N6  UNL     1     -40.301  73.111  99.749  1.00  0.00    -0.308 N
HETATM   29  C10 UNL     1     -39.147  72.572  99.966  1.00  0.00     0.136 C
ATOM     30  H6  UNL     1     -40.394  73.963  99.197  1.00  0.00     0.186 HD
BRANCH  29  31
HETATM   31  C11 UNL     1     -37.977  73.235  99.389  1.00  0.00     0.049 A
HETATM   32  C12 UNL     1     -36.720  72.897  99.869  1.00  0.00     0.034 A
HETATM   33  C13 UNL     1     -35.617  73.518  99.330  1.00  0.00     0.041 A
HETATM   34  C14 UNL     1     -35.795  74.465  98.321  1.00  0.00     0.096 A
HETATM   35  C15 UNL     1     -37.048  74.774  97.872  1.00  0.00     0.111 A
HETATM   36  N10 UNL     1     -38.107  74.157  98.411  1.00  0.00    -0.350 N
ATOM     37  H10 UNL     1     -39.041  74.391  98.073  1.00  0.00     0.166 HD
BRANCH  34  38
HETATM   38  O2  UNL     1     -34.714  75.126  97.738  1.00  0.00    -0.358 OA
ATOM     39  H2  UNL     1     -34.412  74.911  96.863  1.00  0.00     0.217 HD
ENDBRANCH  34  38
BRANCH  35  40
HETATM   40  C16 UNL     1     -37.264  75.752  96.829  1.00  0.00     0.143 C
HETATM   41  N7  UNL     1     -38.026  76.776  97.085  1.00  0.00    -0.383 N
ATOM     42  H72 UNL     1     -38.455  76.872  98.006  1.00  0.00     0.157 HD
ATOM     43  H71 UNL     1     -38.178  77.466  96.350  1.00  0.00     0.157 HD
BRANCH  40  44
HETATM   44  N8  UNL     1     -36.670  75.620  95.553  1.00  0.00    -0.291 N
ATOM     45  H8  UNL     1     -36.888  74.804  94.982  1.00  0.00     0.188 HD
BRANCH  44  46
HETATM   46  N9  UNL     1     -35.797  76.577  95.064  1.00  0.00    -0.344 N
ATOM     47  H92 UNL     1     -34.794  76.403  95.143  1.00  0.00     0.176 HD
ATOM     48  H91 UNL     1     -36.140  77.436  94.635  1.00  0.00     0.176 HD
ENDBRANCH  44  46
ENDBRANCH  40  44
ENDBRANCH  35  40
ENDBRANCH  29  31
ENDBRANCH  26  28
ENDBRANCH   1  26
BRANCH   2  49
HETATM   49  N4  UNL     1     -42.500  70.731  97.297  1.00  0.00    -0.344 N
ATOM     50  H42 UNL     1     -41.848  70.045  96.915  1.00  0.00     0.176 HD
ATOM     51  H41 UNL     1     -43.459  70.716  96.949  1.00  0.00     0.176 HD
ENDBRANCH   2  49
TORSDOF 15
ENDMDL