MODEL 3
REMARK VINA RESULT: -8.794543698      2.057      3.496
REMARK  12 active torsions:
REMARK  status: ('A' for Active; 'I' for Inactive)
REMARK    1  A    between atoms: C2_2  and  C3_4
REMARK    2  A    between atoms: N1_6  and  N2_7
REMARK    3  A    between atoms: N2_7  and  C5_9
REMARK    4  A    between atoms: C9_13  and  C10_14
REMARK    5  A    between atoms: C10_14  and  S1_15
REMARK    6  A    between atoms: S1_15  and  C11_16
REMARK    7  A    between atoms: C11_16  and  C12_17
REMARK    8  A    between atoms: C12_17  and  N3_18
REMARK    9  A    between atoms: C12_17  and  C14_22
REMARK   10  A    between atoms: C17_30  and  N7_31
REMARK   11  A    between atoms: N9_37  and  N10_38
REMARK   12  A    between atoms: C20_45  and  N12_46
ROOT
HETATM    1  N3  UNL     1     -43.633  72.763 101.288  1.00  0.00    -0.317 N
ATOM      2  H3  UNL     1     -43.820  71.935 100.724  1.00  0.00     0.172 HD
HETATM    3  C13 UNL     1     -43.329  72.530 102.610  1.00  0.00     0.178 C
HETATM    4  N4  UNL     1     -43.040  72.332 103.688  1.00  0.00    -0.172 NA
ENDROOT
BRANCH   1   5
HETATM    5  C12 UNL     1     -43.720  74.005 100.608  1.00  0.00     0.157 C
BRANCH   5   6
HETATM    6  C11 UNL     1     -42.463  74.789 100.668  1.00  0.00     0.106 C
BRANCH   6   7
HETATM    7  S1  UNL     1     -41.079  73.931  99.971  1.00  0.00    -0.159 SA
BRANCH   7   8
HETATM    8  C10 UNL     1     -39.553  74.868  99.833  1.00  0.00     0.152 C
BRANCH   8   9
HETATM    9  C9  UNL     1     -38.446  74.056 100.392  1.00  0.00     0.113 A
HETATM   10  N1  UNL     1     -37.161  74.166 100.146  1.00  0.00    -0.257 N
HETATM   11  C4  UNL     1     -36.262  73.355 100.803  1.00  0.00     0.136 A
HETATM   12  C3  UNL     1     -36.731  72.423 101.725  1.00  0.00     0.070 A
HETATM   13  C20 UNL     1     -38.075  72.325 101.965  1.00  0.00     0.115 A
HETATM   14  N11 UNL     1     -38.905  73.130 101.307  1.00  0.00    -0.330 N
ATOM     15  H11 UNL     1     -39.907  73.061 101.483  1.00  0.00     0.168 HD
BRANCH  10  16
HETATM   16  N2  UNL     1     -36.693  75.033  99.169  1.00  0.00    -0.320 N
ATOM     17  H2  UNL     1     -36.495  75.989  99.467  1.00  0.00     0.181 HD
BRANCH  16  18
HETATM   18  C5  UNL     1     -36.454  74.731  97.780  1.00  0.00     0.035 C
HETATM   19  C6  UNL     1     -36.976  73.387  97.403  1.00  0.00     0.039 C
HETATM   20  C7  UNL     1     -37.060  75.810  96.899  1.00  0.00     0.039 C
HETATM   21  C8  UNL     1     -34.957  74.724  97.453  1.00  0.00     0.039 C
ENDBRANCH  16  18
ENDBRANCH  10  16
BRANCH  12  22
HETATM   22  C2  UNL     1     -35.763  71.574 102.403  1.00  0.00     0.160 C
HETATM   23  C1  UNL     1     -34.878  72.127 103.446  1.00  0.00     0.097 C
HETATM   24  O1  UNL     1     -35.640  70.337 102.130  1.00  0.00    -0.293 OA
ENDBRANCH  12  22
BRANCH  13  25
HETATM   25  N12 UNL     1     -38.497  71.443 102.833  1.00  0.00    -0.385 N
ATOM     26 2H12 UNL     1     -38.710  71.686 103.800  1.00  0.00     0.157 HD
ATOM     27 1H12 UNL     1     -38.618  70.475 102.532  1.00  0.00     0.157 HD
ENDBRANCH  13  25
ENDBRANCH   8   9
ENDBRANCH   7   8
ENDBRANCH   6   7
ENDBRANCH   5   6
BRANCH   5  28
HETATM   28  C14 UNL     1     -44.894  74.747 101.155  1.00  0.00     0.105 A
HETATM   29  N5  UNL     1     -44.681  75.934 101.753  1.00  0.00    -0.346 N
HETATM   30  C15 UNL     1     -45.701  76.656 102.266  1.00  0.00     0.149 A
ATOM     31  H5  UNL     1     -43.729  76.296 101.820  1.00  0.00     0.166 HD
HETATM   32  C16 UNL     1     -45.420  77.859 102.858  1.00  0.00     0.290 A
HETATM   33  C18 UNL     1     -46.987  76.157 102.170  1.00  0.00     0.177 A
HETATM   34  O2  UNL     1     -44.261  78.320 102.954  1.00  0.00    -0.265 OA
HETATM   35  N6  UNL     1     -46.480  78.538 103.345  1.00  0.00    -0.154 N
HETATM   36  C17 UNL     1     -47.718  78.068 103.254  1.00  0.00     0.680 A
ATOM     37  H6  UNL     1     -46.325  79.439 103.797  1.00  0.00     0.187 HD
HETATM   38  N8  UNL     1     -48.015  76.887 102.678  1.00  0.00    -0.172 N
ATOM     39  H8  UNL     1     -48.977  76.552 102.625  1.00  0.00     0.186 HD
HETATM   40  N9  UNL     1     -47.232  74.966 101.573  1.00  0.00    -0.206 N
HETATM   41  C19 UNL     1     -46.183  74.288 101.080  1.00  0.00     0.292 A
HETATM   42  O3  UNL     1     -46.420  73.162 100.518  1.00  0.00    -0.264 OA
BRANCH  36  43
HETATM   43  N7  UNL     1     -48.688  78.766 103.731  1.00  0.00    -0.234 N
ATOM     44  H72 UNL     1     -48.688  79.769 103.549  1.00  0.00     0.174 HD
ATOM     45  H71 UNL     1     -49.416  78.299 104.272  1.00  0.00     0.174 HD
ENDBRANCH  36  43
BRANCH  40  46
HETATM   46  N10 UNL     1     -48.509  74.440 101.448  1.00  0.00    -0.334 N
ATOM     47 2H10 UNL     1     -49.315  75.003 101.720  1.00  0.00     0.177 HD
ATOM     48 1H10 UNL     1     -48.684  73.499 101.098  1.00  0.00     0.177 HD
ENDBRANCH  40  46
ENDBRANCH   5  28
ENDBRANCH   1   5
TORSDOF 12
ENDMDL