MODEL 2
REMARK VINA RESULT: -8.514703034      1.983      3.945
REMARK  11 active torsions:
REMARK  status: ('A' for Active; 'I' for Inactive)
REMARK    1  A    between atoms: C2_2  and  N1_4
REMARK    2  A    between atoms: C2_2  and  C4_8
REMARK    3  A    between atoms: C4_8  and  C5_9
REMARK    4  A    between atoms: C6_10  and  O1_11
REMARK    5  A    between atoms: N2_13  and  C7_14
REMARK    6  A    between atoms: C7_14  and  C8_15
REMARK       I    between atoms: C8_15  and  N3_17
REMARK    7  A    between atoms: N3_17  and  C9_19
REMARK    8  A    between atoms: C9_19  and  C11_24
REMARK    9  A    between atoms: C12_27  and  N7_28
REMARK       I    between atoms: N7_28  and  C13_30
REMARK   10  A    between atoms: N10_35  and  C15_36
REMARK   11  A    between atoms: N11_44  and  N12_45
ROOT
HETATM    1  C9  UNL     1     -40.932  72.844  99.559  1.00  0.00     0.162 C
HETATM    2  N4  UNL     1     -40.812  71.947  98.644  1.00  0.00    -0.276 N
ATOM      3  H4  UNL     1     -39.999  71.952  98.028  1.00  0.00     0.179 HD
HETATM    4  C10 UNL     1     -41.789  70.973  98.497  1.00  0.00     0.183 C
HETATM    5  N5  UNL     1     -42.617  70.149  98.346  1.00  0.00    -0.172 NA
ENDROOT
BRANCH   1   6
HETATM    6  N3  UNL     1     -39.868  73.810  99.628  1.00  0.00    -0.308 N
HETATM    7  C8  UNL     1     -39.983  75.108 100.135  1.00  0.00     0.241 C
HETATM    8  O2  UNL     1     -41.013  75.637 100.608  1.00  0.00    -0.271 OA
ATOM      9  H3  UNL     1     -38.954  73.525  99.277  1.00  0.00     0.170 HD
BRANCH   7  10
HETATM   10  C7  UNL     1     -38.765  75.986 100.130  1.00  0.00     0.239 C
BRANCH  10  11
HETATM   11  N2  UNL     1     -37.805  75.585  99.122  1.00  0.00    -0.268 N
HETATM   12  C6  UNL     1     -36.735  74.775  99.269  1.00  0.00     0.172 A
HETATM   13  C5  UNL     1     -36.062  74.632  98.078  1.00  0.00     0.092 A
HETATM   14  N11 UNL     1     -36.762  75.391  97.180  1.00  0.00    -0.212 N
HETATM   15  C21 UNL     1     -37.796  75.948  97.828  1.00  0.00     0.350 A
HETATM   16  O4  UNL     1     -38.619  76.711  97.226  1.00  0.00    -0.244 OA
BRANCH  12  17
HETATM   17  O1  UNL     1     -36.411  74.200 100.480  1.00  0.00    -0.344 OA
ATOM     18  H1  UNL     1     -36.311  74.642 101.315  1.00  0.00     0.219 HD
ENDBRANCH  12  17
BRANCH  13  19
HETATM   19  C4  UNL     1     -34.858  73.852  97.723  1.00  0.00     0.101 C
BRANCH  19  20
HETATM   20  C2  UNL     1     -34.979  72.376  97.923  1.00  0.00     0.122 C
HETATM   21  C1  UNL     1     -33.799  71.633  97.333  1.00  0.00     0.046 C
HETATM   22  C3  UNL     1     -36.256  71.788  97.380  1.00  0.00     0.046 C
BRANCH  20  23
HETATM   23  N1  UNL     1     -34.919  72.100  99.372  1.00  0.00    -0.071 N
ATOM     24  H13 UNL     1     -34.116  71.537  99.652  1.00  0.00     0.275 HD
ATOM     25  H12 UNL     1     -34.691  72.917  99.939  1.00  0.00     0.275 HD
ATOM     26  H11 UNL     1     -35.820  71.679  99.599  1.00  0.00     0.275 HD
ENDBRANCH  20  23
ENDBRANCH  19  20
ENDBRANCH  13  19
BRANCH  14  27
HETATM   27  N12 UNL     1     -36.424  75.534  95.830  1.00  0.00    -0.334 N
ATOM     28 2H12 UNL     1     -36.051  76.363  95.367  1.00  0.00     0.177 HD
ATOM     29 1H12 UNL     1     -36.515  74.798  95.130  1.00  0.00     0.177 HD
ENDBRANCH  14  27
ENDBRANCH  10  11
ENDBRANCH   7  10
ENDBRANCH   1   6
BRANCH   1  30
HETATM   30  C11 UNL     1     -42.068  72.849 100.475  1.00  0.00     0.161 A
HETATM   31  N6  UNL     1     -43.171  73.637 100.305  1.00  0.00    -0.322 N
HETATM   32  C12 UNL     1     -44.045  73.444 101.312  1.00  0.00     0.153 A
ATOM     33  H6  UNL     1     -43.313  74.280  99.525  1.00  0.00     0.169 HD
HETATM   34  C14 UNL     1     -43.473  72.507 102.143  1.00  0.00     0.169 A
HETATM   35  N9  UNL     1     -44.087  72.026 103.334  1.00  0.00    -0.078 NA
HETATM   36  N10 UNL     1     -42.278  72.165 101.612  1.00  0.00    -0.279 N
BRANCH  32  37
HETATM   37  N7  UNL     1     -45.313  74.081 101.494  1.00  0.00    -0.294 N
HETATM   38  C13 UNL     1     -45.427  75.471 101.687  1.00  0.00     0.334 C
HETATM   39  N8  UNL     1     -44.272  76.285 101.707  1.00  0.00    -0.040 NA
HETATM   40  O3  UNL     1     -46.551  75.990 101.842  1.00  0.00    -0.251 OA
ATOM     41  H7  UNL     1     -46.159  73.511 101.485  1.00  0.00     0.172 HD
ENDBRANCH  32  37
BRANCH  36  42
HETATM   42  C15 UNL     1     -41.402  71.231 102.211  1.00  0.00     0.042 A
HETATM   43  C16 UNL     1     -40.259  71.651 102.861  1.00  0.00     0.030 A
HETATM   44  C17 UNL     1     -39.419  70.724 103.432  1.00  0.00     0.002 A
HETATM   45  C18 UNL     1     -39.689  69.365 103.374  1.00  0.00     0.000 A
HETATM   46  C19 UNL     1     -40.832  68.955 102.722  1.00  0.00     0.002 A
HETATM   47  C20 UNL     1     -41.690  69.884 102.140  1.00  0.00     0.030 A
ENDBRANCH  36  42
ENDBRANCH   1  30
TORSDOF 11
ENDMDL