MODEL 2
REMARK VINA RESULT: -8.278949413      2.489      3.544
REMARK  12 active torsions:
REMARK  status: ('A' for Active; 'I' for Inactive)
REMARK    1  A    between atoms: C2_3  and  O1_4
REMARK    2  A    between atoms: O1_4  and  C3_5
REMARK    3  A    between atoms: C3_5  and  C4_6
REMARK    4  A    between atoms: C4_6  and  C5_7
REMARK    5  A    between atoms: C5_7  and  O2_10
REMARK    6  A    between atoms: C8_12  and  S1_13
REMARK    7  A    between atoms: S1_13  and  C9_14
REMARK    8  A    between atoms: C10_17  and  N3_18
REMARK    9  A    between atoms: N4_21  and  N5_22
REMARK   10  A    between atoms: C12_27  and  C13_28
REMARK   11  A    between atoms: C13_28  and  C14_29
REMARK   12  A    between atoms: N7_34  and  N8_35
ROOT
HETATM    1  C9  UNL     1     -38.253  71.990 100.188  1.00  0.00     0.104 A
HETATM    2  N2  UNL     1     -38.653  72.204 101.464  1.00  0.00    -0.183 N
ATOM      3  H2  UNL     1     -39.646  72.183 101.700  1.00  0.00     0.185 HD
HETATM    4  C10 UNL     1     -37.741  72.444 102.418  1.00  0.00     0.700 A
HETATM    5  N4  UNL     1     -36.423  72.479 102.148  1.00  0.00    -0.054 N
HETATM    6  C11 UNL     1     -35.966  72.273 100.903  1.00  0.00     0.291 A
HETATM    7  O3  UNL     1     -34.727  72.310 100.645  1.00  0.00    -0.265 OA
HETATM    8  C12 UNL     1     -36.910  72.020  99.896  1.00  0.00     0.054 A
ENDROOT
BRANCH   1   9
HETATM    9  S1  UNL     1     -39.505  71.724  98.914  1.00  0.00    -0.049 SA
BRANCH   9  10
HETATM   10  C8  UNL     1     -41.139  71.887  99.601  1.00  0.00     0.132 A
HETATM   11  C2  UNL     1     -41.500  72.980 100.393  1.00  0.00     0.183 A
HETATM   12  N1  UNL     1     -42.771  72.785 100.721  1.00  0.00    -0.282 N
HETATM   13  C1  UNL     1     -43.638  73.627 101.532  1.00  0.00     0.163 C
HETATM   14  C19 UNL     1     -43.201  71.619 100.166  1.00  0.00     0.329 A
HETATM   15  N9  UNL     1     -42.191  71.069  99.476  1.00  0.00    -0.299 N
HETATM   16  O6  UNL     1     -44.363  71.153 100.293  1.00  0.00    -0.246 OA
ATOM     17  H9  UNL     1     -42.219  70.193  98.954  1.00  0.00     0.171 HD
BRANCH  11  18
HETATM   18  O1  UNL     1     -40.707  74.042 100.757  1.00  0.00    -0.333 OA
BRANCH  18  19
HETATM   19  C3  UNL     1     -40.618  75.239 100.054  1.00  0.00     0.180 C
BRANCH  19  20
HETATM   20  C4  UNL     1     -39.347  75.357  99.275  1.00  0.00     0.063 C
BRANCH  20  21
HETATM   21  C5  UNL     1     -38.339  76.222 100.009  1.00  0.00     0.052 C
HETATM   22  C6  UNL     1     -38.020  77.457  99.232  1.00  0.00     0.045 C
HETATM   23  C7  UNL     1     -38.977  76.614 101.325  1.00  0.00     0.045 C
BRANCH  21  24
HETATM   24  O2  UNL     1     -37.222  75.415 100.223  1.00  0.00    -0.391 OA
ATOM     25  H2  UNL     1     -36.838  75.265  99.367  1.00  0.00     0.210 HD
ENDBRANCH  21  24
ENDBRANCH  20  21
ENDBRANCH  19  20
ENDBRANCH  18  19
ENDBRANCH  11  18
ENDBRANCH   9  10
ENDBRANCH   1   9
BRANCH   8  26
HETATM   26  C13 UNL     1     -36.426  71.759  98.523  1.00  0.00     0.126 C
BRANCH  26  27
HETATM   27  C14 UNL     1     -36.013  72.977  97.825  1.00  0.00     0.112 A
HETATM   28  N6  UNL     1     -36.852  73.963  97.415  1.00  0.00    -0.321 N
HETATM   29  C15 UNL     1     -36.158  74.938  96.837  1.00  0.00     0.198 A
ATOM     30  H6  UNL     1     -37.865  73.957  97.534  1.00  0.00     0.169 HD
HETATM   31  C16 UNL     1     -34.838  74.564  96.879  1.00  0.00     0.217 A
HETATM   32  O5  UNL     1     -36.463  76.165  96.245  1.00  0.00    -0.330 OA
HETATM   33  N7  UNL     1     -34.779  73.346  97.496  1.00  0.00    -0.224 N
HETATM   34  O4  UNL     1     -33.892  75.406  96.340  1.00  0.00    -0.329 OA
HETATM   35  C17 UNL     1     -34.155  76.614  95.670  1.00  0.00     0.204 C
HETATM   36  C18 UNL     1     -35.606  76.732  95.254  1.00  0.00     0.204 C
BRANCH  33  37
HETATM   37  N8  UNL     1     -33.598  72.665  97.729  1.00  0.00    -0.335 N
ATOM     38  H82 UNL     1     -32.813  72.661  97.078  1.00  0.00     0.177 HD
ATOM     39  H81 UNL     1     -33.347  72.109  98.546  1.00  0.00     0.177 HD
ENDBRANCH  33  37
ENDBRANCH  26  27
ENDBRANCH   8  26
BRANCH   4  40
HETATM   40  N3  UNL     1     -38.102  72.651 103.651  1.00  0.00    -0.233 N
ATOM     41  H32 UNL     1     -37.380  72.959 104.304  1.00  0.00     0.174 HD
ATOM     42  H31 UNL     1     -39.068  72.506 103.945  1.00  0.00     0.174 HD
ENDBRANCH   4  40
BRANCH   5  43
HETATM   43  N5  UNL     1     -35.516  72.736 103.188  1.00  0.00    -0.321 N
ATOM     44  H52 UNL     1     -35.465  72.099 103.983  1.00  0.00     0.178 HD
ATOM     45  H51 UNL     1     -34.917  73.560 103.134  1.00  0.00     0.178 HD
ENDBRANCH   5  43
TORSDOF 12
ENDMDL