MODEL 3
REMARK VINA RESULT: -8.847168087      1.168      1.587
REMARK  10 active torsions:
REMARK  status: ('A' for Active; 'I' for Inactive)
REMARK    1  A    between atoms: C4_4  and  N1_5
REMARK       I    between atoms: N1_5  and  C5_7
REMARK    2  A    between atoms: C5_7  and  C6_9
REMARK    3  A    between atoms: C6_9  and  N2_10
REMARK    4  A    between atoms: N2_10  and  C7_13
REMARK    5  A    between atoms: C7_13  and  C8_14
REMARK    6  A    between atoms: C8_14  and  O2_15
REMARK    7  A    between atoms: C8_14  and  C9_17
REMARK    8  A    between atoms: C9_17  and  N3_18
REMARK    9  A    between atoms: C9_17  and  C10_22
REMARK   10  A    between atoms: C13_33  and  C14_34
ROOT
HETATM    1  C1  UNL     1     -43.153  79.014 102.935  1.00  0.00     0.050 C
HETATM    2  C2  UNL     1     -44.026  77.881 102.538  1.00  0.00    -0.029 A
HETATM    3  C3  UNL     1     -43.629  76.696 101.894  1.00  0.00     0.041 A
HETATM    4  C4  UNL     1     -44.700  75.872 101.679  1.00  0.00     0.064 A
HETATM    5  C12 UNL     1     -45.845  76.516 102.193  1.00  0.00     0.089 A
HETATM    6  N8  UNL     1     -47.146  76.178 102.248  1.00  0.00    -0.335 N
ATOM      7  H8  UNL     1     -47.459  75.283 101.871  1.00  0.00     0.168 HD
HETATM    8  C13 UNL     1     -48.023  77.015 102.797  1.00  0.00     0.155 A
HETATM    9  N13 UNL     1     -47.612  78.177 103.288  1.00  0.00    -0.283 N
ATOM     10  H13 UNL     1     -48.309  78.796 103.703  1.00  0.00     0.188 HD
HETATM   11  N14 UNL     1     -46.354  78.582 103.273  1.00  0.00    -0.296 N
ATOM     12  H14 UNL     1     -46.103  79.489 103.667  1.00  0.00     0.187 HD
HETATM   13  C19 UNL     1     -45.386  77.780 102.726  1.00  0.00     0.083 A
ENDROOT
BRANCH   4  14
HETATM   14  N1  UNL     1     -44.834  74.611 101.051  1.00  0.00    -0.324 N
HETATM   15  C5  UNL     1     -44.226  73.445 101.602  1.00  0.00     0.247 C
HETATM   16  O1  UNL     1     -43.567  73.469 102.651  1.00  0.00    -0.271 OA
ATOM     17  H1  UNL     1     -45.374  74.536 100.189  1.00  0.00     0.169 HD
BRANCH  15  18
HETATM   18  C6  UNL     1     -44.411  72.197 100.867  1.00  0.00     0.335 C
BRANCH  18  19
HETATM   19  N2  UNL     1     -43.555  71.939  99.758  1.00  0.00    -0.064 N
ATOM     20  H22 UNL     1     -43.960  71.256  99.117  1.00  0.00     0.277 HD
ATOM     21  H21 UNL     1     -43.507  72.734  99.122  1.00  0.00     0.277 HD
BRANCH  19  22
HETATM   22  C7  UNL     1     -42.246  71.537 100.215  1.00  0.00     0.266 C
BRANCH  22  23
HETATM   23  C8  UNL     1     -41.212  72.314  99.408  1.00  0.00     0.181 C
BRANCH  23  24
HETATM   24  O2  UNL     1     -40.064  71.454  99.436  1.00  0.00    -0.391 OA
ATOM     25  H2  UNL     1     -40.319  70.738  98.867  1.00  0.00     0.210 HD
ENDBRANCH  23  24
BRANCH  23  26
HETATM   26  C9  UNL     1     -40.786  73.526 100.174  1.00  0.00     0.283 C
BRANCH  26  27
HETATM   27  N3  UNL     1     -41.457  74.734  99.796  1.00  0.00    -0.066 N
ATOM     28  H33 UNL     1     -41.400  74.872  98.787  1.00  0.00     0.275 HD
ATOM     29  H32 UNL     1     -42.466  74.627  99.902  1.00  0.00     0.275 HD
ATOM     30  H31 UNL     1     -41.136  75.568 100.287  1.00  0.00     0.275 HD
ENDBRANCH  26  27
BRANCH  26  31
HETATM   31  C10 UNL     1     -39.293  73.623 100.074  1.00  0.00     0.143 A
HETATM   32  N4  UNL     1     -38.412  73.451 101.053  1.00  0.00    -0.269 N
HETATM   33  N5  UNL     1     -37.195  73.643 100.579  1.00  0.00    -0.003 NA
ATOM     34  H4  UNL     1     -38.640  73.209 102.017  1.00  0.00     0.185 HD
HETATM   35  N6  UNL     1     -37.317  73.940  99.283  1.00  0.00    -0.221 N
HETATM   36  C11 UNL     1     -36.143  74.216  98.478  1.00  0.00     0.197 C
HETATM   37  N7  UNL     1     -38.596  73.931  98.952  1.00  0.00    -0.271 N
ATOM     38  H7  UNL     1     -38.986  74.121  98.028  1.00  0.00     0.189 HD
ENDBRANCH  26  31
ENDBRANCH  23  26
ENDBRANCH  22  23
ENDBRANCH  19  22
ENDBRANCH  18  19
ENDBRANCH  15  18
ENDBRANCH   4  14
BRANCH   8  39
HETATM   39  C14 UNL     1     -49.444  76.597 102.807  1.00  0.00     0.122 A
HETATM   40  N9  UNL     1     -50.484  77.274 103.239  1.00  0.00    -0.332 N
HETATM   41  C15 UNL     1     -51.667  76.744 103.188  1.00  0.00     0.128 A
ATOM     42  H9  UNL     1     -50.362  78.215 103.613  1.00  0.00     0.168 HD
HETATM   43  N10 UNL     1     -52.833  77.339 103.595  1.00  0.00    -0.337 N
HETATM   44  C18 UNL     1     -51.781  75.482 102.678  1.00  0.00     0.094 A
HETATM   45  C16 UNL     1     -53.997  76.698 103.489  1.00  0.00     0.183 A
ATOM     46  H10 UNL     1     -52.810  78.282 103.984  1.00  0.00     0.168 HD
HETATM   47  N11 UNL     1     -54.149  75.464 102.995  1.00  0.00    -0.338 N
HETATM   48  C17 UNL     1     -53.034  74.849 102.587  1.00  0.00     0.120 A
ATOM     49  H11 UNL     1     -55.063  75.017 102.934  1.00  0.00     0.168 HD
HETATM   50  N12 UNL     1     -53.035  73.665 102.101  1.00  0.00    -0.384 N
ATOM     51 2H12 UNL     1     -53.944  73.206 102.035  1.00  0.00     0.157 HD
ATOM     52 1H12 UNL     1     -52.184  73.197 101.789  1.00  0.00     0.157 HD
HETATM   53  S1  UNL     1     -50.146  75.132 102.297  1.00  0.00    -0.061 SA
ENDBRANCH   8  39
TORSDOF 10
ENDMDL