MODEL 2
REMARK VINA RESULT: -9.788066190      2.911     10.240
REMARK  12 active torsions:
REMARK  status: ('A' for Active; 'I' for Inactive)
REMARK    1  A    between atoms: N1_1  and  C1_4
REMARK    2  A    between atoms: N4_11  and  C5_12
REMARK    3  A    between atoms: N5_14  and  C7_15
REMARK    4  A    between atoms: C10_18  and  O1_19
REMARK    5  A    between atoms: O1_19  and  C11_20
REMARK    6  A    between atoms: C11_20  and  C12_21
REMARK    7  A    between atoms: C12_21  and  O2_22
REMARK    8  A    between atoms: O2_22  and  N6_23
REMARK    9  A    between atoms: N6_23  and  C13_25
REMARK   10  A    between atoms: C14_28  and  N8_29
REMARK   11  A    between atoms: C15_34  and  N10_35
REMARK   12  A    between atoms: C16_40  and  N12_41
ROOT
HETATM    1  C7  UNL     1     -40.976  73.416  99.955  1.00  0.00     0.056 A
HETATM    2  C8  UNL     1     -40.215  72.322  99.659  1.00  0.00     0.034 A
HETATM    3  C9  UNL     1     -38.835  72.479  99.631  1.00  0.00     0.041 A
HETATM    4  C10 UNL     1     -38.268  73.704  99.896  1.00  0.00     0.102 A
HETATM    5  C16 UNL     1     -39.049  74.797 100.193  1.00  0.00     0.138 A
HETATM    6  C17 UNL     1     -40.422  74.648 100.223  1.00  0.00     0.070 A
ENDROOT
BRANCH   4   7
HETATM    7  O1  UNL     1     -36.898  73.862  99.868  1.00  0.00    -0.346 OA
BRANCH   7   8
HETATM    8  C11 UNL     1     -36.078  73.136 100.787  1.00  0.00     0.204 C
BRANCH   8   9
HETATM    9  C12 UNL     1     -34.717  72.877 100.170  1.00  0.00     0.228 C
BRANCH   9  10
HETATM   10  O2  UNL     1     -34.738  73.167  98.779  1.00  0.00    -0.264 OA
BRANCH  10  11
HETATM   11  N6  UNL     1     -34.159  74.282  98.254  1.00  0.00    -0.095 N
ATOM     12  H6  UNL     1     -33.219  74.537  98.558  1.00  0.00     0.213 HD
BRANCH  11  13
HETATM   13  C13 UNL     1     -34.759  75.034  97.377  1.00  0.00     0.731 A
HETATM   14  N7  UNL     1     -36.075  75.255  97.535  1.00  0.00    -0.020 N
HETATM   15  C14 UNL     1     -36.707  76.040  96.623  1.00  0.00     0.705 A
ATOM     16  H7  UNL     1     -36.585  74.845  98.317  1.00  0.00     0.203 HD
HETATM   17  N9  UNL     1     -36.042  76.577  95.601  1.00  0.00    -0.022 N
HETATM   18  C15 UNL     1     -34.737  76.339  95.471  1.00  0.00     0.705 A
ATOM     19  H9  UNL     1     -36.528  77.165  94.923  1.00  0.00     0.203 HD
HETATM   20  N11 UNL     1     -34.091  75.570  96.354  1.00  0.00    -0.020 N
ATOM     21  H11 UNL     1     -33.092  75.395  96.247  1.00  0.00     0.203 HD
BRANCH  15  22
HETATM   22  N8  UNL     1     -37.965  76.260  96.760  1.00  0.00    -0.234 N
ATOM     23  H82 UNL     1     -38.585  76.207  95.952  1.00  0.00     0.174 HD
ATOM     24  H81 UNL     1     -38.326  76.486  97.687  1.00  0.00     0.174 HD
ENDBRANCH  15  22
BRANCH  18  25
HETATM   25  N10 UNL     1     -34.068  76.855  94.477  1.00  0.00    -0.234 N
ATOM     26 2H10 UNL     1     -33.646  76.229  93.791  1.00  0.00     0.174 HD
ATOM     27 1H10 UNL     1     -33.969  77.866  94.391  1.00  0.00     0.174 HD
ENDBRANCH  18  25
ENDBRANCH  11  13
ENDBRANCH  10  11
ENDBRANCH   9  10
ENDBRANCH   8   9
ENDBRANCH   7   8
ENDBRANCH   4   7
BRANCH   5  28
HETATM   28  N12 UNL     1     -38.511  76.081 100.474  1.00  0.00    -0.113 N
HETATM   29  O3  UNL     1     -37.891  76.743  99.621  1.00  0.00    -0.532 OA
HETATM   30  O4  UNL     1     -38.665  76.637 101.720  1.00  0.00    -0.532 OA
ENDBRANCH   5  28
BRANCH   1  31
HETATM   31  N5  UNL     1     -42.410  73.286  99.993  1.00  0.00    -0.247 N
HETATM   32  C6  UNL     1     -43.263  74.118 100.647  1.00  0.00     0.165 A
HETATM   33  C5  UNL     1     -44.556  73.681 100.458  1.00  0.00     0.158 A
HETATM   34  N14 UNL     1     -44.451  72.586  99.686  1.00  0.00    -0.266 N
HETATM   35  N13 UNL     1     -43.156  72.362  99.414  1.00  0.00    -0.014 NA
ATOM     36  H14 UNL     1     -45.232  72.016  99.358  1.00  0.00     0.186 HD
BRANCH  33  37
HETATM   37  N4  UNL     1     -45.796  74.192 100.925  1.00  0.00    -0.203 N
HETATM   38  N3  UNL     1     -46.995  73.616 100.856  1.00  0.00    -0.011 NA
HETATM   39  N2  UNL     1     -47.919  74.394 101.398  1.00  0.00    -0.280 N
HETATM   40  C4  UNL     1     -47.325  75.515 101.837  1.00  0.00     0.092 A
ATOM     41  H2  UNL     1     -48.913  74.179 101.468  1.00  0.00     0.184 HD
HETATM   42  C3  UNL     1     -47.717  76.681 102.474  1.00  0.00     0.038 A
HETATM   43  C18 UNL     1     -45.989  75.382 101.538  1.00  0.00     0.157 A
HETATM   44  C2  UNL     1     -46.806  77.666 102.792  1.00  0.00     0.050 A
HETATM   45  C1  UNL     1     -45.476  77.499 102.478  1.00  0.00     0.100 A
HETATM   46  N15 UNL     1     -45.099  76.347 101.851  1.00  0.00    -0.326 N
ATOM     47  H15 UNL     1     -44.116  76.212 101.612  1.00  0.00     0.169 HD
BRANCH  45  48
HETATM   48  N1  UNL     1     -44.627  78.424 102.778  1.00  0.00    -0.385 N
ATOM     49  H12 UNL     1     -43.834  78.645 102.176  1.00  0.00     0.157 HD
ATOM     50  H11 UNL     1     -44.743  78.956 103.640  1.00  0.00     0.157 HD
ENDBRANCH  45  48
ENDBRANCH  33  37
ENDBRANCH   1  31
TORSDOF 12
ENDMDL