MODEL 3
REMARK VINA RESULT: -10.044575242      0.856      1.222
REMARK  11 active torsions:
REMARK  status: ('A' for Active; 'I' for Inactive)
REMARK    1  A    between atoms: C2_2  and  N2_6
REMARK    2  A    between atoms: N2_6  and  C3_8
REMARK    3  A    between atoms: C3_8  and  O1_9
REMARK    4  A    between atoms: C3_8  and  O2_11
REMARK    5  A    between atoms: O2_11  and  C4_12
REMARK    6  A    between atoms: C6_21  and  N6_22
REMARK    7  A    between atoms: N7_25  and  C9_26
REMARK    8  A    between atoms: C9_26  and  C10_27
REMARK    9  A    between atoms: C14_31  and  N8_32
REMARK   10  A    between atoms: C16_34  and  C17_35
REMARK   11  A    between atoms: C21_46  and  N12_47
ROOT
HETATM    1  C4  UNL     1     -38.702  73.403  99.115  1.00  0.00     0.206 C
HETATM    2  N3  UNL     1     -39.059  74.546  99.808  1.00  0.00    -0.166 N
ATOM      3  H3  UNL     1     -38.297  75.155 100.107  1.00  0.00     0.186 HD
HETATM    4  C5  UNL     1     -40.329  74.948 100.134  1.00  0.00     0.692 C
HETATM    5  N4  UNL     1     -40.426  76.056 100.602  1.00  0.00    -0.234 N
ATOM      6  H41 UNL     1     -41.370  76.356 100.844  1.00  0.00     0.174 HD
ATOM      7  H42 UNL     1     -39.580  76.613 100.722  1.00  0.00     0.174 HD
HETATM    8  N5  UNL     1     -41.463  74.201  99.972  1.00  0.00    -0.022 N
ATOM      9  H5  UNL     1     -42.333  74.735  99.987  1.00  0.00     0.203 HD
HETATM   10  C6  UNL     1     -41.617  72.880  99.798  1.00  0.00     0.696 C
HETATM   11  N11 UNL     1     -40.684  72.013  99.373  1.00  0.00    -0.172 N
ATOM     12  H11 UNL     1     -41.026  71.107  99.052  1.00  0.00     0.186 HD
HETATM   13  C21 UNL     1     -39.328  72.201  99.319  1.00  0.00     0.167 C
ENDROOT
BRANCH  10  14
HETATM   14  N6  UNL     1     -42.898  72.372 100.100  1.00  0.00    -0.214 N
HETATM   15  C7  UNL     1     -43.592  72.852 101.265  1.00  0.00     0.160 C
HETATM   16  C8  UNL     1     -45.056  72.518 101.154  1.00  0.00     0.137 C
HETATM   17  N7  UNL     1     -45.525  72.654  99.827  1.00  0.00    -0.405 N
HETATM   18  C19 UNL     1     -44.845  71.954  98.806  1.00  0.00     0.137 C
HETATM   19  C20 UNL     1     -43.517  71.380  99.265  1.00  0.00     0.160 C
BRANCH  17  20
HETATM   20  C9  UNL     1     -46.924  72.797  99.687  1.00  0.00     0.155 C
BRANCH  20  21
HETATM   21  C10 UNL     1     -47.428  73.849 100.607  1.00  0.00    -0.038 A
HETATM   22  C11 UNL     1     -48.742  73.836 101.040  1.00  0.00     0.009 A
HETATM   23  C12 UNL     1     -49.216  74.809 101.894  1.00  0.00     0.003 A
HETATM   24  C13 UNL     1     -48.362  75.827 102.334  1.00  0.00     0.031 A
HETATM   25  C14 UNL     1     -47.047  75.872 101.923  1.00  0.00     0.054 A
HETATM   26  C18 UNL     1     -46.614  74.880 101.068  1.00  0.00     0.040 A
BRANCH  25  27
HETATM   27  N8  UNL     1     -46.139  76.886 102.338  1.00  0.00    -0.249 N
HETATM   28  C15 UNL     1     -44.808  76.929 102.105  1.00  0.00     0.152 A
HETATM   29  C16 UNL     1     -44.259  78.069 102.667  1.00  0.00     0.140 A
HETATM   30  N9  UNL     1     -45.300  78.697 103.239  1.00  0.00    -0.276 N
HETATM   31  N10 UNL     1     -46.399  77.987 103.036  1.00  0.00    -0.015 NA
ATOM     32  H9  UNL     1     -45.252  79.580 103.747  1.00  0.00     0.184 HD
BRANCH  29  33
HETATM   33  C17 UNL     1     -42.875  78.515 102.658  1.00  0.00     0.229 C
HETATM   34  O3  UNL     1     -42.643  79.742 102.633  1.00  0.00    -0.643 OA
HETATM   35  O4  UNL     1     -41.803  77.639 102.677  1.00  0.00    -0.643 OA
ENDBRANCH  29  33
ENDBRANCH  25  27
ENDBRANCH  20  21
ENDBRANCH  17  20
ENDBRANCH  10  14
BRANCH  13  36
HETATM   36  N12 UNL     1     -38.614  71.181  99.520  1.00  0.00    -0.382 N
ATOM     37 2H12 UNL     1     -38.533  70.526  98.742  1.00  0.00     0.157 HD
ATOM     38 1H12 UNL     1     -38.198  71.054 100.442  1.00  0.00     0.157 HD
ENDBRANCH  13  36
BRANCH   1  39
HETATM   39  O2  UNL     1     -37.710  73.532  98.231  1.00  0.00    -0.282 OA
BRANCH  39  40
HETATM   40  C3  UNL     1     -36.414  73.905  98.320  1.00  0.00     0.377 C
BRANCH  40  41
HETATM   41  N2  UNL     1     -36.317  75.336  98.012  1.00  0.00    -0.332 N
ATOM     42  H2  UNL     1     -35.679  75.924  98.547  1.00  0.00     0.165 HD
BRANCH  41  43
HETATM   43  C2  UNL     1     -37.098  75.911  96.984  1.00  0.00     0.070 C
HETATM   44  C1  UNL     1     -38.209  76.816  97.352  1.00  0.00     0.088 C
HETATM   45  N1  UNL     1     -36.866  75.667  95.734  1.00  0.00    -0.389 N
ATOM     46  H12 UNL     1     -37.429  76.083  94.992  1.00  0.00     0.157 HD
ATOM     47  H11 UNL     1     -36.100  75.044  95.480  1.00  0.00     0.157 HD
ENDBRANCH  41  43
ENDBRANCH  40  41
BRANCH  40  48
HETATM   48  O1  UNL     1     -35.634  73.274  97.285  1.00  0.00    -0.354 OA
ATOM     49  H1  UNL     1     -35.355  73.998  96.736  1.00  0.00     0.214 HD
ENDBRANCH  40  48
ENDBRANCH  39  40
ENDBRANCH   1  39
TORSDOF 11
ENDMDL