MODEL 5
REMARK VINA RESULT: -10.353773237      1.652      3.364
REMARK  8 active torsions:
REMARK  status: ('A' for Active; 'I' for Inactive)
REMARK       I    between atoms: C1_4  and  N3_6
REMARK       I    between atoms: N3_6  and  C2_8
REMARK    1  A    between atoms: C2_8  and  C3_10
REMARK    2  A    between atoms: C3_10  and  N4_11
REMARK    3  A    between atoms: C5_13  and  C6_14
REMARK    4  A    between atoms: C9_17  and  N5_18
REMARK    5  A    between atoms: C11_20  and  S1_21
REMARK    6  A    between atoms: S1_21  and  C12_22
REMARK    7  A    between atoms: C13_25  and  N7_26
REMARK    8  A    between atoms: C15_35  and  N10_36
ROOT
HETATM    1  N5  UNL     1     -44.326  74.797 100.876  1.00  0.00    -0.248 N
HETATM    2  C10 UNL     1     -43.652  73.627 100.807  1.00  0.00     0.152 A
HETATM    3  C11 UNL     1     -42.358  73.853 100.401  1.00  0.00     0.106 A
HETATM    4  N14 UNL     1     -42.274  75.187 100.230  1.00  0.00    -0.276 N
ATOM      5  H14 UNL     1     -41.442  75.695  99.929  1.00  0.00     0.185 HD
HETATM    6  N15 UNL     1     -43.453  75.734 100.516  1.00  0.00    -0.015 NA
ENDROOT
BRANCH   1   7
HETATM    7  C9  UNL     1     -45.693  75.001 101.257  1.00  0.00     0.054 A
HETATM    8  C8  UNL     1     -46.123  76.131 101.881  1.00  0.00     0.032 A
HETATM    9  C7  UNL     1     -47.462  76.240 102.212  1.00  0.00     0.014 A
HETATM   10  C6  UNL     1     -48.388  75.249 101.937  1.00  0.00    -0.023 A
HETATM   11  C18 UNL     1     -47.921  74.108 101.301  1.00  0.00     0.014 A
HETATM   12  C17 UNL     1     -46.604  74.001 100.976  1.00  0.00     0.032 A
BRANCH  10  13
HETATM   13  C5  UNL     1     -49.799  75.367 102.288  1.00  0.00     0.008 A
HETATM   14  C4  UNL     1     -50.443  76.363 102.987  1.00  0.00     0.124 A
HETATM   15  N4  UNL     1     -51.754  76.078 103.088  1.00  0.00    -0.294 N
HETATM   16  N16 UNL     1     -51.954  74.910 102.460  1.00  0.00    -0.309 N
HETATM   17  C19 UNL     1     -50.786  74.456 101.965  1.00  0.00     0.121 A
ATOM     18  H16 UNL     1     -52.853  74.437 102.371  1.00  0.00     0.186 HD
BRANCH  15  19
HETATM   19  C3  UNL     1     -52.783  76.857 103.741  1.00  0.00     0.251 C
BRANCH  19  20
HETATM   20  C2  UNL     1     -53.157  76.185 104.999  1.00  0.00     0.243 C
HETATM   21  N3  UNL     1     -53.136  76.859 106.262  1.00  0.00    -0.300 N
HETATM   22  C1  UNL     1     -53.497  76.203 107.466  1.00  0.00     0.188 C
ATOM     23  H3  UNL     1     -52.854  77.838 106.298  1.00  0.00     0.171 HD
HETATM   24  N1  UNL     1     -53.457  76.867 108.571  1.00  0.00    -0.373 N
HETATM   25  N2  UNL     1     -53.902  74.842 107.493  1.00  0.00    -0.064 NA
ATOM     26  H12 UNL     1     -53.717  76.395 109.438  1.00  0.00     0.158 HD
ATOM     27  H11 UNL     1     -53.166  77.844 108.551  1.00  0.00     0.158 HD
HETATM   28  O1  UNL     1     -53.508  74.988 104.989  1.00  0.00    -0.271 OA
ENDBRANCH  19  20
ENDBRANCH  15  19
ENDBRANCH  10  13
ENDBRANCH   1   7
BRANCH   3  29
HETATM   29  S1  UNL     1     -41.097  72.617 100.166  1.00  0.00    -0.049 SA
BRANCH  29  30
HETATM   30  C12 UNL     1     -39.510  73.371 100.465  1.00  0.00     0.125 A
HETATM   31  N6  UNL     1     -39.080  74.456  99.797  1.00  0.00    -0.183 N
HETATM   32  C13 UNL     1     -37.882  75.008 100.036  1.00  0.00     0.678 A
ATOM     33  H6  UNL     1     -39.683  74.871  99.086  1.00  0.00     0.185 HD
HETATM   34  N8  UNL     1     -37.087  74.459 100.976  1.00  0.00    -0.175 N
HETATM   35  C14 UNL     1     -37.484  73.377 101.663  1.00  0.00     0.146 A
ATOM     36  H8  UNL     1     -36.173  74.870 101.167  1.00  0.00     0.186 HD
HETATM   37  N9  UNL     1     -36.738  72.821 102.580  1.00  0.00    -0.383 N
HETATM   38  C15 UNL     1     -38.714  72.791 101.433  1.00  0.00     0.137 A
ATOM     39  H92 UNL     1     -35.830  73.254 102.750  1.00  0.00     0.157 HD
ATOM     40  H91 UNL     1     -37.040  71.999 103.103  1.00  0.00     0.157 HD
BRANCH  32  41
HETATM   41  N7  UNL     1     -37.458  76.056  99.394  1.00  0.00    -0.234 N
ATOM     42  H72 UNL     1     -37.225  75.964  98.405  1.00  0.00     0.174 HD
ATOM     43  H71 UNL     1     -37.348  76.966  99.844  1.00  0.00     0.174 HD
ENDBRANCH  32  41
BRANCH  38  44
HETATM   44  N10 UNL     1     -39.125  71.639 102.170  1.00  0.00    -0.232 N
HETATM   45  C16 UNL     1     -38.953  70.337 101.841  1.00  0.00     0.223 A
HETATM   46  N11 UNL     1     -39.486  69.558 102.805  1.00  0.00    -0.277 N
HETATM   47  N12 UNL     1     -39.971  70.396 103.702  1.00  0.00    -0.005 NA
ATOM     48  H11 UNL     1     -39.509  68.539 102.834  1.00  0.00     0.185 HD
HETATM   49  N13 UNL     1     -39.753  71.648 103.318  1.00  0.00    -0.218 N
ATOM     50  H13 UNL     1     -40.030  72.483 103.833  1.00  0.00     0.206 HD
ENDBRANCH  38  44
ENDBRANCH  29  30
ENDBRANCH   3  29
TORSDOF 8
ENDMDL