MODEL 3
REMARK VINA RESULT: -8.206021944      2.425      8.181
REMARK  13 active torsions:
REMARK  status: ('A' for Active; 'I' for Inactive)
REMARK    1  A    between atoms: O1_2  and  C2_3
REMARK    2  A    between atoms: C2_3  and  C3_5
REMARK    3  A    between atoms: C3_5  and  C4_6
REMARK    4  A    between atoms: C3_5  and  C17_32
REMARK    5  A    between atoms: C4_6  and  C5_7
REMARK    6  A    between atoms: C5_7  and  C6_8
REMARK    7  A    between atoms: N1_12  and  N2_14
REMARK    8  A    between atoms: N2_14  and  C10_16
REMARK    9  A    between atoms: C10_16  and  C11_17
REMARK   10  A    between atoms: C10_16  and  C16_27
REMARK   11  A    between atoms: C16_27  and  O3_28
REMARK   12  A    between atoms: C16_27  and  O4_30
REMARK   13  A    between atoms: C21_46  and  N10_47
ROOT
HETATM    1  N10 UNL     1     -47.619  78.658 103.270  1.00  0.00    -0.289 N
ATOM      2  H10 UNL     1     -48.437  79.028 102.785  1.00  0.00     0.178 HD
HETATM    3  C22 UNL     1     -47.193  79.263 104.434  1.00  0.00     0.182 C
HETATM    4  N11 UNL     1     -46.844  79.758 105.423  1.00  0.00    -0.172 NA
ENDROOT
BRANCH   1   5
HETATM    5  C21 UNL     1     -47.001  77.624 102.778  1.00  0.00     0.105 A
HETATM    6  C19 UNL     1     -45.570  77.435 102.576  1.00  0.00     0.172 A
HETATM    7  N7  UNL     1     -44.506  78.217 102.818  1.00  0.00    -0.173 N
HETATM    8  N8  UNL     1     -45.400  76.211 102.040  1.00  0.00    -0.223 N
HETATM    9  C18 UNL     1     -43.281  77.784 102.530  1.00  0.00     0.678 A
ATOM     10  H7  UNL     1     -44.637  79.145 103.223  1.00  0.00     0.186 HD
HETATM   11  N5  UNL     1     -43.139  76.557 101.996  1.00  0.00    -0.178 N
HETATM   12  N6  UNL     1     -42.289  78.569 102.779  1.00  0.00    -0.234 N
HETATM   13  C17 UNL     1     -44.175  75.747 101.739  1.00  0.00     0.140 A
ATOM     14  H5  UNL     1     -42.198  76.228 101.777  1.00  0.00     0.185 HD
ATOM     15  H62 UNL     1     -41.350  78.237 102.559  1.00  0.00     0.174 HD
ATOM     16  H61 UNL     1     -42.396  79.498 103.184  1.00  0.00     0.174 HD
HETATM   17  N9  UNL     1     -46.652  75.652 101.910  1.00  0.00    -0.300 N
HETATM   18  C20 UNL     1     -47.607  76.387 102.303  1.00  0.00     0.141 A
ATOM     19  H9  UNL     1     -46.800  74.718 101.526  1.00  0.00     0.186 HD
BRANCH  13  20
HETATM   20  C3  UNL     1     -44.026  74.386 101.147  1.00  0.00     0.202 C
BRANCH  20  21
HETATM   21  C2  UNL     1     -45.058  74.197 100.073  1.00  0.00     0.275 C
HETATM   22  O2  UNL     1     -45.253  75.017  99.155  1.00  0.00    -0.264 OA
BRANCH  21  23
HETATM   23  O1  UNL     1     -45.859  73.061 100.064  1.00  0.00    -0.326 OA
HETATM   24  C1  UNL     1     -46.572  72.676  98.888  1.00  0.00     0.213 C
ENDBRANCH  21  23
ENDBRANCH  20  21
BRANCH  20  25
HETATM   25  C4  UNL     1     -42.657  74.094 100.675  1.00  0.00     0.025 C
HETATM   26  N1  UNL     1     -42.004  74.924  99.960  1.00  0.00    -0.311 N
ATOM     27  H1  UNL     1     -42.519  75.781  99.759  1.00  0.00     0.186 HD
BRANCH  25  28
HETATM   28  C5  UNL     1     -42.012  72.825 101.021  1.00  0.00     0.063 C
BRANCH  28  29
HETATM   29  C6  UNL     1     -42.242  71.635 100.184  1.00  0.00    -0.046 C
HETATM   30  C7  UNL     1     -42.736  71.781  98.803  1.00  0.00     0.015 C
HETATM   31  C8  UNL     1     -43.307  70.790 100.930  1.00  0.00     0.015 C
HETATM   32  C9  UNL     1     -41.022  70.697 100.165  1.00  0.00     0.015 C
ENDBRANCH  28  29
ENDBRANCH  25  28
BRANCH  26  33
HETATM   33  N2  UNL     1     -40.770  74.898  99.415  1.00  0.00    -0.323 N
ATOM     34  H2  UNL     1     -40.668  74.923  98.401  1.00  0.00     0.181 HD
BRANCH  33  35
HETATM   35  C10 UNL     1     -39.583  74.835 100.252  1.00  0.00     0.187 C
BRANCH  35  36
HETATM   36  C11 UNL     1     -38.425  74.277  99.513  1.00  0.00    -0.025 A
HETATM   37  C12 UNL     1     -37.877  73.096  99.952  1.00  0.00     0.026 A
HETATM   38  C13 UNL     1     -36.787  72.514  99.306  1.00  0.00     0.090 A
HETATM   39  N3  UNL     1     -36.250  73.094  98.241  1.00  0.00    -0.353 N
HETATM   40  C14 UNL     1     -36.769  74.250  97.794  1.00  0.00     0.099 A
ATOM     41  H3  UNL     1     -35.453  72.669  97.768  1.00  0.00     0.166 HD
HETATM   42  N4  UNL     1     -36.214  74.779  96.756  1.00  0.00    -0.385 N
HETATM   43  C15 UNL     1     -37.857  74.869  98.408  1.00  0.00     0.057 A
ATOM     44  H42 UNL     1     -35.418  74.326  96.307  1.00  0.00     0.157 HD
ATOM     45  H41 UNL     1     -36.607  75.657  96.417  1.00  0.00     0.157 HD
ENDBRANCH  35  36
BRANCH  35  46
HETATM   46  C16 UNL     1     -39.188  76.232 100.709  1.00  0.00     0.282 C
BRANCH  46  47
HETATM   47  O3  UNL     1     -40.200  76.812 101.438  1.00  0.00    -0.369 OA
ATOM     48  H3  UNL     1     -40.285  76.397 102.288  1.00  0.00     0.212 HD
ENDBRANCH  46  47
BRANCH  46  49
HETATM   49  O4  UNL     1     -38.032  76.200 101.466  1.00  0.00    -0.369 OA
ATOM     50  H4  UNL     1     -37.679  77.074 101.588  1.00  0.00     0.212 HD
ENDBRANCH  46  49
ENDBRANCH  35  46
ENDBRANCH  33  35
ENDBRANCH  26  33
ENDBRANCH  20  25
ENDBRANCH  13  20
ENDBRANCH   1   5
TORSDOF 13
ENDMDL