MODEL 5
REMARK VINA RESULT: -4.195530810      2.484      3.290
REMARK  2 active torsions:
REMARK  status: ('A' for Active; 'I' for Inactive)
REMARK    1  A    between atoms: S1_2  and  C2_3
REMARK    2  A    between atoms: N2_5  and  C3_7
ROOT
HETATM    1  C2  UNL     1      74.497  45.067  50.714  1.00  0.00     0.155 C
HETATM    2  N1  UNL     1      75.583  44.363  50.126  1.00  0.00    -0.075 NA
HETATM    3  N2  UNL     1      73.560  45.501  49.943  1.00  0.00    -0.330 N
ATOM      4  H2  UNL     1      73.618  45.331  48.938  1.00  0.00     0.168 HD
ENDROOT
BRANCH   3   5
HETATM    5  C3  UNL     1      72.450  46.211  50.468  1.00  0.00     0.072 C
HETATM    6  C4  UNL     1      72.446  47.677  50.663  1.00  0.00     0.088 C
HETATM    7  N3  UNL     1      71.399  45.559  50.790  1.00  0.00    -0.389 N
ATOM      8  H32 UNL     1      71.402  44.548  50.656  1.00  0.00     0.157 HD
ATOM      9  H31 UNL     1      70.602  46.069  51.168  1.00  0.00     0.157 HD
ENDBRANCH   3   5
BRANCH   1  10
HETATM   10  S1  UNL     1      74.388  45.366  52.466  1.00  0.00    -0.102 SA
HETATM   11  C1  UNL     1      74.787  43.928  53.446  1.00  0.00     0.098 C
ENDBRANCH   1  10
TORSDOF 2
ENDMDL