MODEL 3
REMARK VINA RESULT: -4.803241396      1.490      2.386
REMARK  2 active torsions:
REMARK  status: ('A' for Active; 'I' for Inactive)
REMARK    1  A    between atoms: O1_1  and  C1_3
REMARK    2  A    between atoms: C6_9  and  O3_10
ROOT
HETATM    1  C1  UNL     1      71.466  45.506  51.053  1.00  0.00     0.155 C
HETATM    2  C2  UNL     1      72.935  45.196  51.205  1.00  0.00     0.043 C
HETATM    3  C3  UNL     1      73.035  43.730  51.559  1.00  0.00     0.175 C
HETATM    4  O2  UNL     1      72.522  43.607  52.839  1.00  0.00    -0.383 OA
HETATM    5  C4  UNL     1      72.120  44.873  53.263  1.00  0.00     0.153 C
HETATM    6  C5  UNL     1      73.184  45.776  52.608  1.00  0.00     0.044 C
HETATM    7  C6  UNL     1      70.911  45.337  52.476  1.00  0.00     0.176 C
ENDROOT
BRANCH   1   8
HETATM    8  O1  UNL     1      71.328  46.805  50.636  1.00  0.00    -0.392 OA
ATOM      9  H1  UNL     1      71.638  46.874  49.740  1.00  0.00     0.210 HD
ENDBRANCH   1   8
BRANCH   7  10
HETATM   10  O3  UNL     1      69.857  44.464  52.523  1.00  0.00    -0.390 OA
ATOM     11  H3  UNL     1      69.334  44.571  53.309  1.00  0.00     0.210 HD
ENDBRANCH   7  10
TORSDOF 2
ENDMDL