MODEL 2
REMARK VINA RESULT: -4.602372789      1.268      2.882
REMARK  2 active torsions:
REMARK  status: ('A' for Active; 'I' for Inactive)
REMARK    1  A    between atoms: C3_4  and  O1_6
REMARK    2  A    between atoms: C6_9  and  O2_10
ROOT
HETATM    1  C1  UNL     1      73.194  46.259  50.179  1.00  0.00     0.313 C
HETATM    2  N1  UNL     1      72.710  46.083  51.507  1.00  0.00     0.115 N
HETATM    3  C2  UNL     1      71.801  47.080  51.965  1.00  0.00     0.312 C
HETATM    4  C3  UNL     1      70.815  46.391  52.866  1.00  0.00     0.085 C
HETATM    5  C4  UNL     1      71.271  46.351  54.299  1.00  0.00     0.047 C
HETATM    6  C5  UNL     1      70.784  44.980  52.344  1.00  0.00     0.103 C
HETATM    7  C6  UNL     1      72.185  44.791  51.801  1.00  0.00     0.359 C
ENDROOT
BRANCH   4   8
HETATM    8  O1  UNL     1      69.578  46.995  52.704  1.00  0.00    -0.388 OA
ATOM      9  H1  UNL     1      69.639  47.891  53.015  1.00  0.00     0.210 HD
ENDBRANCH   4   8
BRANCH   7  10
HETATM   10  O2  UNL     1      72.952  44.246  52.843  1.00  0.00    -0.368 OA
ATOM     11  H2  UNL     1      73.847  44.542  52.728  1.00  0.00     0.212 HD
ENDBRANCH   7  10
TORSDOF 2
ENDMDL