MODEL 3
REMARK VINA RESULT: -5.071385763      1.388      1.971
REMARK  2 active torsions:
REMARK  status: ('A' for Active; 'I' for Inactive)
REMARK    1  A    between atoms: C3_4  and  O2_5
REMARK    2  A    between atoms: C4_7  and  O3_8
ROOT
HETATM    1  C1  UNL     1      74.250  45.288  53.242  1.00  0.00     0.040 C
HETATM    2  C2  UNL     1      73.059  45.418  52.334  1.00  0.00     0.127 C
HETATM    3  O1  UNL     1      73.191  46.439  51.406  1.00  0.00    -0.353 OA
HETATM    4  C3  UNL     1      71.859  46.766  51.089  1.00  0.00     0.286 C
HETATM    5  C4  UNL     1      71.345  47.021  52.505  1.00  0.00     0.179 C
HETATM    6  C5  UNL     1      71.811  45.702  53.137  1.00  0.00     0.044 C
HETATM    7  C6  UNL     1      70.780  44.638  52.792  1.00  0.00     0.015 C
ENDROOT
BRANCH   4   8
HETATM    8  O2  UNL     1      71.749  47.860  50.279  1.00  0.00    -0.369 OA
ATOM      9  H2  UNL     1      70.986  47.834  49.714  1.00  0.00     0.212 HD
ENDBRANCH   4   8
BRANCH   5  10
HETATM   10  O3  UNL     1      69.982  47.167  52.551  1.00  0.00    -0.390 OA
ATOM     11  H3  UNL     1      69.624  46.974  53.410  1.00  0.00     0.210 HD
ENDBRANCH   5  10
TORSDOF 2
ENDMDL