MODEL 2
REMARK VINA RESULT: -4.926103778      2.014      2.455
REMARK  2 active torsions:
REMARK  status: ('A' for Active; 'I' for Inactive)
REMARK    1  A    between atoms: C3_4  and  N1_5
REMARK    2  A    between atoms: C4_9  and  O2_10
ROOT
HETATM    1  C1  UNL     1      74.536  45.072  53.920  1.00  0.00     0.040 C
HETATM    2  C2  UNL     1      73.505  45.403  52.921  1.00  0.00     0.126 C
HETATM    3  O1  UNL     1      72.323  45.928  53.479  1.00  0.00    -0.352 OA
HETATM    4  C3  UNL     1      71.431  45.977  52.415  1.00  0.00     0.348 C
HETATM    5  C4  UNL     1      71.815  44.907  51.442  1.00  0.00     0.180 C
HETATM    6  C5  UNL     1      72.890  44.165  52.251  1.00  0.00     0.043 C
HETATM    7  C6  UNL     1      73.851  43.447  51.381  1.00  0.00     0.015 C
ENDROOT
BRANCH   4   8
HETATM    8  N1  UNL     1      70.049  45.819  52.861  1.00  0.00    -0.050 N
ATOM      9  H13 UNL     1      69.979  45.863  53.877  1.00  0.00     0.277 HD
ATOM     10  H12 UNL     1      69.488  46.638  52.628  1.00  0.00     0.277 HD
ATOM     11  H11 UNL     1      69.630  44.964  52.495  1.00  0.00     0.277 HD
ENDBRANCH   4   8
BRANCH   5  12
HETATM   12  O2  UNL     1      72.490  45.512  50.386  1.00  0.00    -0.391 OA
ATOM     13  H2  UNL     1      72.375  46.452  50.466  1.00  0.00     0.210 HD
ENDBRANCH   5  12
TORSDOF 2
ENDMDL