MODEL 1
REMARK VINA RESULT: -4.614853261      0.000      0.000
REMARK  2 active torsions:
REMARK  status: ('A' for Active; 'I' for Inactive)
REMARK    1  A    between atoms: C3_3  and  N1_4
REMARK    2  A    between atoms: C6_11  and  O1_12
ROOT
HETATM    1  C1  UNL     1      71.194  46.241  53.143  1.00  0.00     0.016 C
HETATM    2  C2  UNL     1      72.344  46.346  52.176  1.00  0.00     0.073 C
HETATM    3  C3  UNL     1      73.280  45.178  52.235  1.00  0.00     0.219 C
HETATM    4  C4  UNL     1      73.934  45.216  50.872  1.00  0.00     0.308 C
HETATM    5  N2  UNL     1      73.173  46.113  50.052  1.00  0.00     0.115 N
HETATM    6  C5  UNL     1      73.751  47.450  50.012  1.00  0.00     0.313 C
HETATM    7  C6  UNL     1      71.871  46.180  50.724  1.00  0.00     0.361 C
ENDROOT
BRANCH   3   8
HETATM    8  N1  UNL     1      74.296  45.288  53.240  1.00  0.00    -0.073 N
ATOM      9  H13 UNL     1      74.535  46.267  53.401  1.00  0.00     0.274 HD
ATOM     10  H12 UNL     1      73.917  45.047  54.156  1.00  0.00     0.274 HD
ATOM     11  H11 UNL     1      75.137  44.743  53.049  1.00  0.00     0.274 HD
ENDBRANCH   3   8
BRANCH   7  12
HETATM   12  O1  UNL     1      71.097  47.211  50.296  1.00  0.00    -0.367 OA
ATOM     13  H1  UNL     1      71.286  47.473  49.403  1.00  0.00     0.212 HD
ENDBRANCH   7  12
TORSDOF 2
ENDMDL