MODEL 5
REMARK VINA RESULT: -4.769551674      3.372      5.005
REMARK  1 active torsions:
REMARK  status: ('A' for Active; 'I' for Inactive)
REMARK    1  A    between atoms: C5_6  and  O2_7
ROOT
HETATM    1  C1  UNL     1      74.271  45.009  53.429  1.00  0.00     0.078 C
HETATM    2  C2  UNL     1      72.809  45.345  53.116  1.00  0.00     0.156 C
HETATM    3  C3  UNL     1      72.212  44.112  52.492  1.00  0.00     0.078 C
HETATM    4  O1  UNL     1      72.857  46.386  52.179  1.00  0.00    -0.353 OA
HETATM    5  C4  UNL     1      71.585  46.839  51.869  1.00  0.00     0.205 C
HETATM    6  C5  UNL     1      70.819  47.278  53.101  1.00  0.00     0.165 C
HETATM    7  C6  UNL     1      70.962  46.239  54.192  1.00  0.00     0.205 C
HETATM    8  O3  UNL     1      72.220  45.714  54.297  1.00  0.00    -0.353 OA
ENDROOT
BRANCH   6   9
HETATM    9  O2  UNL     1      69.506  47.467  52.735  1.00  0.00    -0.391 OA
ATOM     10  H2  UNL     1      69.204  48.270  53.141  1.00  0.00     0.210 HD
ENDBRANCH   6   9
TORSDOF 1
ENDMDL