MODEL 2
REMARK VINA RESULT: -5.136797716      1.990      3.016
REMARK  2 active torsions:
REMARK  status: ('A' for Active; 'I' for Inactive)
REMARK    1  A    between atoms: C5_5  and  O1_6
REMARK    2  A    between atoms: C6_8  and  O2_9
ROOT
HETATM    1  C1  UNL     1      73.792  43.636  51.943  1.00  0.00     0.045 C
HETATM    2  C2  UNL     1      73.241  44.408  53.112  1.00  0.00     0.059 C
HETATM    3  C3  UNL     1      74.370  45.003  53.924  1.00  0.00     0.045 C
HETATM    4  C4  UNL     1      72.339  45.539  52.703  1.00  0.00     0.074 C
HETATM    5  C5  UNL     1      71.111  45.259  53.580  1.00  0.00     0.176 C
HETATM    6  C6  UNL     1      71.181  43.738  53.626  1.00  0.00     0.286 C
HETATM    7  O3  UNL     1      72.533  43.556  53.917  1.00  0.00    -0.349 OA
ENDROOT
BRANCH   5   8
HETATM    8  O1  UNL     1      69.946  45.687  52.958  1.00  0.00    -0.391 OA
ATOM      9  H1  UNL     1      69.540  44.981  52.469  1.00  0.00     0.210 HD
ENDBRANCH   5   8
BRANCH   6  10
HETATM   10  O2  UNL     1      70.354  43.186  54.561  1.00  0.00    -0.369 OA
ATOM     11  H2  UNL     1      70.130  42.280  54.379  1.00  0.00     0.212 HD
ENDBRANCH   6  10
TORSDOF 2
ENDMDL