MODEL 1
REMARK VINA RESULT: -5.001101195      0.000      0.000
REMARK  2 active torsions:
REMARK  status: ('A' for Active; 'I' for Inactive)
REMARK    1  A    between atoms: C4_5  and  O2_7
REMARK    2  A    between atoms: C6_9  and  O3_10
ROOT
HETATM    1  C1  UNL     1      70.662  45.909  54.319  1.00  0.00     0.042 C
HETATM    2  C2  UNL     1      71.440  45.804  53.070  1.00  0.00     0.149 C
HETATM    3  O1  UNL     1      70.763  45.126  52.037  1.00  0.00    -0.381 OA
HETATM    4  C3  UNL     1      71.733  45.202  51.020  1.00  0.00     0.208 C
HETATM    5  C4  UNL     1      71.998  46.708  50.982  1.00  0.00     0.103 C
HETATM    6  C5  UNL     1      73.385  46.980  50.483  1.00  0.00     0.051 C
HETATM    7  C6  UNL     1      71.872  47.089  52.460  1.00  0.00     0.182 C
ENDROOT
BRANCH   5   8
HETATM    8  O2  UNL     1      71.012  47.311  50.215  1.00  0.00    -0.385 OA
ATOM      9  H2  UNL     1      70.669  46.669  49.605  1.00  0.00     0.210 HD
ENDBRANCH   5   8
BRANCH   7  10
HETATM   10  O3  UNL     1      71.009  48.138  52.617  1.00  0.00    -0.390 OA
ATOM     11  H3  UNL     1      70.945  48.731  51.877  1.00  0.00     0.210 HD
ENDBRANCH   7  10
TORSDOF 2
ENDMDL