MODEL 1
REMARK VINA RESULT: -4.888648874      0.000      0.000
REMARK  2 active torsions:
REMARK  status: ('A' for Active; 'I' for Inactive)
REMARK    1  A    between atoms: N1_4  and  O1_5
REMARK    2  A    between atoms: C6_9  and  O2_10
ROOT
HETATM    1  C1  UNL     1      72.887  43.808  51.674  1.00  0.00     0.014 C
HETATM    2  C2  UNL     1      72.011  45.038  51.626  1.00  0.00     0.025 C
HETATM    3  C3  UNL     1      72.860  46.264  51.480  1.00  0.00     0.127 C
HETATM    4  N1  UNL     1      72.135  47.483  51.561  1.00  0.00    -0.199 NA
HETATM    5  C4  UNL     1      71.116  47.546  52.539  1.00  0.00     0.123 C
HETATM    6  C5  UNL     1      71.064  46.414  53.502  1.00  0.00     0.049 C
HETATM    7  C6  UNL     1      71.177  45.059  52.870  1.00  0.00     0.124 C
ENDROOT
BRANCH   4   8
HETATM    8  O1  UNL     1      71.666  47.815  50.320  1.00  0.00    -0.313 OA
ATOM      9  H1  UNL     1      70.720  47.731  50.308  1.00  0.00     0.237 HD
ENDBRANCH   4   8
BRANCH   7  10
HETATM   10  O2  UNL     1      69.918  44.540  52.536  1.00  0.00    -0.395 OA
ATOM     11  H2  UNL     1      69.551  44.159  53.325  1.00  0.00     0.210 HD
ENDBRANCH   7  10
TORSDOF 2
ENDMDL