MODEL 3
REMARK VINA RESULT: -8.311982333      1.849      2.199
REMARK  10 active torsions:
REMARK  status: ('A' for Active; 'I' for Inactive)
REMARK    1  A    between atoms: C2_2  and  C7_17
REMARK    2  A    between atoms: N1_3  and  N2_5
REMARK       I    between atoms: N2_5  and  C3_7
REMARK    3  A    between atoms: C3_7  and  C4_9
REMARK    4  A    between atoms: C7_17  and  C8_19
REMARK    5  A    between atoms: C10_22  and  N5_23
REMARK    6  A    between atoms: N5_23  and  C11_25
REMARK    7  A    between atoms: C11_25  and  C12_29
REMARK    8  A    between atoms: C12_29  and  C13_31
REMARK    9  A    between atoms: C14_37  and  N9_38
REMARK   10  A    between atoms: N10_41  and  O6_42
ROOT
HETATM    1  C8  UNL     1      85.527  35.116  55.991  1.00  0.00     0.123 A
HETATM    2  C9  UNL     1      84.522  34.261  56.343  1.00  0.00     0.089 A
HETATM    3  S1  UNL     1      83.227  34.730  55.321  1.00  0.00    -0.061 SA
HETATM    4  C10 UNL     1      84.023  35.984  54.498  1.00  0.00     0.177 A
HETATM    5  N10 UNL     1      85.231  35.997  55.028  1.00  0.00    -0.197 N
ENDROOT
BRANCH   1   6
HETATM    6  C7  UNL     1      86.854  35.103  56.648  1.00  0.00     0.225 C
HETATM    7  O3  UNL     1      87.836  34.585  56.049  1.00  0.00    -0.284 OA
BRANCH   6   8
HETATM    8  C2  UNL     1      87.119  35.653  57.951  1.00  0.00     0.074 C
HETATM    9  C1  UNL     1      86.212  36.777  58.450  1.00  0.00     0.074 C
HETATM   10  N1  UNL     1      88.034  35.244  58.671  1.00  0.00    -0.298 N
ATOM     11  H1  UNL     1      88.538  34.499  58.190  1.00  0.00     0.186 HD
BRANCH  10  12
HETATM   12  N2  UNL     1      88.588  35.454  59.876  1.00  0.00    -0.264 N
HETATM   13  C3  UNL     1      89.808  35.102  60.445  1.00  0.00     0.288 C
HETATM   14  O1  UNL     1      90.669  34.447  59.844  1.00  0.00    -0.264 OA
ATOM     15  H2  UNL     1      87.987  35.985  60.508  1.00  0.00     0.190 HD
BRANCH  13  16
HETATM   16  C4  UNL     1      90.128  35.516  61.840  1.00  0.00     0.121 A
HETATM   17  C5  UNL     1      89.412  36.379  62.638  1.00  0.00     0.128 A
HETATM   18  N3  UNL     1      90.067  36.434  63.817  1.00  0.00    -0.316 N
HETATM   19  C6  UNL     1      91.150  35.659  63.806  1.00  0.00     0.324 A
ATOM     20  H3  UNL     1      89.771  36.997  64.614  1.00  0.00     0.170 HD
HETATM   21  O2  UNL     1      92.014  35.447  64.719  1.00  0.00    -0.247 OA
HETATM   22  N4  UNL     1      91.170  35.092  62.560  1.00  0.00    -0.303 N
ATOM     23  H4  UNL     1      91.880  34.438  62.230  1.00  0.00     0.171 HD
ENDBRANCH  13  16
ENDBRANCH  10  12
ENDBRANCH   6   8
ENDBRANCH   1   6
BRANCH   5  24
HETATM   24  O6  UNL     1      86.191  36.943  54.562  1.00  0.00    -0.280 OA
ATOM     25  H6  UNL     1      85.996  37.872  54.526  1.00  0.00     0.245 HD
ENDBRANCH   5  24
BRANCH   4  26
HETATM   26  N5  UNL     1      83.546  36.761  53.546  1.00  0.00    -0.318 N
ATOM     27  H5  UNL     1      82.824  37.422  53.834  1.00  0.00     0.169 HD
BRANCH  26  28
HETATM   28  C11 UNL     1      83.896  36.795  52.213  1.00  0.00     0.154 C
HETATM   29  N6  UNL     1      84.854  37.534  51.741  1.00  0.00    -0.382 N
ATOM     30  H62 UNL     1      85.378  38.104  52.405  1.00  0.00     0.157 HD
ATOM     31  H61 UNL     1      85.113  37.559  50.755  1.00  0.00     0.157 HD
BRANCH  28  32
HETATM   32  C12 UNL     1      83.148  35.983  51.267  1.00  0.00     0.247 C
HETATM   33  O4  UNL     1      83.412  34.751  51.183  1.00  0.00    -0.282 OA
BRANCH  32  34
HETATM   34  C13 UNL     1      82.117  36.598  50.441  1.00  0.00     0.155 A
HETATM   35  N7  UNL     1      80.826  36.780  50.738  1.00  0.00    -0.234 N
HETATM   36  O5  UNL     1      80.227  37.357  49.728  1.00  0.00    -0.155 OA
ATOM     37  H7  UNL     1      80.379  36.511  51.614  1.00  0.00     0.197 HD
HETATM   38  N8  UNL     1      81.080  37.567  48.768  1.00  0.00    -0.224 N
HETATM   39  C14 UNL     1      82.287  37.115  49.146  1.00  0.00     0.154 A
ATOM     40  H8  UNL     1      80.865  38.004  47.872  1.00  0.00     0.198 HD
BRANCH  39  41
HETATM   41  N9  UNL     1      83.397  37.122  48.515  1.00  0.00    -0.382 N
ATOM     42  H92 UNL     1      84.231  36.552  48.655  1.00  0.00     0.157 HD
ATOM     43  H91 UNL     1      83.609  37.742  47.734  1.00  0.00     0.157 HD
ENDBRANCH  39  41
ENDBRANCH  32  34
ENDBRANCH  28  32
ENDBRANCH  26  28
ENDBRANCH   4  26
TORSDOF 10
ENDMDL