MODEL 2
REMARK VINA RESULT: -6.696024657      0.842      1.232
REMARK  13 active torsions:
REMARK  status: ('A' for Active; 'I' for Inactive)
REMARK    1  A    between atoms: C4_4  and  C5_5
REMARK    2  A    between atoms: C7_8  and  O2_9
REMARK    3  A    between atoms: C7_8  and  C8_11
REMARK    4  A    between atoms: C8_11  and  O3_12
REMARK    5  A    between atoms: C13_20  and  O6_21
REMARK    6  A    between atoms: C13_20  and  C14_23
REMARK    7  A    between atoms: C14_23  and  O8_25
REMARK    8  A    between atoms: O8_25  and  C15_26
REMARK    9  A    between atoms: C15_26  and  C16_27
REMARK   10  A    between atoms: C16_27  and  C17_28
REMARK   11  A    between atoms: C19_30  and  O9_31
REMARK   12  A    between atoms: C20_33  and  O10_34
REMARK   13  A    between atoms: C20_33  and  O11_36
ROOT
HETATM    1  C1  UNL     1      84.160  35.851  60.388  1.00  0.00     0.036 C
HETATM    2  C2  UNL     1      84.176  35.920  58.923  1.00  0.00    -0.024 C
HETATM    3  C3  UNL     1      85.131  35.906  58.051  1.00  0.00    -0.035 C
HETATM    4  C4  UNL     1      86.580  35.830  57.914  1.00  0.00     0.123 C
HETATM    5  C7  UNL     1      86.835  37.066  57.038  1.00  0.00     0.096 C
HETATM    6  C9  UNL     1      85.563  37.200  56.177  1.00  0.00     0.084 C
HETATM    7  C10 UNL     1      84.770  35.992  56.524  1.00  0.00     0.097 C
HETATM    8  C11 UNL     1      85.083  34.727  55.803  1.00  0.00     0.117 C
HETATM    9  C12 UNL     1      83.687  34.986  55.279  1.00  0.00     0.232 C
HETATM   10  O4  UNL     1      83.437  35.955  56.278  1.00  0.00    -0.334 OA
HETATM   11  O5  UNL     1      83.650  35.478  53.986  1.00  0.00    -0.302 OA
HETATM   12  C13 UNL     1      82.308  35.347  53.647  1.00  0.00     0.288 C
HETATM   13  C19 UNL     1      82.038  33.905  54.011  1.00  0.00     0.259 C
HETATM   14  C20 UNL     1      82.781  33.788  55.335  1.00  0.00     0.250 C
ENDROOT
BRANCH  14  15
HETATM   15  O10 UNL     1      83.483  32.595  55.433  1.00  0.00    -0.359 OA
ATOM     16  H10 UNL     1      83.227  31.968  54.767  1.00  0.00     0.213 HD
ENDBRANCH  14  15
BRANCH  14  17
HETATM   17  O11 UNL     1      81.840  33.940  56.346  1.00  0.00    -0.359 OA
ATOM     18  H11 UNL     1      81.006  33.571  56.081  1.00  0.00     0.213 HD
ENDBRANCH  14  17
BRANCH  12  19
HETATM   19  O6  UNL     1      81.556  36.140  54.484  1.00  0.00    -0.355 OA
ATOM     20  H6  UNL     1      80.639  36.039  54.262  1.00  0.00     0.213 HD
ENDBRANCH  12  19
BRANCH  12  21
HETATM   21  C14 UNL     1      82.019  35.664  52.257  1.00  0.00     0.325 C
HETATM   22  O7  UNL     1      82.821  35.347  51.352  1.00  0.00    -0.259 OA
BRANCH  21  23
HETATM   23  O8  UNL     1      80.858  36.317  51.918  1.00  0.00    -0.317 OA
BRANCH  23  24
HETATM   24  C15 UNL     1      80.727  37.571  51.337  1.00  0.00     0.179 C
BRANCH  24  25
HETATM   25  C16 UNL     1      80.500  37.444  49.864  1.00  0.00     0.026 C
BRANCH  25  26
HETATM   26  C17 UNL     1      81.540  38.271  49.114  1.00  0.00    -0.002 C
HETATM   27  C18 UNL     1      82.532  37.358  48.470  1.00  0.00     0.005 C
ENDBRANCH  25  26
ENDBRANCH  24  25
ENDBRANCH  23  24
ENDBRANCH  21  23
ENDBRANCH  12  21
BRANCH  13  28
HETATM   28  O9  UNL     1      82.582  33.021  53.094  1.00  0.00    -0.384 OA
ATOM     29  H9  UNL     1      83.164  32.392  53.502  1.00  0.00     0.210 HD
ENDBRANCH  13  28
BRANCH   4  30
HETATM   30  C5  UNL     1      87.470  35.707  59.014  1.00  0.00     0.134 C
HETATM   31  C6  UNL     1      87.316  34.540  59.967  1.00  0.00     0.091 C
HETATM   32  O1  UNL     1      88.369  36.446  59.293  1.00  0.00    -0.298 OA
ENDBRANCH   4  30
BRANCH   5  33
HETATM   33  O2  UNL     1      87.891  36.852  56.204  1.00  0.00    -0.386 OA
ATOM     34  H2  UNL     1      88.332  36.040  56.424  1.00  0.00     0.210 HD
ENDBRANCH   5  33
BRANCH   5  35
HETATM   35  C8  UNL     1      86.962  38.329  57.813  1.00  0.00     0.203 C
BRANCH  35  36
HETATM   36  O3  UNL     1      88.173  38.970  57.737  1.00  0.00    -0.398 OA
ATOM     37  H3  UNL     1      88.430  39.475  58.499  1.00  0.00     0.209 HD
ENDBRANCH  35  36
ENDBRANCH   5  35
TORSDOF 13
ENDMDL