MODEL 4
REMARK VINA RESULT: -7.729303909      1.552      1.650
REMARK  12 active torsions:
REMARK  status: ('A' for Active; 'I' for Inactive)
REMARK    1  A    between atoms: N3_5  and  O1_6
REMARK    2  A    between atoms: C3_9  and  C4_10
REMARK    3  A    between atoms: C4_10  and  N4_11
REMARK    4  A    between atoms: N4_11  and  N5_12
REMARK    5  A    between atoms: N5_12  and  C5_14
REMARK    6  A    between atoms: C6_15  and  O2_16
REMARK    7  A    between atoms: C8_19  and  O3_20
REMARK    8  A    between atoms: C9_22  and  C10_23
REMARK    9  A    between atoms: C10_23  and  S1_24
REMARK   10  A    between atoms: S1_24  and  N6_25
REMARK   11  A    between atoms: C11_30  and  O6_31
REMARK   12  A    between atoms: N7_37  and  O7_38
ROOT
HETATM    1  N5  UNL     1      88.162  37.525  58.472  1.00  0.00    -0.299 N
ATOM      2  H5  UNL     1      89.022  37.227  58.012  1.00  0.00     0.182 HD
ENDROOT
BRANCH   1   3
HETATM    3  N4  UNL     1      88.335  37.806  59.789  1.00  0.00    -0.136 NA
BRANCH   3   4
HETATM    4  C4  UNL     1      87.923  36.684  60.663  1.00  0.00     0.175 C
BRANCH   4   5
HETATM    5  C3  UNL     1      88.853  36.621  61.825  1.00  0.00    -0.009 A
HETATM    6  C2  UNL     1      89.963  35.790  61.789  1.00  0.00     0.118 A
HETATM    7  N3  UNL     1      90.281  35.102  60.710  1.00  0.00    -0.158 N
HETATM    8  C15 UNL     1      90.781  35.629  62.883  1.00  0.00     0.097 A
HETATM    9  N2  UNL     1      91.336  34.311  60.680  1.00  0.00    -0.245 N
HETATM   10  C1  UNL     1      92.130  34.153  61.738  1.00  0.00     0.236 A
ATOM     11  H2  UNL     1      91.551  33.805  59.821  1.00  0.00     0.192 HD
HETATM   12  N1  UNL     1      93.254  33.261  61.693  1.00  0.00    -0.060 NA
HETATM   13  N7  UNL     1      91.862  34.825  62.900  1.00  0.00    -0.191 N
HETATM   14  C14 UNL     1      90.518  36.271  64.071  1.00  0.00     0.034 A
HETATM   15  C13 UNL     1      89.443  37.090  64.142  1.00  0.00     0.003 A
HETATM   16  C12 UNL     1      88.637  37.259  63.026  1.00  0.00     0.011 A
BRANCH   7  17
HETATM   17  O1  UNL     1      89.575  35.190  59.563  1.00  0.00    -0.267 OA
ATOM     18  H1  UNL     1      89.366  34.365  59.140  1.00  0.00     0.247 HD
ENDBRANCH   7  17
BRANCH  13  19
HETATM   19  O7  UNL     1      92.686  34.619  63.963  1.00  0.00    -0.280 OA
ATOM     20  H7  UNL     1      92.580  35.176  64.725  1.00  0.00     0.245 HD
ENDBRANCH  13  19
ENDBRANCH   4   5
ENDBRANCH   3   4
ENDBRANCH   1   3
BRANCH   1  21
HETATM   21  C5  UNL     1      87.063  37.554  57.607  1.00  0.00     0.112 A
HETATM   22  C6  UNL     1      86.307  38.654  57.430  1.00  0.00     0.098 A
HETATM   23  C7  UNL     1      85.263  38.646  56.526  1.00  0.00     0.076 A
HETATM   24  C8  UNL     1      84.953  37.593  55.799  1.00  0.00     0.082 A
HETATM   25  C9  UNL     1      85.747  36.353  55.958  1.00  0.00     0.045 A
HETATM   26  C11 UNL     1      86.757  36.386  56.846  1.00  0.00     0.110 A
BRANCH  22  27
HETATM   27  O2  UNL     1      86.514  39.875  58.127  1.00  0.00    -0.358 OA
ATOM     28  H2  UNL     1      85.862  40.563  58.191  1.00  0.00     0.217 HD
ENDBRANCH  22  27
BRANCH  24  29
HETATM   29  O3  UNL     1      83.958  37.488  54.860  1.00  0.00    -0.360 OA
ATOM     30  H3  UNL     1      84.017  37.674  53.931  1.00  0.00     0.217 HD
ENDBRANCH  24  29
BRANCH  25  31
HETATM   31  C10 UNL     1      85.118  35.276  55.181  1.00  0.00     0.148 C
BRANCH  31  32
HETATM   32  S1  UNL     1      84.935  33.644  55.680  1.00  0.00     0.247 S
HETATM   33  O4  UNL     1      84.900  33.726  57.318  1.00  0.00    -0.202 OA
HETATM   34  O5  UNL     1      86.314  32.916  55.533  1.00  0.00    -0.202 OA
BRANCH  32  35
HETATM   35  N6  UNL     1      83.715  32.577  55.323  1.00  0.00    -0.325 N
ATOM     36  H62 UNL     1      83.939  31.913  54.582  1.00  0.00     0.169 HD
ATOM     37  H61 UNL     1      82.788  32.504  55.742  1.00  0.00     0.169 HD
ENDBRANCH  32  35
ENDBRANCH  31  32
ENDBRANCH  25  31
BRANCH  26  38
HETATM   38  O6  UNL     1      87.523  35.277  57.055  1.00  0.00    -0.357 OA
ATOM     39  H6  UNL     1      87.757  34.755  56.298  1.00  0.00     0.217 HD
ENDBRANCH  26  38
ENDBRANCH   1  21
TORSDOF 12
ENDMDL