MODEL 2
REMARK VINA RESULT: -7.427310500      0.970      1.778
REMARK  11 active torsions:
REMARK  status: ('A' for Active; 'I' for Inactive)
REMARK    1  A    between atoms: N3_8  and  C4_10
REMARK    2  A    between atoms: N4_13  and  C7_14
REMARK    3  A    between atoms: C7_14  and  C8_15
REMARK    4  A    between atoms: C8_15  and  O1_16
REMARK    5  A    between atoms: C9_18  and  N5_19
REMARK    6  A    between atoms: N5_19  and  N6_20
REMARK       I    between atoms: N6_20  and  C10_22
REMARK    7  A    between atoms: C10_22  and  C11_24
REMARK    8  A    between atoms: C11_24  and  S1_25
REMARK    9  A    between atoms: S1_25  and  C12_26
REMARK   10  A    between atoms: C13_29  and  N8_30
REMARK   11  A    between atoms: C14_35  and  N10_36
ROOT
HETATM    1  N5  UNL     1      87.267  36.790  56.125  1.00  0.00    -0.284 NA
ENDROOT
BRANCH   1   2
HETATM    2  C9  UNL     1      87.124  36.047  57.071  1.00  0.00     0.284 A
HETATM    3  N4  UNL     1      86.314  34.973  57.034  1.00  0.00    -0.314 N
HETATM    4  C6  UNL     1      86.156  34.276  58.182  1.00  0.00     0.099 A
HETATM    5  C5  UNL     1      86.778  34.613  59.358  1.00  0.00     0.066 A
HETATM    6  C4  UNL     1      87.614  35.719  59.392  1.00  0.00     0.111 A
HETATM    7  N12 UNL     1      87.756  36.393  58.251  1.00  0.00    -0.300 N
ATOM      8  H12 UNL     1      88.366  37.210  58.247  1.00  0.00     0.171 HD
BRANCH   3   9
HETATM    9  C7  UNL     1      85.645  34.513  55.814  1.00  0.00     0.158 C
BRANCH   9  10
HETATM   10  C8  UNL     1      85.428  33.012  55.872  1.00  0.00     0.184 C
BRANCH  10  11
HETATM   11  O1  UNL     1      85.915  32.421  54.681  1.00  0.00    -0.399 OA
ATOM     12  H1  UNL     1      86.631  31.833  54.891  1.00  0.00     0.209 HD
ENDBRANCH  10  11
ENDBRANCH   9  10
ENDBRANCH   3   9
BRANCH   6  13
HETATM   13  N3  UNL     1      88.264  36.141  60.569  1.00  0.00    -0.321 N
HETATM   14  C3  UNL     1      89.371  35.667  61.012  1.00  0.00     0.166 A
HETATM   15  N2  UNL     1      90.017  36.059  62.142  1.00  0.00    -0.279 N
HETATM   16  S2  UNL     1      90.428  34.447  60.449  1.00  0.00    -0.038 SA
HETATM   17  N1  UNL     1      91.094  35.489  62.441  1.00  0.00    -0.296 N
ATOM     18  H2  UNL     1      89.635  36.797  62.732  1.00  0.00     0.189 HD
HETATM   19  C2  UNL     1      91.601  34.531  61.687  1.00  0.00     0.066 A
ATOM     20  H1  UNL     1      91.589  35.774  63.286  1.00  0.00     0.187 HD
HETATM   21  C1  UNL     1      92.876  33.761  61.919  1.00  0.00     0.078 C
ATOM     22  H3  UNL     1      87.819  36.881  61.112  1.00  0.00     0.169 HD
ENDBRANCH   6  13
ENDBRANCH   1   2
BRANCH   1  23
HETATM   23  N6  UNL     1      87.415  37.552  55.156  1.00  0.00    -0.199 N
HETATM   24  C10 UNL     1      88.587  38.194  54.607  1.00  0.00     0.256 C
HETATM   25  O2  UNL     1      89.700  38.045  55.079  1.00  0.00    -0.270 OA
ATOM     26  H6  UNL     1      86.552  37.764  54.656  1.00  0.00     0.205 HD
BRANCH  24  27
HETATM   27  C11 UNL     1      88.322  39.050  53.422  1.00  0.00     0.187 C
BRANCH  27  28
HETATM   28  S1  UNL     1      88.977  40.688  53.760  1.00  0.00    -0.083 SA
BRANCH  28  29
HETATM   29  C12 UNL     1      90.522  40.909  52.885  1.00  0.00     0.174 A
HETATM   30  N7  UNL     1      91.672  40.567  53.534  1.00  0.00    -0.170 N
HETATM   31  C13 UNL     1      92.853  40.750  52.923  1.00  0.00     0.692 A
ATOM     32  H7  UNL     1      91.635  40.176  54.475  1.00  0.00     0.186 HD
HETATM   33  N9  UNL     1      92.902  41.250  51.714  1.00  0.00    -0.023 N
HETATM   34  C14 UNL     1      91.781  41.594  51.048  1.00  0.00     0.692 A
ATOM     35  H9  UNL     1      93.808  41.382  51.265  1.00  0.00     0.203 HD
HETATM   36  N11 UNL     1      90.591  41.411  51.666  1.00  0.00    -0.170 N
ATOM     37  H11 UNL     1      89.732  41.666  51.180  1.00  0.00     0.186 HD
BRANCH  31  38
HETATM   38  N8  UNL     1      93.949  40.426  53.571  1.00  0.00    -0.234 N
ATOM     39  H82 UNL     1      93.992  40.468  54.590  1.00  0.00     0.174 HD
ATOM     40  H81 UNL     1      94.760  40.122  53.032  1.00  0.00     0.174 HD
ENDBRANCH  31  38
BRANCH  34  41
HETATM   41  N10 UNL     1      91.778  42.079  49.851  1.00  0.00    -0.234 N
ATOM     42 2H10 UNL     1      91.500  43.053  49.726  1.00  0.00     0.174 HD
ATOM     43 1H10 UNL     1      92.031  41.541  49.022  1.00  0.00     0.174 HD
ENDBRANCH  34  41
ENDBRANCH  28  29
ENDBRANCH  27  28
ENDBRANCH  24  27
ENDBRANCH   1  23
TORSDOF 11
ENDMDL