MODEL 5
REMARK VINA RESULT: -7.855689911      5.017      7.255
REMARK  10 active torsions:
REMARK  status: ('A' for Active; 'I' for Inactive)
REMARK       I    between atoms: N1_2  and  C2_4
REMARK    1  A    between atoms: C2_4  and  C3_6
REMARK    2  A    between atoms: C3_6  and  C4_11
REMARK    3  A    between atoms: N2_7  and  O2_9
REMARK    4  A    between atoms: C6_15  and  C7_16
REMARK    5  A    between atoms: C8_22  and  N6_23
REMARK    6  A    between atoms: C9_28  and  N8_29
REMARK    7  A    between atoms: N8_29  and  C10_31
REMARK    8  A    between atoms: C10_31  and  C11_32
REMARK    9  A    between atoms: C11_32  and  C12_33
REMARK   10  A    between atoms: C14_37  and  C15_38
ROOT
HETATM    1  C4  UNL     1      86.474  39.149  53.058  1.00  0.00     0.058 A
HETATM    2  C5  UNL     1      87.625  39.411  52.390  1.00  0.00     0.107 A
HETATM    3  N3  UNL     1      88.834  39.310  53.035  1.00  0.00    -0.349 N
ATOM      4  H3  UNL     1      89.685  39.512  52.510  1.00  0.00     0.167 HD
HETATM    5  C6  UNL     1      88.944  38.959  54.312  1.00  0.00     0.139 A
HETATM    6  N7  UNL     1      87.790  38.700  54.965  1.00  0.00    -0.326 N
ATOM      7  H7  UNL     1      87.856  38.429  55.945  1.00  0.00     0.169 HD
HETATM    8  C9  UNL     1      86.561  38.771  54.427  1.00  0.00     0.120 A
ENDROOT
BRANCH   8   9
HETATM    9  N8  UNL     1      85.509  38.545  54.994  1.00  0.00    -0.355 N
ATOM     10  H8  UNL     1      84.988  37.955  54.345  1.00  0.00     0.166 HD
BRANCH   9  11
HETATM   11  C10 UNL     1      84.665  38.693  56.088  1.00  0.00     0.068 C
BRANCH  11  12
HETATM   12  C11 UNL     1      84.872  37.696  57.145  1.00  0.00     0.106 C
BRANCH  12  13
HETATM   13  C12 UNL     1      85.136  36.306  56.775  1.00  0.00     0.064 A
HETATM   14  N9  UNL     1      84.058  35.513  56.525  1.00  0.00    -0.365 N
HETATM   15  C13 UNL     1      84.161  34.224  56.172  1.00  0.00     0.106 A
ATOM     16  H9  UNL     1      83.127  35.920  56.609  1.00  0.00     0.165 HD
HETATM   17  C14 UNL     1      85.382  33.599  56.036  1.00  0.00     0.060 A
HETATM   18  C16 UNL     1      86.485  34.356  56.276  1.00  0.00     0.076 A
HETATM   19  C17 UNL     1      86.381  35.732  56.653  1.00  0.00     0.195 A
HETATM   20  O6  UNL     1      87.462  36.414  56.872  1.00  0.00    -0.286 OA
BRANCH  17  21
HETATM   21  C15 UNL     1      85.492  32.192  55.650  1.00  0.00     0.210 C
HETATM   22  O4  UNL     1      85.612  31.835  54.451  1.00  0.00    -0.644 OA
HETATM   23  O5  UNL     1      85.466  31.195  56.604  1.00  0.00    -0.644 OA
ENDBRANCH  17  21
ENDBRANCH  12  13
ENDBRANCH  11  12
ENDBRANCH   9  11
ENDBRANCH   8   9
BRANCH   1  24
HETATM   24  C3  UNL     1      85.124  39.232  52.439  1.00  0.00     0.137 C
HETATM   25  N2  UNL     1      84.307  40.082  52.926  1.00  0.00    -0.263 N
ATOM     26  H2  UNL     1      84.728  40.600  53.699  1.00  0.00     0.194 HD
BRANCH  24  27
HETATM   27  C2  UNL     1      84.676  38.419  51.336  1.00  0.00     0.270 C
HETATM   28  N1  UNL     1      84.258  37.073  51.405  1.00  0.00    -0.360 N
HETATM   29  C1  UNL     1      83.829  36.375  50.202  1.00  0.00     0.149 C
ATOM     30  H1  UNL     1      84.258  36.588  52.302  1.00  0.00     0.162 HD
HETATM   31  O1  UNL     1      84.631  38.922  50.151  1.00  0.00    -0.266 OA
ENDBRANCH  24  27
BRANCH  25  32
HETATM   32  O2  UNL     1      83.084  40.469  52.707  1.00  0.00    -0.289 OA
ATOM     33  H2  UNL     1      82.462  41.070  53.098  1.00  0.00     0.244 HD
ENDBRANCH  25  32
ENDBRANCH   1  24
BRANCH   5  34
HETATM   34  C7  UNL     1      90.231  38.850  54.995  1.00  0.00     0.145 A
HETATM   35  N4  UNL     1      91.411  38.561  54.367  1.00  0.00    -0.234 N
HETATM   36  O3  UNL     1      92.365  38.536  55.241  1.00  0.00    -0.155 OA
ATOM     37  H4  UNL     1      91.522  38.393  53.367  1.00  0.00     0.197 HD
HETATM   38  N5  UNL     1      91.880  38.790  56.413  1.00  0.00    -0.224 N
HETATM   39  C8  UNL     1      90.526  38.997  56.301  1.00  0.00     0.154 A
ATOM     40  H5  UNL     1      92.415  38.831  57.280  1.00  0.00     0.198 HD
BRANCH  39  41
HETATM   41  N6  UNL     1      89.737  39.271  57.271  1.00  0.00    -0.382 N
ATOM     42  H62 UNL     1      88.790  38.909  57.380  1.00  0.00     0.157 HD
ATOM     43  H61 UNL     1      89.904  39.875  58.076  1.00  0.00     0.157 HD
ENDBRANCH  39  41
ENDBRANCH   5  34
TORSDOF 10
ENDMDL