MODEL 3
REMARK VINA RESULT: -7.704467633      0.068      1.408
REMARK  8 active torsions:
REMARK  status: ('A' for Active; 'I' for Inactive)
REMARK    1  A    between atoms: C4_4  and  C5_5
REMARK    2  A    between atoms: C5_5  and  N1_6
REMARK    3  A    between atoms: C5_5  and  C9_22
REMARK    4  A    between atoms: N1_6  and  C6_7
REMARK    5  A    between atoms: C7_10  and  N3_11
REMARK    6  A    between atoms: C8_16  and  N5_17
REMARK    7  A    between atoms: C13_30  and  N8_31
REMARK    8  A    between atoms: N10_37  and  O6_38
ROOT
HETATM    1  C1  UNL     1      83.650  33.702  55.865  1.00  0.00     0.055 C
HETATM    2  C2  UNL     1      84.706  34.666  55.690  1.00  0.00     0.021 C
HETATM    3  C3  UNL     1      84.240  35.852  55.143  1.00  0.00     0.004 C
HETATM    4  C4  UNL     1      83.263  35.964  54.165  1.00  0.00     0.037 C
HETATM    5  C10 UNL     1      84.895  37.063  55.508  1.00  0.00     0.080 A
HETATM    6  C11 UNL     1      84.250  38.249  55.604  1.00  0.00     0.036 A
HETATM    7  C12 UNL     1      82.825  38.446  55.352  1.00  0.00     0.070 C
HETATM    8  N7  UNL     1      85.186  39.167  55.973  1.00  0.00    -0.324 N
ATOM      9  H7  UNL     1      85.008  40.159  56.127  1.00  0.00     0.169 HD
HETATM   10  C13 UNL     1      86.406  38.552  56.107  1.00  0.00     0.261 A
HETATM   11  N9  UNL     1      86.234  37.262  55.820  1.00  0.00    -0.225 N
HETATM   12  C14 UNL     1      87.177  36.317  55.773  1.00  0.00     0.363 C
HETATM   13  O5  UNL     1      88.273  36.770  55.347  1.00  0.00    -0.243 OA
HETATM   14  N10 UNL     1      87.092  35.020  56.106  1.00  0.00    -0.133 N
HETATM   15  C15 UNL     1      85.994  34.293  56.089  1.00  0.00     0.282 C
HETATM   16  O7  UNL     1      86.091  33.114  56.473  1.00  0.00    -0.265 OA
ENDROOT
BRANCH   4  17
HETATM   17  C5  UNL     1      81.868  35.748  53.846  1.00  0.00     0.291 C
BRANCH  17  18
HETATM   18  N1  UNL     1      81.549  36.207  52.577  1.00  0.00    -0.394 NA
BRANCH  18  19
HETATM   19  C6  UNL     1      81.280  36.575  51.505  1.00  0.00     0.283 A
HETATM   20  N2  UNL     1      80.003  36.558  50.974  1.00  0.00    -0.148 N
HETATM   21  C7  UNL     1      79.715  36.981  49.749  1.00  0.00     0.694 A
ATOM     22  H2  UNL     1      79.243  36.202  51.554  1.00  0.00     0.188 HD
HETATM   23  N4  UNL     1      80.695  37.455  48.963  1.00  0.00    -0.023 N
HETATM   24  C8  UNL     1      81.960  37.498  49.425  1.00  0.00     0.694 A
ATOM     25  H4  UNL     1      80.483  37.782  48.021  1.00  0.00     0.203 HD
HETATM   26  N6  UNL     1      82.239  37.072  50.652  1.00  0.00    -0.148 N
ATOM     27  H6  UNL     1      83.206  37.115  50.975  1.00  0.00     0.188 HD
BRANCH  21  28
HETATM   28  N3  UNL     1      78.491  36.945  49.291  1.00  0.00    -0.234 N
ATOM     29  H32 UNL     1      77.782  36.423  49.806  1.00  0.00     0.174 HD
ATOM     30  H31 UNL     1      78.234  37.428  48.430  1.00  0.00     0.174 HD
ENDBRANCH  21  28
BRANCH  24  31
HETATM   31  N5  UNL     1      82.909  37.955  48.669  1.00  0.00    -0.234 N
ATOM     32  H52 UNL     1      82.872  38.918  48.334  1.00  0.00     0.174 HD
ATOM     33  H51 UNL     1      83.689  37.351  48.412  1.00  0.00     0.174 HD
ENDBRANCH  24  31
ENDBRANCH  18  19
ENDBRANCH  17  18
BRANCH  17  34
HETATM   34  C9  UNL     1      81.432  34.300  53.547  1.00  0.00     0.214 C
HETATM   35  O1  UNL     1      80.344  33.918  53.991  1.00  0.00    -0.645 OA
HETATM   36  O2  UNL     1      82.279  33.485  52.797  1.00  0.00    -0.645 OA
ENDBRANCH  17  34
ENDBRANCH   4  17
BRANCH  14  37
HETATM   37  O6  UNL     1      88.284  34.460  56.480  1.00  0.00    -0.276 OA
ATOM     38  H6  UNL     1      88.311  34.170  57.384  1.00  0.00     0.245 HD
ENDBRANCH  14  37
BRANCH  10  39
HETATM   39  N8  UNL     1      87.585  39.208  56.485  1.00  0.00    -0.078 N
HETATM   40  O3  UNL     1      88.024  40.050  55.626  1.00  0.00    -0.529 OA
HETATM   41  O4  UNL     1      88.359  39.118  57.580  1.00  0.00    -0.529 OA
ENDBRANCH  10  39
TORSDOF 8
ENDMDL