MODEL 3
REMARK VINA RESULT: -6.901948996      3.134      6.406
REMARK  11 active torsions:
REMARK  status: ('A' for Active; 'I' for Inactive)
REMARK    1  A    between atoms: C1_2  and  C2_4
REMARK    2  A    between atoms: C2_4  and  O3_5
REMARK    3  A    between atoms: O3_5  and  C3_6
REMARK    4  A    between atoms: C6_9  and  O4_10
REMARK    5  A    between atoms: C10_15  and  O5_16
REMARK    6  A    between atoms: C10_15  and  C11_18
REMARK    7  A    between atoms: C12_21  and  O8_22
REMARK    8  A    between atoms: C13_24  and  C14_25
REMARK    9  A    between atoms: C15_26  and  N1_27
REMARK   10  A    between atoms: N1_27  and  O9_28
REMARK   11  A    between atoms: N1_27  and  C16_30
ROOT
HETATM    1  C2  UNL     1      85.075  34.401  56.209  1.00  0.00     0.264 C
HETATM    2  C9  UNL     1      83.912  34.713  57.091  1.00  0.00     0.133 C
HETATM    3  C10 UNL     1      82.605  34.819  56.395  1.00  0.00     0.179 C
HETATM    4  C12 UNL     1      82.724  35.345  54.996  1.00  0.00     0.196 C
HETATM    5  C13 UNL     1      84.082  35.953  54.740  1.00  0.00     0.182 C
HETATM    6  O12 UNL     1      85.114  35.136  55.011  1.00  0.00    -0.334 OA
ENDROOT
BRANCH   1   7
HETATM    7  C1  UNL     1      85.032  32.966  55.886  1.00  0.00     0.239 C
HETATM    8  O1  UNL     1      85.554  32.079  56.647  1.00  0.00    -0.644 OA
HETATM    9  O2  UNL     1      84.439  32.477  54.761  1.00  0.00    -0.644 OA
ENDBRANCH   1   7
BRANCH   1  10
HETATM   10  O3  UNL     1      86.283  34.747  56.842  1.00  0.00    -0.304 OA
BRANCH  10  11
HETATM   11  C3  UNL     1      86.701  35.267  57.975  1.00  0.00     0.073 A
HETATM   12  C4  UNL     1      86.934  34.622  59.171  1.00  0.00     0.039 A
HETATM   13  C5  UNL     1      87.367  35.231  60.323  1.00  0.00     0.039 A
HETATM   14  C6  UNL     1      87.596  36.584  60.316  1.00  0.00     0.065 A
HETATM   15  C7  UNL     1      87.384  37.288  59.154  1.00  0.00     0.039 A
HETATM   16  C8  UNL     1      86.949  36.654  58.015  1.00  0.00     0.039 A
BRANCH  14  17
HETATM   17  O4  UNL     1      88.038  37.261  61.461  1.00  0.00    -0.361 OA
ATOM     18  H4  UNL     1      87.517  37.942  61.870  1.00  0.00     0.217 HD
ENDBRANCH  14  17
ENDBRANCH  10  11
ENDBRANCH   1  10
BRANCH   3  19
HETATM   19  O5  UNL     1      81.877  33.626  56.333  1.00  0.00    -0.376 OA
ATOM     20  H5  UNL     1      81.166  33.626  55.702  1.00  0.00     0.211 HD
ENDBRANCH   3  19
BRANCH   3  21
HETATM   21  C11 UNL     1      81.688  35.746  57.195  1.00  0.00     0.212 C
HETATM   22  O6  UNL     1      82.189  36.743  57.768  1.00  0.00    -0.646 OA
HETATM   23  O7  UNL     1      80.344  35.514  57.299  1.00  0.00    -0.646 OA
ENDBRANCH   3  21
BRANCH   5  24
HETATM   24  C14 UNL     1      84.129  36.318  53.303  1.00  0.00     0.027 C
HETATM   25  C15 UNL     1      83.246  35.804  52.471  1.00  0.00     0.118 C
BRANCH  25  26
HETATM   26  N1  UNL     1      83.244  36.121  51.073  1.00  0.00    -0.241 N
BRANCH  26  27
HETATM   27  O9  UNL     1      84.067  35.487  50.244  1.00  0.00    -0.285 OA
ATOM     28  H9  UNL     1      83.862  34.609  49.946  1.00  0.00     0.245 HD
ENDBRANCH  26  27
BRANCH  26  29
HETATM   29  C16 UNL     1      82.317  37.144  50.641  1.00  0.00     0.268 C
HETATM   30  C17 UNL     1      82.294  37.194  49.139  1.00  0.00     0.198 C
HETATM   31  N2  UNL     1      83.457  37.930  48.684  1.00  0.00    -0.094 NA
HETATM   32  O10 UNL     1      83.360  39.174  49.228  1.00  0.00    -0.261 OA
HETATM   33  C18 UNL     1      83.504  39.133  50.610  1.00  0.00     0.367 C
HETATM   34  O11 UNL     1      82.545  38.365  51.233  1.00  0.00    -0.337 OA
ENDBRANCH  26  29
ENDBRANCH  25  26
ENDBRANCH   5  24
BRANCH   4  35
HETATM   35  O8  UNL     1      81.800  36.387  54.844  1.00  0.00    -0.389 OA
ATOM     36  H8  UNL     1      81.998  36.841  54.033  1.00  0.00     0.210 HD
ENDBRANCH   4  35
TORSDOF 11
ENDMDL