MODEL 2
REMARK VINA RESULT: -7.251219084      4.216     10.479
REMARK  8 active torsions:
REMARK  status: ('A' for Active; 'I' for Inactive)
REMARK    1  A    between atoms: C2_2  and  C3_3
REMARK    2  A    between atoms: C3_3  and  C4_4
REMARK    3  A    between atoms: N3_11  and  C6_12
REMARK    4  A    between atoms: C9_15  and  N4_16
REMARK       I    between atoms: N4_16  and  C10_18
REMARK    5  A    between atoms: C10_18  and  C11_20
REMARK    6  A    between atoms: C12_23  and  N6_24
REMARK    7  A    between atoms: C14_31  and  C15_32
REMARK       I    between atoms: C15_32  and  N9_34
REMARK    8  A    between atoms: N9_34  and  N10_36
ROOT
HETATM    1  C6  UNL     1      87.568  35.622  60.476  1.00  0.00     0.121 A
HETATM    2  C7  UNL     1      86.282  35.257  60.765  1.00  0.00     0.052 A
HETATM    3  C8  UNL     1      85.351  35.062  59.750  1.00  0.00     0.036 A
HETATM    4  C9  UNL     1      85.738  35.240  58.423  1.00  0.00     0.068 A
HETATM    5  C14 UNL     1      87.024  35.601  58.153  1.00  0.00     0.131 A
HETATM    6  N11 UNL     1      87.918  35.785  59.203  1.00  0.00    -0.335 N
ATOM      7  H11 UNL     1      88.877  36.056  58.989  1.00  0.00     0.168 HD
ENDROOT
BRANCH   4   8
HETATM    8  N4  UNL     1      84.753  35.137  57.440  1.00  0.00    -0.318 N
HETATM    9  C10 UNL     1      84.449  34.063  56.588  1.00  0.00     0.292 C
HETATM   10  O3  UNL     1      85.084  33.006  56.608  1.00  0.00    -0.264 OA
ATOM     11  H4  UNL     1      84.168  35.964  57.322  1.00  0.00     0.169 HD
BRANCH   9  12
HETATM   12  C11 UNL     1      83.353  34.163  55.634  1.00  0.00     0.204 A
HETATM   13  N5  UNL     1      82.353  33.270  55.429  1.00  0.00    -0.169 N
HETATM   14  C12 UNL     1      81.523  33.705  54.481  1.00  0.00     0.694 A
ATOM     15  H5  UNL     1      82.250  32.388  55.931  1.00  0.00     0.186 HD
HETATM   16  N7  UNL     1      81.978  34.881  54.065  1.00  0.00    -0.127 N
HETATM   17  C13 UNL     1      81.398  35.721  53.062  1.00  0.00     0.197 C
HETATM   18  N8  UNL     1      83.081  35.156  54.759  1.00  0.00    -0.264 N
ATOM     19  H8  UNL     1      83.642  36.001  54.646  1.00  0.00     0.189 HD
BRANCH  14  20
HETATM   20  N6  UNL     1      80.487  33.081  54.061  1.00  0.00    -0.233 N
ATOM     21  H62 UNL     1      80.335  32.072  54.050  1.00  0.00     0.174 HD
ATOM     22  H61 UNL     1      79.651  33.520  53.677  1.00  0.00     0.174 HD
ENDBRANCH  14  20
ENDBRANCH   9  12
ENDBRANCH   4   8
BRANCH   5  23
HETATM   23  C15 UNL     1      87.533  35.742  56.818  1.00  0.00     0.288 C
HETATM   24  O4  UNL     1      87.776  34.828  56.054  1.00  0.00    -0.264 OA
HETATM   25  N9  UNL     1      87.788  37.070  56.308  1.00  0.00    -0.271 N
ATOM     26  H9  UNL     1      87.596  37.869  56.910  1.00  0.00     0.189 HD
BRANCH  25  27
HETATM   27  N10 UNL     1      88.287  37.304  55.021  1.00  0.00    -0.342 N
ATOM     28 2H10 UNL     1      87.623  37.594  54.303  1.00  0.00     0.176 HD
ATOM     29 1H10 UNL     1      89.273  37.196  54.783  1.00  0.00     0.176 HD
ENDBRANCH  25  27
ENDBRANCH   5  23
BRANCH   1  30
HETATM   30  N3  UNL     1      88.469  35.846  61.554  1.00  0.00    -0.240 N
HETATM   31  C5  UNL     1      89.861  35.604  61.615  1.00  0.00     0.204 C
HETATM   32  N1  UNL     1      90.499  36.090  62.555  1.00  0.00    -0.335 N
HETATM   33  N2  UNL     1      90.508  34.796  60.594  1.00  0.00    -0.062 NA
HETATM   34  C3  UNL     1      89.874  36.871  63.547  1.00  0.00     0.190 C
ATOM     35  H1  UNL     1      91.503  35.921  62.615  1.00  0.00     0.164 HD
HETATM   36  S1  UNL     1      88.108  36.531  63.165  1.00  0.00    -0.000 SA
BRANCH  34  37
HETATM   37  C2  UNL     1      90.158  38.348  63.513  1.00  0.00     0.051 C
HETATM   38  C1  UNL     1      89.250  39.159  62.667  1.00  0.00     0.009 C
ENDBRANCH  34  37
BRANCH  34  39
HETATM   39  C4  UNL     1      90.133  36.288  64.884  1.00  0.00     0.215 C
HETATM   40  O1  UNL     1      89.428  35.357  65.324  1.00  0.00    -0.645 OA
HETATM   41  O2  UNL     1      91.170  36.786  65.639  1.00  0.00    -0.645 OA
ENDBRANCH  34  39
ENDBRANCH   1  30
TORSDOF 8
ENDMDL