MODEL 3
REMARK VINA RESULT: -8.284580855      1.033      1.839
REMARK  9 active torsions:
REMARK  status: ('A' for Active; 'I' for Inactive)
REMARK       I    between atoms: C1_2  and  N1_3
REMARK       I    between atoms: C1_2  and  N4_20
REMARK    1  A    between atoms: N1_3  and  N2_5
REMARK       I    between atoms: N2_5  and  C2_7
REMARK    2  A    between atoms: C2_7  and  C3_9
REMARK       I    between atoms: C3_9  and  N3_11
REMARK    3  A    between atoms: C4_12  and  O4_13
REMARK    4  A    between atoms: C7_17  and  O5_18
REMARK    5  A    between atoms: N4_20  and  S1_22
REMARK    6  A    between atoms: S1_22  and  N5_25
REMARK    7  A    between atoms: C9_27  and  C10_28
REMARK    8  A    between atoms: C10_28  and  N6_29
REMARK    9  A    between atoms: N6_29  and  C11_31
ROOT
HETATM    1  O1  UNL     1      87.514  34.603  57.558  1.00  0.00    -0.245 OA
HETATM    2  C1  UNL     1      86.578  34.508  58.330  1.00  0.00     0.349 C
HETATM    3  N1  UNL     1      86.592  34.708  59.705  1.00  0.00    -0.248 N
ATOM      4  H1  UNL     1      85.688  34.584  60.160  1.00  0.00     0.192 HD
HETATM    5  N4  UNL     1      85.320  34.135  57.693  1.00  0.00    -0.216 N
ATOM      6  H4  UNL     1      84.489  34.035  58.276  1.00  0.00     0.185 HD
ENDROOT
BRANCH   5   7
HETATM    7  S1  UNL     1      85.182  33.860  56.003  1.00  0.00     0.347 S
HETATM    8  O6  UNL     1      83.821  33.180  55.798  1.00  0.00    -0.180 OA
HETATM    9  O7  UNL     1      86.232  32.973  55.444  1.00  0.00    -0.180 OA
BRANCH   7  10
HETATM   10  N5  UNL     1      85.092  35.398  55.173  1.00  0.00    -0.159 N
HETATM   11  C8  UNL     1      84.158  35.766  54.281  1.00  0.00     0.160 A
HETATM   12  C9  UNL     1      84.431  37.048  53.796  1.00  0.00     0.063 A
HETATM   13  N8  UNL     1      85.551  37.405  54.441  1.00  0.00    -0.286 N
HETATM   14  N9  UNL     1      85.933  36.408  55.261  1.00  0.00    -0.225 N
ATOM     15  H8  UNL     1      86.039  38.293  54.328  1.00  0.00     0.188 HD
ATOM     16  H9  UNL     1      86.755  36.430  55.863  1.00  0.00     0.209 HD
BRANCH  12  17
HETATM   17  C10 UNL     1      83.640  37.773  52.775  1.00  0.00     0.179 C
BRANCH  17  18
HETATM   18  N6  UNL     1      82.803  36.804  52.102  1.00  0.00    -0.383 N
ATOM     19  H6  UNL     1      82.432  36.001  52.610  1.00  0.00     0.160 HD
BRANCH  18  20
HETATM   20  C11 UNL     1      82.506  36.985  50.734  1.00  0.00     0.045 A
HETATM   21  C12 UNL     1      83.412  37.115  49.710  1.00  0.00     0.047 A
HETATM   22  C13 UNL     1      82.717  37.302  48.526  1.00  0.00     0.090 A
HETATM   23  N7  UNL     1      81.422  37.284  48.838  1.00  0.00    -0.373 N
HETATM   24  C14 UNL     1      81.251  37.095  50.164  1.00  0.00     0.116 A
ATOM     25  H7  UNL     1      80.662  37.396  48.166  1.00  0.00     0.164 HD
ENDBRANCH  18  20
ENDBRANCH  17  18
ENDBRANCH  12  17
ENDBRANCH   7  10
ENDBRANCH   5   7
BRANCH   3  26
HETATM   26  N2  UNL     1      87.595  35.039  60.535  1.00  0.00    -0.258 N
HETATM   27  C2  UNL     1      88.600  36.041  60.468  1.00  0.00     0.328 C
HETATM   28  O2  UNL     1      88.641  36.818  59.504  1.00  0.00    -0.261 OA
ATOM     29  H2  UNL     1      87.644  34.461  61.373  1.00  0.00     0.190 HD
BRANCH  27  30
HETATM   30  C3  UNL     1      89.582  36.147  61.533  1.00  0.00     0.325 C
HETATM   31  O3  UNL     1      89.319  37.115  62.352  1.00  0.00    -0.261 OA
HETATM   32  N3  UNL     1      90.719  35.375  61.794  1.00  0.00    -0.233 N
HETATM   33  C4  UNL     1      91.316  34.377  61.137  1.00  0.00     0.151 A
HETATM   34  C7  UNL     1      91.414  35.548  62.968  1.00  0.00     0.151 A
HETATM   35  C5  UNL     1      92.392  33.908  61.886  1.00  0.00     0.061 A
HETATM   36  C6  UNL     1      92.444  34.644  63.024  1.00  0.00     0.061 A
BRANCH  33  37
HETATM   37  O4  UNL     1      90.959  33.857  59.911  1.00  0.00    -0.346 OA
ATOM     38  H4  UNL     1      91.386  33.151  59.441  1.00  0.00     0.219 HD
ENDBRANCH  33  37
BRANCH  34  39
HETATM   39  O5  UNL     1      91.148  36.474  63.969  1.00  0.00    -0.346 OA
ATOM     40  H5  UNL     1      90.294  36.741  64.289  1.00  0.00     0.219 HD
ENDBRANCH  34  39
ENDBRANCH  27  30
ENDBRANCH   3  26
TORSDOF 9
ENDMDL