MODEL 3
REMARK VINA RESULT: -8.789360582      1.748      4.410
REMARK  9 active torsions:
REMARK  status: ('A' for Active; 'I' for Inactive)
REMARK    1  A    between atoms: C1_2  and  C2_4
REMARK    2  A    between atoms: C2_4  and  N2_5
REMARK    3  A    between atoms: C2_4  and  N3_9
REMARK    4  A    between atoms: N3_9  and  N4_11
REMARK    5  A    between atoms: N5_13  and  C3_15
REMARK    6  A    between atoms: C4_16  and  C5_17
REMARK    7  A    between atoms: N8_23  and  N9_25
REMARK    8  A    between atoms: C7_27  and  C8_28
REMARK    9  A    between atoms: C11_31  and  O2_32
ROOT
HETATM    1  C3  UNL     1      86.320  37.685  55.479  1.00  0.00     0.147 A
HETATM    2  C4  UNL     1      87.053  38.777  55.870  1.00  0.00     0.105 A
HETATM    3  N10 UNL     1      86.956  39.893  55.135  1.00  0.00    -0.304 N
ATOM      4  H10 UNL     1      87.488  40.723  55.398  1.00  0.00     0.171 HD
HETATM    5  C14 UNL     1      86.147  39.924  54.033  1.00  0.00     0.327 A
HETATM    6  O3  UNL     1      86.074  40.996  53.352  1.00  0.00    -0.247 OA
HETATM    7  N11 UNL     1      85.419  38.872  53.627  1.00  0.00    -0.273 N
ATOM      8  H11 UNL     1      84.827  38.931  52.799  1.00  0.00     0.173 HD
HETATM    9  C15 UNL     1      85.496  37.740  54.345  1.00  0.00     0.280 A
HETATM   10  O4  UNL     1      84.839  36.739  54.006  1.00  0.00    -0.265 OA
ENDROOT
BRANCH   2  11
HETATM   11  C5  UNL     1      87.908  38.706  57.055  1.00  0.00     0.122 A
HETATM   12  N6  UNL     1      89.077  39.253  57.305  1.00  0.00    -0.290 N
HETATM   13  N7  UNL     1      89.663  39.065  58.412  1.00  0.00    -0.278 N
ATOM     14  H6  UNL     1      89.520  39.837  56.595  1.00  0.00     0.188 HD
HETATM   15  C6  UNL     1      89.072  38.297  59.332  1.00  0.00     0.180 A
ATOM     16  H7  UNL     1      90.570  39.493  58.599  1.00  0.00     0.189 HD
HETATM   17  N8  UNL     1      89.512  37.984  60.527  1.00  0.00    -0.279 N
HETATM   18  S1  UNL     1      87.629  37.851  58.537  1.00  0.00    -0.030 SA
ATOM     19  H8  UNL     1      90.412  38.352  60.834  1.00  0.00     0.189 HD
BRANCH  17  20
HETATM   20  N9  UNL     1      88.809  37.193  61.359  1.00  0.00    -0.309 N
HETATM   21  C7  UNL     1      89.050  36.163  62.005  1.00  0.00     0.118 C
ATOM     22  H9  UNL     1      87.851  37.518  61.490  1.00  0.00     0.186 HD
BRANCH  21  23
HETATM   23  C8  UNL     1      90.290  35.440  62.051  1.00  0.00    -0.019 A
HETATM   24  C9  UNL     1      90.816  34.650  61.053  1.00  0.00     0.015 A
HETATM   25  C10 UNL     1      92.029  33.974  61.166  1.00  0.00     0.037 A
HETATM   26  C11 UNL     1      92.729  34.109  62.335  1.00  0.00     0.065 A
HETATM   27  C12 UNL     1      92.262  34.889  63.381  1.00  0.00     0.037 A
HETATM   28  C13 UNL     1      91.065  35.527  63.210  1.00  0.00     0.015 A
BRANCH  26  29
HETATM   29  O2  UNL     1      93.936  33.453  62.477  1.00  0.00    -0.361 OA
ATOM     30  H2  UNL     1      94.636  33.630  61.858  1.00  0.00     0.217 HD
ENDBRANCH  26  29
ENDBRANCH  21  23
ENDBRANCH  17  20
ENDBRANCH   2  11
BRANCH   1  31
HETATM   31  N5  UNL     1      86.424  36.508  56.257  1.00  0.00    -0.279 N
HETATM   32  N4  UNL     1      86.684  35.427  55.646  1.00  0.00    -0.244 N
ATOM     33  H4  UNL     1      86.802  35.469  54.633  1.00  0.00     0.208 HD
ATOM     34  H5  UNL     1      86.295  36.528  57.268  1.00  0.00     0.189 HD
BRANCH  32  35
HETATM   35  N3  UNL     1      86.817  34.199  56.259  1.00  0.00    -0.284 N
ATOM     36  H3  UNL     1      87.759  33.831  56.390  1.00  0.00     0.184 HD
BRANCH  35  37
HETATM   37  C2  UNL     1      85.708  33.400  56.729  1.00  0.00     0.387 C
BRANCH  37  38
HETATM   38  C1  UNL     1      85.591  32.160  55.928  1.00  0.00     0.282 C
HETATM   39  N1  UNL     1      85.346  30.929  56.575  1.00  0.00    -0.059 NA
HETATM   40  O1  UNL     1      85.708  32.193  54.692  1.00  0.00    -0.273 OA
ENDBRANCH  37  38
BRANCH  37  41
HETATM   41  N2  UNL     1      84.470  34.156  56.618  1.00  0.00    -0.049 N
ATOM     42  H23 UNL     1      84.538  35.077  57.050  1.00  0.00     0.277 HD
ATOM     43  H22 UNL     1      84.285  34.459  55.662  1.00  0.00     0.277 HD
ATOM     44  H21 UNL     1      83.706  33.601  57.004  1.00  0.00     0.277 HD
ENDBRANCH  37  41
ENDBRANCH  35  37
ENDBRANCH  32  35
ENDBRANCH   1  31
TORSDOF 9
ENDMDL