MODEL 4
REMARK VINA RESULT: -7.720863034      2.266      2.881
REMARK  4 active torsions:
REMARK  status: ('A' for Active; 'I' for Inactive)
REMARK    1  A    between atoms: N1_5  and  C4_6
REMARK    2  A    between atoms: N2_9  and  C7_10
REMARK    3  A    between atoms: N3_11  and  C8_13
REMARK    4  A    between atoms: C12_19  and  O2_20
ROOT
HETATM    1  C4  UNL     1      15.763  66.962   5.192  1.00  0.00     0.092 C
HETATM    2  C5  UNL     1      15.907  67.534   3.796  1.00  0.00     0.045 C
HETATM    3  C6  UNL     1      16.800  68.777   3.836  1.00  0.00     0.125 C
HETATM    4  N2  UNL     1      17.874  68.595   4.818  1.00  0.00    -0.377 N
HETATM    5  C9  UNL     1      17.493  68.349   6.192  1.00  0.00     0.125 C
HETATM    6  C10 UNL     1      16.003  68.076   6.214  1.00  0.00     0.045 C
ENDROOT
BRANCH   1   7
HETATM    7  N1  UNL     1      14.522  66.287   5.398  1.00  0.00    -0.359 N
HETATM    8  C3  UNL     1      14.225  65.141   4.746  1.00  0.00     0.095 A
HETATM    9  C2  UNL     1      13.012  64.489   4.954  1.00  0.00     0.075 A
HETATM   10  C1  UNL     1      12.093  65.021   5.841  1.00  0.00     0.207 A
HETATM   11  O1  UNL     1      10.975  64.467   6.065  1.00  0.00    -0.285 OA
HETATM   12  C12 UNL     1      12.397  66.186   6.503  1.00  0.00     0.131 A
HETATM   13  C11 UNL     1      13.608  66.796   6.267  1.00  0.00     0.131 A
BRANCH  12  14
HETATM   14  O2  UNL     1      11.473  66.723   7.397  1.00  0.00    -0.356 OA
ATOM     15  H2  UNL     1      10.882  67.406   7.100  1.00  0.00     0.218 HD
ENDBRANCH  12  14
ENDBRANCH   1   7
BRANCH   4  16
HETATM   16  C7  UNL     1      19.222  68.668   4.390  1.00  0.00     0.179 C
HETATM   17  N3  UNL     1      19.718  69.718   3.887  1.00  0.00    -0.337 N
ATOM     18  H3  UNL     1      19.097  70.523   3.801  1.00  0.00     0.168 HD
BRANCH  17  19
HETATM   19  C8  UNL     1      21.032  69.886   3.437  1.00  0.00     0.150 C
HETATM   20  S1  UNL     1      22.191  70.239   4.547  1.00  0.00    -0.052 SA
HETATM   21  S2  UNL     1      21.535  69.741   1.727  1.00  0.00    -0.020 SA
ENDBRANCH  17  19
ENDBRANCH   4  16
TORSDOF 4
ENDMDL