MODEL 5
REMARK VINA RESULT: -8.430574673      2.018      2.246
REMARK  3 active torsions:
REMARK  status: ('A' for Active; 'I' for Inactive)
REMARK    1  A    between atoms: C1_2  and  C2_4
REMARK    2  A    between atoms: C3_5  and  C4_6
REMARK    3  A    between atoms: C6_8  and  O3_9
ROOT
HETATM    1  C4  UNL     1      16.337  68.113   5.526  1.00  0.00    -0.030 A
HETATM    2  C5  UNL     1      15.682  68.789   6.579  1.00  0.00     0.051 A
HETATM    3  C6  UNL     1      16.317  69.136   7.747  1.00  0.00     0.102 A
HETATM    4  C7  UNL     1      17.650  68.814   7.904  1.00  0.00     0.139 A
HETATM    5  C8  UNL     1      18.341  68.158   6.921  1.00  0.00     0.106 A
HETATM    6  C9  UNL     1      17.647  67.822   5.745  1.00  0.00     0.051 A
HETATM    7  O4  UNL     1      19.673  67.855   7.124  1.00  0.00    -0.343 OA
HETATM    8  C10 UNL     1      20.193  67.830   8.441  1.00  0.00     0.244 C
HETATM    9  C11 UNL     1      19.746  69.098   9.182  1.00  0.00     0.192 C
HETATM   10  C12 UNL     1      20.280  70.258   8.406  1.00  0.00     0.071 C
HETATM   11  C13 UNL     1      21.667  70.677   8.819  1.00  0.00     0.007 C
HETATM   12  C14 UNL     1      21.541  70.944  10.328  1.00  0.00     0.026 C
HETATM   13  C15 UNL     1      21.188  69.614  10.938  1.00  0.00     0.171 C
HETATM   14  O5  UNL     1      20.055  69.046  10.492  1.00  0.00    -0.353 OA
HETATM   15  O6  UNL     1      18.331  69.148   9.072  1.00  0.00    -0.306 OA
ENDROOT
BRANCH   1  16
HETATM   16  C3  UNL     1      15.571  67.743   4.385  1.00  0.00     0.018 C
HETATM   17  C2  UNL     1      14.995  66.719   3.899  1.00  0.00     0.085 C
BRANCH  17  18
HETATM   18  C1  UNL     1      14.841  65.372   4.291  1.00  0.00     0.198 C
HETATM   19  O1  UNL     1      14.423  65.179   5.514  1.00  0.00    -0.645 OA
HETATM   20  O2  UNL     1      15.052  64.228   3.597  1.00  0.00    -0.645 OA
ENDBRANCH  17  18
ENDBRANCH   1  16
BRANCH   3  21
HETATM   21  O3  UNL     1      15.622  69.810   8.767  1.00  0.00    -0.358 OA
ATOM     22  H3  UNL     1      16.011  69.919   9.627  1.00  0.00     0.217 HD
ENDBRANCH   3  21
TORSDOF 3
ENDMDL