MODEL 5
REMARK VINA RESULT: -7.406976199      3.679      6.181
REMARK  4 active torsions:
REMARK  status: ('A' for Active; 'I' for Inactive)
REMARK    1  A    between atoms: N2_10  and  C8_11
REMARK    2  A    between atoms: C8_11  and  C9_12
REMARK    3  A    between atoms: C11_14  and  O1_15
REMARK    4  A    between atoms: C12_17  and  O2_18
ROOT
HETATM    1  C1  UNL     1      15.543  66.780   4.528  1.00  0.00     0.310 C
HETATM    2  N1  UNL     1      16.396  67.748   3.866  1.00  0.00     0.086 N
HETATM    3  C2  UNL     1      15.587  68.552   2.993  1.00  0.00     0.282 C
HETATM    4  C3  UNL     1      16.398  69.392   2.051  1.00  0.00     0.104 C
HETATM    5  S1  UNL     1      18.101  68.745   1.884  1.00  0.00    -0.167 SA
HETATM    6  C4  UNL     1      19.255  70.123   2.096  1.00  0.00     0.074 C
HETATM    7  C5  UNL     1      20.475  69.717   2.889  1.00  0.00     0.012 C
HETATM    8  C6  UNL     1      20.140  68.756   4.011  1.00  0.00     0.031 C
HETATM    9  C7  UNL     1      19.706  69.507   5.232  1.00  0.00     0.273 C
HETATM   10  N2  UNL     1      19.003  68.725   6.194  1.00  0.00     0.096 N
HETATM   11  C13 UNL     1      17.999  67.862   5.645  1.00  0.00     0.303 C
HETATM   12  C14 UNL     1      16.931  68.620   4.901  1.00  0.00     0.302 C
ENDROOT
BRANCH  10  13
HETATM   13  C8  UNL     1      18.391  69.574   7.175  1.00  0.00     0.337 C
BRANCH  13  14
HETATM   14  C9  UNL     1      18.618  69.076   8.576  1.00  0.00     0.087 A
HETATM   15  C10 UNL     1      19.835  68.720   9.117  1.00  0.00     0.076 A
HETATM   16  C11 UNL     1      19.647  68.312  10.428  1.00  0.00     0.126 A
HETATM   17  C12 UNL     1      18.277  68.445  10.623  1.00  0.00     0.217 A
HETATM   18  O3  UNL     1      17.733  68.893   9.515  1.00  0.00    -0.288 OA
BRANCH  16  19
HETATM   19  O1  UNL     1      20.605  67.872  11.332  1.00  0.00    -0.356 OA
ATOM     20  H1  UNL     1      20.582  67.095  11.877  1.00  0.00     0.218 HD
ENDBRANCH  16  19
BRANCH  17  21
HETATM   21  O2  UNL     1      17.614  68.143  11.824  1.00  0.00    -0.339 OA
ATOM     22  H2  UNL     1      17.107  68.769  12.328  1.00  0.00     0.220 HD
ENDBRANCH  17  21
ENDBRANCH  13  14
ENDBRANCH  10  13
TORSDOF 4
ENDMDL