MODEL 4
REMARK VINA RESULT: -7.964595275      2.225      3.177
REMARK  3 active torsions:
REMARK  status: ('A' for Active; 'I' for Inactive)
REMARK    1  A    between atoms: C2_2  and  O1_3
REMARK    2  A    between atoms: O1_3  and  C3_4
REMARK       I    between atoms: C3_4  and  N1_6
REMARK    3  A    between atoms: N1_6  and  C4_8
ROOT
HETATM    1  C4  UNL     1      14.529  66.306   4.868  1.00  0.00     0.081 A
HETATM    2  C5  UNL     1      15.273  66.845   3.859  1.00  0.00     0.075 A
HETATM    3  C6  UNL     1      16.363  67.553   4.217  1.00  0.00     0.085 A
HETATM    4  C7  UNL     1      16.626  67.668   5.554  1.00  0.00     0.027 A
HETATM    5  S1  UNL     1      15.359  66.795   6.275  1.00  0.00    -0.073 SA
HETATM    6  C8  UNL     1      17.785  68.411   6.134  1.00  0.00     0.001 C
HETATM    7  C9  UNL     1      17.323  69.691   6.796  1.00  0.00     0.042 C
HETATM    8  C10 UNL     1      18.307  70.084   7.877  1.00  0.00     0.233 C
HETATM    9  N2  UNL     1      18.148  69.186   9.003  1.00  0.00    -0.075 N
ATOM     10  H21 UNL     1      17.481  69.548   9.685  1.00  0.00     0.277 HD
ATOM     11  H22 UNL     1      18.979  69.169   9.595  1.00  0.00     0.277 HD
HETATM   12  C11 UNL     1      17.787  67.865   8.554  1.00  0.00     0.233 C
HETATM   13  C12 UNL     1      18.447  67.577   7.224  1.00  0.00     0.042 C
HETATM   14  C13 UNL     1      18.798  68.658   5.067  1.00  0.00     0.042 C
HETATM   15  C14 UNL     1      18.102  69.211   3.846  1.00  0.00     0.176 C
HETATM   16  O3  UNL     1      17.271  68.196   3.319  1.00  0.00    -0.350 OA
ENDROOT
BRANCH   1  17
HETATM   17  N1  UNL     1      13.322  65.510   4.760  1.00  0.00    -0.296 N
HETATM   18  C3  UNL     1      13.325  64.313   4.006  1.00  0.00     0.365 C
HETATM   19  O2  UNL     1      14.357  63.917   3.420  1.00  0.00    -0.238 OA
ATOM     20  H1  UNL     1      12.469  65.813   5.230  1.00  0.00     0.171 HD
BRANCH  18  21
HETATM   21  O1  UNL     1      12.173  63.579   3.920  1.00  0.00    -0.304 OA
BRANCH  21  22
HETATM   22  C2  UNL     1      10.884  64.140   3.764  1.00  0.00     0.176 C
HETATM   23  C1  UNL     1      10.094  64.095   5.053  1.00  0.00     0.034 C
ENDBRANCH  21  22
ENDBRANCH  18  21
ENDBRANCH   1  17
TORSDOF 3
ENDMDL