MODEL 4
REMARK VINA RESULT: -7.742518598      1.952      7.142
REMARK  4 active torsions:
REMARK  status: ('A' for Active; 'I' for Inactive)
REMARK    1  A    between atoms: C5_5  and  O1_6
REMARK    2  A    between atoms: C5_5  and  C6_8
REMARK    3  A    between atoms: C8_10  and  C9_11
REMARK    4  A    between atoms: C14_16  and  N1_17
ROOT
HETATM    1  C6  UNL     1      15.527  67.347   5.449  1.00  0.00     0.069 A
HETATM    2  C7  UNL     1      14.778  66.360   6.042  1.00  0.00     0.065 A
HETATM    3  C8  UNL     1      14.043  65.751   5.053  1.00  0.00     0.084 A
HETATM    4  O2  UNL     1      14.350  66.357   3.936  1.00  0.00    -0.242 OA
HETATM    5  N2  UNL     1      15.226  67.306   4.150  1.00  0.00    -0.262 N
ATOM      6  H2  UNL     1      15.618  67.920   3.435  1.00  0.00     0.194 HD
ENDROOT
BRANCH   1   7
HETATM    7  C5  UNL     1      16.445  68.274   6.099  1.00  0.00     0.106 C
HETATM    8  C4  UNL     1      17.607  68.675   5.199  1.00  0.00     0.081 C
HETATM    9  C2  UNL     1      18.868  68.901   6.015  1.00  0.00     0.057 C
HETATM   10  C1  UNL     1      19.638  70.014   5.317  1.00  0.00     0.045 C
HETATM   11  C3  UNL     1      19.768  67.682   5.986  1.00  0.00     0.045 C
HETATM   12  O3  UNL     1      18.622  69.323   7.293  1.00  0.00    -0.381 OA
HETATM   13  C16 UNL     1      17.855  68.510   8.070  1.00  0.00     0.172 C
HETATM   14  C15 UNL     1      16.982  67.557   7.334  1.00  0.00     0.071 C
BRANCH   7  15
HETATM   15  O1  UNL     1      15.865  69.463   6.499  1.00  0.00    -0.383 OA
ATOM     16  H1  UNL     1      15.386  69.256   7.293  1.00  0.00     0.211 HD
ENDBRANCH   7  15
ENDBRANCH   1   7
BRANCH   3  17
HETATM   17  C9  UNL     1      13.098  64.626   5.276  1.00  0.00     0.075 C
HETATM   18  C10 UNL     1      13.040  63.610   4.214  1.00  0.00     0.013 C
HETATM   19  C11 UNL     1      11.979  63.783   3.186  1.00  0.00     0.001 C
HETATM   20  C12 UNL     1      10.638  63.987   3.917  1.00  0.00     0.002 C
HETATM   21  C13 UNL     1      10.775  65.318   4.596  1.00  0.00     0.033 C
HETATM   22  C14 UNL     1      11.769  65.214   5.706  1.00  0.00     0.194 C
BRANCH  22  23
HETATM   23  N1  UNL     1      11.257  64.602   6.906  1.00  0.00    -0.074 N
ATOM     24  H13 UNL     1      10.548  65.189   7.345  1.00  0.00     0.274 HD
ATOM     25  H12 UNL     1      10.683  63.788   6.687  1.00  0.00     0.274 HD
ATOM     26  H11 UNL     1      11.996  64.362   7.567  1.00  0.00     0.274 HD
ENDBRANCH  22  23
ENDBRANCH   3  17
TORSDOF 4
ENDMDL