MODEL 4
REMARK VINA RESULT: -7.661481862      3.476      8.198
REMARK  6 active torsions:
REMARK  status: ('A' for Active; 'I' for Inactive)
REMARK    1  A    between atoms: C1_2  and  C2_3
REMARK    2  A    between atoms: C1_2  and  O2_10
REMARK    3  A    between atoms: C3_4  and  C4_5
REMARK    4  A    between atoms: O2_10  and  C8_11
REMARK    5  A    between atoms: C10_13  and  O3_14
REMARK    6  A    between atoms: C15_20  and  O4_21
ROOT
HETATM    1  C8  UNL     1      16.872  68.451   3.558  1.00  0.00     0.164 C
HETATM    2  C9  UNL     1      17.176  68.030   4.960  1.00  0.00     0.073 C
HETATM    3  C10 UNL     1      15.823  67.970   5.671  1.00  0.00     0.066 C
HETATM    4  C11 UNL     1      15.642  66.690   6.418  1.00  0.00     0.038 C
HETATM    5  C12 UNL     1      14.682  65.830   5.623  1.00  0.00     0.004 C
HETATM    6  C13 UNL     1      14.786  66.433   4.234  1.00  0.00     0.010 C
HETATM    7  C14 UNL     1      14.809  67.911   4.548  1.00  0.00     0.051 C
HETATM    8  C15 UNL     1      15.410  68.736   3.453  1.00  0.00     0.154 C
ENDROOT
BRANCH   1   9
HETATM    9  O2  UNL     1      17.685  69.495   3.092  1.00  0.00    -0.310 OA
BRANCH   9  10
HETATM   10  C1  UNL     1      18.220  69.515   1.790  1.00  0.00     0.283 C
HETATM   11  O1  UNL     1      17.367  69.434   0.864  1.00  0.00    -0.260 OA
BRANCH  10  12
HETATM   12  C2  UNL     1      19.643  69.622   1.549  1.00  0.00     0.083 C
HETATM   13  C3  UNL     1      20.485  69.704   2.542  1.00  0.00     0.025 C
BRANCH  13  14
HETATM   14  C4  UNL     1      21.946  69.815   2.326  1.00  0.00     0.005 A
HETATM   15  C5  UNL     1      22.599  69.745   1.126  1.00  0.00     0.019 A
HETATM   16  C6  UNL     1      23.943  69.871   1.155  1.00  0.00     0.008 A
HETATM   17  C7  UNL     1      24.532  70.056   2.373  1.00  0.00     0.050 A
HETATM   18  S1  UNL     1      23.204  70.050   3.442  1.00  0.00    -0.102 SA
ENDBRANCH  13  14
ENDBRANCH  10  12
ENDBRANCH   9  10
ENDBRANCH   1   9
BRANCH   8  19
HETATM   19  O4  UNL     1      14.932  68.292   2.217  1.00  0.00    -0.392 OA
ATOM     20  H4  UNL     1      15.647  68.256   1.592  1.00  0.00     0.210 HD
ENDBRANCH   8  19
BRANCH   3  21
HETATM   21  O3  UNL     1      15.633  69.095   6.444  1.00  0.00    -0.389 OA
ATOM     22  H3  UNL     1      15.063  68.903   7.179  1.00  0.00     0.210 HD
ENDBRANCH   3  21
TORSDOF 6
ENDMDL