MODEL 1
REMARK VINA RESULT: -8.538843277      0.000      0.000
REMARK  2 active torsions:
REMARK  status: ('A' for Active; 'I' for Inactive)
REMARK    1  A    between atoms: C2_3  and  N2_4
REMARK       I    between atoms: N2_4  and  C3_6
REMARK    2  A    between atoms: C3_6  and  C4_8
ROOT
HETATM    1  N1  UNL     1      20.133  67.319   9.084  1.00  0.00    -0.195 NA
HETATM    2  C1  UNL     1      19.641  67.691   8.106  1.00  0.00     0.091 C
HETATM    3  C2  UNL     1      19.021  68.153   6.838  1.00  0.00     0.122 C
HETATM    4  C10 UNL     1      19.900  67.734   5.723  1.00  0.00     0.046 C
HETATM    5  C11 UNL     1      20.520  68.877   4.950  1.00  0.00     0.004 C
HETATM    6  C12 UNL     1      21.123  69.806   5.965  1.00  0.00     0.000 C
HETATM    7  C13 UNL     1      19.994  70.480   6.686  1.00  0.00     0.004 C
HETATM    8  C14 UNL     1      18.833  69.629   6.989  1.00  0.00     0.046 C
ENDROOT
BRANCH   3   9
HETATM    9  N2  UNL     1      17.757  67.467   6.727  1.00  0.00    -0.333 N
HETATM   10  C3  UNL     1      16.806  67.724   5.721  1.00  0.00     0.276 C
HETATM   11  O1  UNL     1      17.013  68.582   4.844  1.00  0.00    -0.265 OA
ATOM     12  H2  UNL     1      17.539  66.750   7.420  1.00  0.00     0.164 HD
BRANCH  10  13
HETATM   13  C4  UNL     1      15.517  66.994   5.648  1.00  0.00     0.144 A
HETATM   14  N3  UNL     1      15.121  66.118   4.751  1.00  0.00    -0.332 N
HETATM   15  C5  UNL     1      13.934  65.572   4.854  1.00  0.00     0.115 A
ATOM     16  H3  UNL     1      15.736  65.864   3.977  1.00  0.00     0.168 HD
HETATM   17  C6  UNL     1      13.163  65.958   5.917  1.00  0.00     0.029 A
HETATM   18  N4  UNL     1      13.373  64.593   3.937  1.00  0.00    -0.375 N
HETATM   19  S1  UNL     1      14.178  67.078   6.706  1.00  0.00    -0.068 SA
HETATM   20  C7  UNL     1      11.775  65.421   6.177  1.00  0.00     0.052 C
HETATM   21  C8  UNL     1      11.825  63.986   5.657  1.00  0.00     0.025 C
HETATM   22  C9  UNL     1      12.048  64.119   4.165  1.00  0.00     0.121 C
ATOM     23  H4  UNL     1      13.917  64.252   3.144  1.00  0.00     0.161 HD
ENDBRANCH  10  13
ENDBRANCH   3   9
TORSDOF 2
ENDMDL