MODEL 3
REMARK VINA RESULT: -7.352591316      3.483      7.044
REMARK  4 active torsions:
REMARK  status: ('A' for Active; 'I' for Inactive)
REMARK    1  A    between atoms: O1_2  and  C2_3
REMARK    2  A    between atoms: C2_3  and  C3_5
REMARK    3  A    between atoms: C4_6  and  N1_7
REMARK       I    between atoms: N1_7  and  C5_9
REMARK       I    between atoms: C5_9  and  N2_11
REMARK    4  A    between atoms: N2_11  and  C6_13
ROOT
HETATM    1  C3  UNL     1      18.607  69.157   5.407  1.00  0.00     0.107 A
HETATM    2  C4  UNL     1      18.378  68.983   6.723  1.00  0.00     0.097 A
HETATM    3  S1  UNL     1      16.898  67.998   6.681  1.00  0.00    -0.073 SA
HETATM    4  C9  UNL     1      16.685  67.898   5.017  1.00  0.00     0.019 A
HETATM    5  C10 UNL     1      17.727  68.600   4.511  1.00  0.00     0.101 A
HETATM    6  O4  UNL     1      17.721  68.636   3.078  1.00  0.00    -0.349 OA
HETATM    7  C11 UNL     1      16.505  68.800   2.362  1.00  0.00     0.176 C
HETATM    8  C12 UNL     1      15.287  68.393   3.131  1.00  0.00     0.032 C
HETATM    9  C13 UNL     1      15.703  67.267   4.051  1.00  0.00     0.051 C
ENDROOT
BRANCH   2  10
HETATM   10  N1  UNL     1      18.846  69.537   7.943  1.00  0.00    -0.302 N
HETATM   11  C5  UNL     1      20.038  69.368   8.574  1.00  0.00     0.321 C
HETATM   12  O3  UNL     1      21.023  68.741   8.170  1.00  0.00    -0.247 OA
HETATM   13  N2  UNL     1      20.228  69.978   9.881  1.00  0.00    -0.339 N
ATOM     14  H2  UNL     1      19.460  70.514  10.284  1.00  0.00     0.164 HD
ATOM     15  H1  UNL     1      18.189  70.156   8.419  1.00  0.00     0.171 HD
BRANCH  13  16
HETATM   16  C6  UNL     1      21.445  69.859  10.628  1.00  0.00     0.078 C
HETATM   17  C7  UNL     1      22.188  71.166  10.559  1.00  0.00     0.032 C
HETATM   18  C8  UNL     1      21.079  69.494  12.051  1.00  0.00     0.032 C
ENDBRANCH  13  16
ENDBRANCH   2  10
BRANCH   1  19
HETATM   19  C2  UNL     1      19.933  69.702   4.912  1.00  0.00     0.298 C
HETATM   20  O2  UNL     1      20.401  70.785   5.260  1.00  0.00    -0.259 OA
BRANCH  19  21
HETATM   21  O1  UNL     1      20.698  68.966   4.009  1.00  0.00    -0.322 OA
HETATM   22  C1  UNL     1      21.275  69.627   2.909  1.00  0.00     0.213 C
ENDBRANCH  19  21
ENDBRANCH   1  19
TORSDOF 4
ENDMDL