MODEL 2
REMARK VINA RESULT: -7.250899612      3.337      5.729
REMARK  4 active torsions:
REMARK  status: ('A' for Active; 'I' for Inactive)
REMARK    1  A    between atoms: C2_2  and  S1_3
REMARK    2  A    between atoms: C7_9  and  O1_10
REMARK    3  A    between atoms: N2_12  and  C8_13
REMARK    4  A    between atoms: C14_19  and  O2_20
ROOT
HETATM    1  S1  UNL     1      19.208  69.414   1.591  1.00  0.00    -0.131 SA
HETATM    2  C3  UNL     1      17.549  70.141   2.373  1.00  0.00     0.345 C
HETATM    3  N1  UNL     1      16.976  68.798   2.292  1.00  0.00     0.119 N
HETATM    4  C4  UNL     1      16.094  68.612   3.432  1.00  0.00     0.319 C
HETATM    5  C5  UNL     1      17.075  68.634   4.558  1.00  0.00     0.035 A
HETATM    6  C6  UNL     1      18.335  68.362   4.076  1.00  0.00     0.048 A
HETATM    7  C7  UNL     1      19.186  68.397   5.140  1.00  0.00     0.154 A
HETATM    8  N2  UNL     1      18.473  68.679   6.236  1.00  0.00    -0.303 N
HETATM    9  C14 UNL     1      17.171  68.831   5.913  1.00  0.00     0.153 A
HETATM   10  C15 UNL     1      18.221  68.154   2.636  1.00  0.00     0.320 C
ENDROOT
BRANCH   8  11
HETATM   11  C8  UNL     1      19.018  68.804   7.581  1.00  0.00     0.094 C
HETATM   12  C9  UNL     1      19.447  67.455   8.133  1.00  0.00     0.026 C
HETATM   13  C10 UNL     1      20.369  67.673   9.307  1.00  0.00     0.002 C
HETATM   14  C11 UNL     1      20.089  68.994  10.005  1.00  0.00     0.000 C
HETATM   15  C12 UNL     1      20.407  70.142   9.072  1.00  0.00     0.002 C
HETATM   16  C13 UNL     1      20.235  69.699   7.613  1.00  0.00     0.026 C
ENDBRANCH   8  11
BRANCH   7  17
HETATM   17  O1  UNL     1      20.547  68.178   5.101  1.00  0.00    -0.345 OA
ATOM     18  H1  UNL     1      20.987  67.357   5.288  1.00  0.00     0.219 HD
ENDBRANCH   7  17
BRANCH   9  19
HETATM   19  O2  UNL     1      16.118  69.127   6.759  1.00  0.00    -0.345 OA
ATOM     20  H2  UNL     1      16.185  69.606   7.576  1.00  0.00     0.219 HD
ENDBRANCH   9  19
BRANCH   1  21
HETATM   21  C2  UNL     1      20.958  70.162   1.988  1.00  0.00     0.028 C
HETATM   22  C1  UNL     1      22.058  69.548   1.596  1.00  0.00     0.018 C
ENDBRANCH   1  21
TORSDOF 4
ENDMDL