MODEL 1
REMARK VINA RESULT: -8.219373979      0.000      0.000
REMARK  5 active torsions:
REMARK  status: ('A' for Active; 'I' for Inactive)
REMARK    1  A    between atoms: C2_2  and  N1_3
REMARK    2  A    between atoms: C3_4  and  O1_5
REMARK    3  A    between atoms: C6_9  and  O2_10
REMARK    4  A    between atoms: C7_12  and  O3_13
REMARK    5  A    between atoms: O3_13  and  C8_14
REMARK       I    between atoms: C8_14  and  N2_16
ROOT
HETATM    1  N1  UNL     1      13.114  65.976   5.909  1.00  0.00    -0.308 N
HETATM    2  C3  UNL     1      13.669  65.761   4.702  1.00  0.00     0.151 A
HETATM    3  C4  UNL     1      14.870  66.394   4.704  1.00  0.00     0.007 A
HETATM    4  C5  UNL     1      15.030  66.995   5.937  1.00  0.00     0.033 A
HETATM    5  C6  UNL     1      13.923  66.722   6.673  1.00  0.00     0.153 A
HETATM    6  C7  UNL     1      16.313  67.744   6.113  1.00  0.00     0.172 C
HETATM    7  C11 UNL     1      16.417  68.729   5.009  1.00  0.00     0.046 C
HETATM    8  C12 UNL     1      16.492  67.993   3.689  1.00  0.00    -0.041 C
HETATM    9  C13 UNL     1      15.677  68.723   2.616  1.00  0.00     0.015 C
HETATM   10  C14 UNL     1      17.935  67.958   3.181  1.00  0.00     0.015 C
HETATM   11  C15 UNL     1      16.004  66.587   3.742  1.00  0.00     0.052 C
ENDROOT
BRANCH   6  12
HETATM   12  O3  UNL     1      16.469  68.256   7.399  1.00  0.00    -0.294 OA
BRANCH  12  13
HETATM   13  C8  UNL     1      17.492  67.971   8.261  1.00  0.00     0.362 C
HETATM   14  O4  UNL     1      17.445  66.886   8.893  1.00  0.00    -0.238 OA
HETATM   15  N2  UNL     1      18.567  68.889   8.423  1.00  0.00    -0.337 N
HETATM   16  C9  UNL     1      19.670  68.631   9.325  1.00  0.00     0.154 C
HETATM   17  C10 UNL     1      18.580  70.131   7.675  1.00  0.00     0.154 C
ENDBRANCH  12  13
ENDBRANCH   6  12
BRANCH   5  18
HETATM   18  O2  UNL     1      13.718  67.166   7.988  1.00  0.00    -0.345 OA
ATOM     19  H2  UNL     1      12.909  67.193   8.484  1.00  0.00     0.219 HD
ENDBRANCH   5  18
BRANCH   2  20
HETATM   20  O1  UNL     1      13.153  65.036   3.619  1.00  0.00    -0.345 OA
ATOM     21  H1  UNL     1      12.702  64.200   3.626  1.00  0.00     0.219 HD
ENDBRANCH   2  20
BRANCH   1  22
HETATM   22  C2  UNL     1      11.817  65.471   6.333  1.00  0.00     0.129 C
HETATM   23  C1  UNL     1      11.769  63.982   6.037  1.00  0.00     0.027 C
ENDBRANCH   1  22
TORSDOF 5
ENDMDL