MODEL 5
REMARK VINA RESULT: -6.135665370      1.631      4.524
REMARK  2 active torsions:
REMARK  status: ('A' for Active; 'I' for Inactive)
REMARK    1  A    between atoms: C7_7  and  N1_8
REMARK    2  A    between atoms: N1_8  and  C8_10
ROOT
HETATM    1  C1  UNL     1      22.677  16.352 -23.132  1.00  0.00     0.068 C
HETATM    2  C2  UNL     1      21.539  17.341 -23.089  1.00  0.00     0.007 A
HETATM    3  C3  UNL     1      20.523  17.266 -24.001  1.00  0.00     0.032 A
HETATM    4  C4  UNL     1      19.423  18.149 -24.031  1.00  0.00    -0.044 A
HETATM    5  C5  UNL     1      18.458  18.071 -25.105  1.00  0.00     0.049 C
HETATM    6  C6  UNL     1      19.402  19.127 -23.068  1.00  0.00     0.041 A
HETATM    7  C7  UNL     1      18.383  20.114 -22.987  1.00  0.00     0.056 A
HETATM    8  C12 UNL     1      18.508  21.116 -21.995  1.00  0.00     0.018 A
HETATM    9  C13 UNL     1      17.601  22.150 -21.921  1.00  0.00     0.016 A
HETATM   10  C14 UNL     1      17.800  23.148 -20.961  1.00  0.00     0.002 A
HETATM   11  C15 UNL     1      18.863  23.132 -20.097  1.00  0.00     0.009 A
HETATM   12  C16 UNL     1      19.760  22.095 -20.192  1.00  0.00    -0.034 A
HETATM   13  C17 UNL     1      20.935  22.015 -19.289  1.00  0.00     0.050 C
HETATM   14  C18 UNL     1      19.576  21.099 -21.141  1.00  0.00     0.052 A
HETATM   15  N2  UNL     1      20.511  20.150 -21.230  1.00  0.00    -0.341 N
ATOM     16  H2  UNL     1      21.296  20.158 -20.578  1.00  0.00     0.167 HD
HETATM   17  C19 UNL     1      20.437  19.190 -22.159  1.00  0.00     0.119 A
HETATM   18  N3  UNL     1      21.470  18.300 -22.196  1.00  0.00    -0.346 N
ATOM     19  H3  UNL     1      22.214  18.382 -21.503  1.00  0.00     0.167 HD
ENDROOT
BRANCH   7  20
HETATM   20  N1  UNL     1      17.344  19.937 -23.650  1.00  0.00    -0.380 N
ATOM     21  H1  UNL     1      17.710  19.625 -24.549  1.00  0.00     0.160 HD
BRANCH  20  22
HETATM   22  C8  UNL     1      15.997  19.923 -23.861  1.00  0.00     0.019 C
HETATM   23  C9  UNL     1      15.353  21.205 -24.527  1.00  0.00     0.037 C
HETATM   24  C10 UNL     1      15.379  18.867 -24.782  1.00  0.00     0.037 C
HETATM   25  C11 UNL     1      15.217  19.869 -22.533  1.00  0.00     0.037 C
ENDBRANCH  20  22
ENDBRANCH   7  20
TORSDOF 2
ENDMDL