MODEL 1
REMARK VINA RESULT: -8.902822990      0.000      0.000
REMARK  0 active torsions:
REMARK  status: ('A' for Active; 'I' for Inactive)
REMARK       I    between atoms: C1_2  and  N2_4
ROOT
HETATM    1  N1  UNL     1      20.400  17.980 -19.536  1.00  0.00    -0.039 NA
HETATM    2  C1  UNL     1      20.340  17.629 -20.935  1.00  0.00     0.340 C
HETATM    3  O1  UNL     1      20.587  16.394 -21.173  1.00  0.00    -0.250 OA
HETATM    4  N2  UNL     1      20.025  18.589 -21.871  1.00  0.00    -0.265 N
HETATM    5  C2  UNL     1      19.843  19.972 -21.485  1.00  0.00     0.055 A
HETATM    6  C3  UNL     1      20.794  20.347 -20.587  1.00  0.00     0.031 A
HETATM    7  C4  UNL     1      20.800  21.645 -20.125  1.00  0.00     0.002 A
HETATM    8  C5  UNL     1      19.847  22.527 -20.585  1.00  0.00     0.001 A
HETATM    9  C6  UNL     1      18.856  22.171 -21.512  1.00  0.00     0.014 A
HETATM   10  C7  UNL     1      18.886  20.878 -21.939  1.00  0.00     0.002 A
HETATM   11  C8  UNL     1      17.819  20.597 -22.872  1.00  0.00    -0.013 A
HETATM   12  C9  UNL     1      16.729  21.390 -22.687  1.00  0.00     0.013 A
HETATM   13  C10 UNL     1      15.639  21.175 -23.525  1.00  0.00     0.001 A
HETATM   14  C11 UNL     1      15.643  20.213 -24.493  1.00  0.00     0.001 A
HETATM   15  C12 UNL     1      16.761  19.404 -24.674  1.00  0.00     0.013 A
HETATM   16  C13 UNL     1      17.849  19.588 -23.874  1.00  0.00    -0.011 A
HETATM   17  C14 UNL     1      18.907  18.641 -24.173  1.00  0.00     0.018 A
HETATM   18  C15 UNL     1      18.868  18.211 -25.464  1.00  0.00     0.102 A
HETATM   19  N3  UNL     1      19.797  17.301 -25.815  1.00  0.00    -0.374 N
ATOM     20  H3  UNL     1      19.805  16.948 -26.773  1.00  0.00     0.164 HD
HETATM   21  C16 UNL     1      20.731  16.834 -24.929  1.00  0.00     0.090 A
HETATM   22  C17 UNL     1      20.771  17.273 -23.628  1.00  0.00     0.048 A
HETATM   23  C18 UNL     1      19.840  18.190 -23.253  1.00  0.00     0.057 A
ENDROOT
TORSDOF 0
ENDMDL