MODEL 5
REMARK VINA RESULT: -9.470867415      2.780      4.478
REMARK  0 active torsions:
REMARK  status: ('A' for Active; 'I' for Inactive)
ROOT
HETATM    1  O1  UNL     1      20.257  22.591 -19.267  1.00  0.00    -0.267 OA
HETATM    2  C1  UNL     1      19.636  22.077 -20.235  1.00  0.00     0.262 A
HETATM    3  C2  UNL     1      18.464  22.497 -20.813  1.00  0.00     0.108 A
HETATM    4  C3  UNL     1      18.190  21.617 -21.827  1.00  0.00     0.073 A
HETATM    5  N1  UNL     1      19.174  20.688 -21.860  1.00  0.00    -0.252 N
HETATM    6  N2  UNL     1      20.038  20.977 -20.897  1.00  0.00    -0.259 N
ATOM      7  H2  UNL     1      20.883  20.444 -20.689  1.00  0.00     0.191 HD
HETATM    8  C4  UNL     1      19.153  19.651 -22.810  1.00  0.00     0.068 A
HETATM    9  C5  UNL     1      20.173  18.717 -22.819  1.00  0.00     0.032 A
HETATM   10  C6  UNL     1      20.177  17.692 -23.739  1.00  0.00     0.002 A
HETATM   11  C7  UNL     1      19.132  17.645 -24.633  1.00  0.00     0.001 A
HETATM   12  C8  UNL     1      18.100  18.565 -24.646  1.00  0.00     0.014 A
HETATM   13  C9  UNL     1      18.119  19.575 -23.723  1.00  0.00     0.004 A
HETATM   14  C10 UNL     1      17.046  20.550 -23.720  1.00  0.00    -0.010 A
HETATM   15  C11 UNL     1      16.004  20.525 -24.591  1.00  0.00     0.025 A
HETATM   16  C12 UNL     1      15.001  21.506 -24.527  1.00  0.00    -0.025 A
HETATM   17  C13 UNL     1      13.974  21.417 -25.442  1.00  0.00     0.012 A
HETATM   18  C14 UNL     1      12.942  22.355 -25.442  1.00  0.00     0.001 A
HETATM   19  C15 UNL     1      13.008  23.349 -24.494  1.00  0.00     0.001 A
HETATM   20  C16 UNL     1      14.025  23.452 -23.572  1.00  0.00     0.012 A
HETATM   21  C17 UNL     1      15.046  22.509 -23.587  1.00  0.00    -0.025 A
HETATM   22  C18 UNL     1      16.091  22.539 -22.708  1.00  0.00     0.027 A
HETATM   23  C19 UNL     1      17.078  21.577 -22.771  1.00  0.00     0.005 A
ENDROOT
TORSDOF 0
ENDMDL