MODEL 2
REMARK VINA RESULT: -9.051439941      3.326      4.033
REMARK  2 active torsions:
REMARK  status: ('A' for Active; 'I' for Inactive)
REMARK    1  A    between atoms: C5_7  and  C6_8
REMARK    2  A    between atoms: C7_9  and  C8_10
ROOT
HETATM    1  C8  UNL     1      16.099  21.786 -22.065  1.00  0.00     0.019 A
HETATM    2  C9  UNL     1      15.481  20.722 -21.459  1.00  0.00     0.023 A
HETATM    3  C10 UNL     1      16.213  19.685 -20.926  1.00  0.00     0.032 A
HETATM    4  C11 UNL     1      17.603  19.754 -21.023  1.00  0.00     0.045 A
HETATM    5  N2  UNL     1      18.595  18.940 -20.622  1.00  0.00    -0.341 N
ATOM      6  H2  UNL     1      18.457  18.055 -20.135  1.00  0.00     0.167 HD
HETATM    7  C12 UNL     1      19.802  19.454 -20.954  1.00  0.00     0.116 A
HETATM    8  N3  UNL     1      21.076  19.051 -20.788  1.00  0.00    -0.352 N
ATOM      9  H3  UNL     1      21.243  18.164 -20.312  1.00  0.00     0.166 HD
HETATM   10  C13 UNL     1      22.135  19.746 -21.212  1.00  0.00     0.090 A
HETATM   11  C14 UNL     1      21.927  20.944 -21.856  1.00  0.00     0.018 A
HETATM   12  C15 UNL     1      20.650  21.429 -22.065  1.00  0.00     0.017 A
HETATM   13  C16 UNL     1      19.595  20.654 -21.598  1.00  0.00     0.021 A
HETATM   14  C17 UNL     1      18.227  20.824 -21.633  1.00  0.00     0.006 A
HETATM   15  C18 UNL     1      17.465  21.835 -22.150  1.00  0.00     0.035 A
ENDROOT
BRANCH   1  16
HETATM   16  C7  UNL     1      15.352  22.888 -22.633  1.00  0.00    -0.061 C
HETATM   17  C6  UNL     1      14.711  23.795 -23.112  1.00  0.00    -0.060 C
BRANCH  17  18
HETATM   18  C5  UNL     1      13.933  24.863 -23.699  1.00  0.00     0.034 A
HETATM   19  C4  UNL     1      12.571  24.717 -23.848  1.00  0.00     0.108 A
HETATM   20  N1  UNL     1      11.816  25.698 -24.395  1.00  0.00    -0.373 N
HETATM   21  C3  UNL     1      12.391  26.837 -24.799  1.00  0.00     0.094 A
ATOM     22  H1  UNL     1      10.809  25.569 -24.497  1.00  0.00     0.164 HD
HETATM   23  C2  UNL     1      13.761  27.018 -24.663  1.00  0.00    -0.045 A
HETATM   24  C1  UNL     1      14.403  28.294 -25.118  1.00  0.00     0.049 C
HETATM   25  C19 UNL     1      14.541  26.025 -24.109  1.00  0.00     0.030 A
ENDBRANCH  17  18
ENDBRANCH   1  16
TORSDOF 2
ENDMDL