MODEL 1
REMARK VINA RESULT: -9.198624524      0.000      0.000
REMARK  3 active torsions:
REMARK  status: ('A' for Active; 'I' for Inactive)
REMARK    1  A    between atoms: C7_7  and  O1_8
REMARK    2  A    between atoms: C11_13  and  C12_14
REMARK    3  A    between atoms: C13_15  and  C14_16
ROOT
HETATM    1  C14 UNL     1      14.593  21.564 -24.923  1.00  0.00     0.018 A
HETATM    2  C15 UNL     1      13.892  20.722 -25.774  1.00  0.00     0.022 A
HETATM    3  C16 UNL     1      12.708  21.082 -26.377  1.00  0.00     0.024 A
HETATM    4  C17 UNL     1      12.194  22.335 -26.124  1.00  0.00     0.044 A
HETATM    5  C18 UNL     1      10.950  22.772 -26.729  1.00  0.00     0.099 C
HETATM    6  N1  UNL     1       9.969  23.127 -27.226  1.00  0.00    -0.191 NA
HETATM    7  C19 UNL     1      12.883  23.181 -25.278  1.00  0.00     0.024 A
HETATM    8  C20 UNL     1      14.068  22.816 -24.677  1.00  0.00     0.022 A
ENDROOT
BRANCH   1   9
HETATM    9  C13 UNL     1      15.831  21.157 -24.308  1.00  0.00    -0.061 C
HETATM   10  C12 UNL     1      16.887  20.828 -23.795  1.00  0.00    -0.061 C
BRANCH  10  11
HETATM   11  C11 UNL     1      18.142  20.464 -23.200  1.00  0.00     0.024 A
HETATM   12  C2  UNL     1      18.688  21.184 -22.140  1.00  0.00    -0.042 A
HETATM   13  C1  UNL     1      17.910  22.348 -21.655  1.00  0.00     0.049 C
HETATM   14  C3  UNL     1      19.903  20.811 -21.584  1.00  0.00     0.020 A
HETATM   15  C4  UNL     1      20.545  19.713 -22.110  1.00  0.00    -0.025 A
HETATM   16  C5  UNL     1      21.751  19.326 -21.572  1.00  0.00     0.015 A
HETATM   17  C9  UNL     1      20.037  18.978 -23.155  1.00  0.00    -0.022 A
HETATM   18  C6  UNL     1      22.441  18.220 -22.070  1.00  0.00     0.037 A
HETATM   19  C7  UNL     1      21.934  17.482 -23.118  1.00  0.00     0.066 A
HETATM   20  C8  UNL     1      20.727  17.869 -23.656  1.00  0.00     0.048 A
HETATM   21  C10 UNL     1      18.822  19.376 -23.689  1.00  0.00     0.033 A
BRANCH  19  22
HETATM   22  O1  UNL     1      22.606  16.372 -23.632  1.00  0.00    -0.361 OA
ATOM     23  H1  UNL     1      23.097  16.414 -24.445  1.00  0.00     0.217 HD
ENDBRANCH  19  22
ENDBRANCH  10  11
ENDBRANCH   1   9
TORSDOF 3
ENDMDL