MODEL 3
REMARK VINA RESULT: -9.651358474      2.290      5.810
REMARK  0 active torsions:
REMARK  status: ('A' for Active; 'I' for Inactive)
ROOT
HETATM    1  C1  UNL     1      18.549  22.712 -21.143  1.00  0.00     0.050 C
HETATM    2  C2  UNL     1      17.918  21.736 -22.023  1.00  0.00    -0.038 A
HETATM    3  C3  UNL     1      16.623  22.083 -22.556  1.00  0.00    -0.010 A
HETATM    4  C4  UNL     1      15.855  23.124 -22.171  1.00  0.00     0.020 A
HETATM    5  C5  UNL     1      14.638  23.281 -22.783  1.00  0.00     0.051 A
HETATM    6  S1  UNL     1      14.591  21.979 -23.877  1.00  0.00    -0.099 SA
HETATM    7  C6  UNL     1      16.100  21.279 -23.529  1.00  0.00     0.040 A
HETATM    8  C7  UNL     1      16.734  20.174 -24.017  1.00  0.00     0.075 A
HETATM    9  N1  UNL     1      16.172  19.355 -25.036  1.00  0.00    -0.100 NA
HETATM   10  C8  UNL     1      17.979  19.817 -23.515  1.00  0.00     0.001 A
HETATM   11  C9  UNL     1      18.586  18.699 -24.030  1.00  0.00     0.016 A
HETATM   12  C10 UNL     1      19.795  18.336 -23.544  1.00  0.00     0.031 A
HETATM   13  C11 UNL     1      20.394  19.076 -22.549  1.00  0.00     0.045 A
HETATM   14  C12 UNL     1      19.787  20.215 -22.018  1.00  0.00     0.003 A
HETATM   15  C13 UNL     1      20.376  20.876 -20.990  1.00  0.00     0.016 A
HETATM   16  C14 UNL     1      21.603  20.407 -20.487  1.00  0.00     0.025 A
HETATM   17  C15 UNL     1      22.168  19.296 -21.040  1.00  0.00     0.007 A
HETATM   18  C16 UNL     1      23.461  18.786 -20.532  1.00  0.00     0.068 C
HETATM   19  N2  UNL     1      21.569  18.656 -22.045  1.00  0.00    -0.354 N
HETATM   20  C17 UNL     1      22.168  17.469 -22.634  1.00  0.00     0.156 C
HETATM   21  C18 UNL     1      18.546  20.621 -22.508  1.00  0.00    -0.005 A
ENDROOT
TORSDOF 0
ENDMDL