MODEL 3
REMARK VINA RESULT: -8.839091003      2.684      6.386
REMARK  0 active torsions:
REMARK  status: ('A' for Active; 'I' for Inactive)
ROOT
HETATM    1  O1  UNL     1      15.664  21.936 -20.882  1.00  0.00    -0.285 OA
HETATM    2  C1  UNL     1      16.411  21.789 -21.832  1.00  0.00     0.210 C
HETATM    3  C2  UNL     1      17.783  21.726 -21.594  1.00  0.00     0.028 A
HETATM    4  C3  UNL     1      18.165  22.574 -20.581  1.00  0.00     0.016 A
HETATM    5  C4  UNL     1      19.497  22.766 -20.306  1.00  0.00     0.001 A
HETATM    6  C5  UNL     1      20.458  22.091 -21.074  1.00  0.00     0.001 A
HETATM    7  C6  UNL     1      20.103  21.232 -22.100  1.00  0.00     0.013 A
HETATM    8  C7  UNL     1      18.768  21.071 -22.324  1.00  0.00    -0.009 A
HETATM    9  C8  UNL     1      18.501  20.134 -23.306  1.00  0.00     0.015 A
HETATM   10  C9  UNL     1      19.297  19.059 -23.569  1.00  0.00     0.004 A
HETATM   11  C10 UNL     1      20.397  18.536 -22.967  1.00  0.00     0.014 A
HETATM   12  C11 UNL     1      20.949  17.364 -23.479  1.00  0.00     0.001 A
HETATM   13  C12 UNL     1      20.380  16.756 -24.574  1.00  0.00     0.002 A
HETATM   14  C13 UNL     1      19.259  17.301 -25.169  1.00  0.00     0.030 A
HETATM   15  C14 UNL     1      18.704  18.456 -24.676  1.00  0.00     0.043 A
HETATM   16  N1  UNL     1      17.587  19.130 -25.057  1.00  0.00    -0.354 N
ATOM     17  H1  UNL     1      16.973  18.889 -25.836  1.00  0.00     0.166 HD
HETATM   18  C15 UNL     1      17.440  20.160 -24.229  1.00  0.00     0.057 A
HETATM   19  C16 UNL     1      16.366  20.999 -24.199  1.00  0.00     0.022 A
HETATM   20  C17 UNL     1      15.716  21.058 -25.406  1.00  0.00     0.017 A
HETATM   21  C18 UNL     1      14.548  21.818 -25.522  1.00  0.00     0.018 A
HETATM   22  C19 UNL     1      14.086  22.484 -24.415  1.00  0.00     0.088 A
HETATM   23  N2  UNL     1      14.729  22.423 -23.236  1.00  0.00    -0.362 N
ATOM     24  H2  UNL     1      14.356  22.933 -22.435  1.00  0.00     0.165 HD
HETATM   25  C20 UNL     1      15.858  21.699 -23.093  1.00  0.00     0.096 A
ENDROOT
TORSDOF 0
ENDMDL