MODEL 4
REMARK VINA RESULT: -8.081873672      1.578      1.684
REMARK  2 active torsions:
REMARK  status: ('A' for Active; 'I' for Inactive)
REMARK       I    between atoms: C1_2  and  N1_3
REMARK    1  A    between atoms: C1_2  and  C12_18
REMARK    2  A    between atoms: N1_3  and  C2_5
ROOT
HETATM    1  C2  UNL     1      16.859  20.549 -22.909  1.00  0.00     0.152 A
HETATM    2  N2  UNL     1      16.102  20.695 -23.986  1.00  0.00    -0.335 N
ATOM      3  H2  UNL     1      16.109  19.996 -24.729  1.00  0.00     0.168 HD
HETATM    4  C3  UNL     1      15.337  21.768 -24.073  1.00  0.00     0.058 A
HETATM    5  C4  UNL     1      15.372  22.663 -23.049  1.00  0.00     0.018 A
HETATM    6  S1  UNL     1      16.511  21.929 -21.985  1.00  0.00    -0.056 SA
HETATM    7  C5  UNL     1      14.452  23.830 -23.283  1.00  0.00     0.088 A
HETATM    8  C6  UNL     1      13.865  23.518 -24.583  1.00  0.00    -0.041 A
HETATM    9  C7  UNL     1      12.929  24.257 -25.314  1.00  0.00     0.008 A
HETATM   10  C8  UNL     1      12.481  23.809 -26.530  1.00  0.00     0.001 A
HETATM   11  C9  UNL     1      12.976  22.617 -27.013  1.00  0.00     0.001 A
HETATM   12  C10 UNL     1      13.896  21.895 -26.290  1.00  0.00     0.014 A
HETATM   13  C11 UNL     1      14.364  22.333 -25.050  1.00  0.00    -0.002 A
ENDROOT
BRANCH   1  14
HETATM   14  N1  UNL     1      17.686  19.573 -22.616  1.00  0.00    -0.303 N
HETATM   15  C1  UNL     1      18.766  19.345 -23.530  1.00  0.00     0.257 C
HETATM   16  O1  UNL     1      18.489  19.440 -24.751  1.00  0.00    -0.267 OA
ATOM     17  H1  UNL     1      17.566  19.004 -21.778  1.00  0.00     0.171 HD
BRANCH  15  18
HETATM   18  C12 UNL     1      20.106  19.025 -23.090  1.00  0.00     0.032 A
HETATM   19  C13 UNL     1      20.857  20.006 -22.478  1.00  0.00     0.017 A
HETATM   20  C14 UNL     1      22.122  19.739 -22.053  1.00  0.00     0.001 A
HETATM   21  C15 UNL     1      22.678  18.484 -22.222  1.00  0.00     0.000 A
HETATM   22  C16 UNL     1      21.957  17.495 -22.825  1.00  0.00     0.001 A
HETATM   23  C17 UNL     1      20.673  17.773 -23.255  1.00  0.00     0.017 A
ENDBRANCH  15  18
ENDBRANCH   1  14
TORSDOF 2
ENDMDL