MODEL 1
REMARK VINA RESULT: -10.623014262      0.000      0.000
REMARK  0 active torsions:
REMARK  status: ('A' for Active; 'I' for Inactive)
ROOT
HETATM    1  O1  UNL     1      20.870  16.760 -21.398  1.00  0.00    -0.285 OA
HETATM    2  C1  UNL     1      20.764  17.893 -21.818  1.00  0.00     0.210 C
HETATM    3  C2  UNL     1      19.959  18.061 -22.946  1.00  0.00     0.028 A
HETATM    4  C3  UNL     1      20.034  17.027 -23.822  1.00  0.00     0.016 A
HETATM    5  C4  UNL     1      19.425  17.122 -25.052  1.00  0.00     0.001 A
HETATM    6  C5  UNL     1      18.745  18.276 -25.382  1.00  0.00     0.001 A
HETATM    7  C6  UNL     1      18.644  19.364 -24.508  1.00  0.00     0.013 A
HETATM    8  C7  UNL     1      19.256  19.218 -23.300  1.00  0.00    -0.007 A
HETATM    9  C8  UNL     1      19.033  20.302 -22.463  1.00  0.00     0.032 A
HETATM   10  C9  UNL     1      17.899  21.049 -22.513  1.00  0.00     0.005 A
HETATM   11  C10 UNL     1      16.709  20.987 -23.167  1.00  0.00     0.014 A
HETATM   12  C11 UNL     1      15.761  21.952 -22.887  1.00  0.00     0.001 A
HETATM   13  C12 UNL     1      15.988  22.957 -21.973  1.00  0.00     0.002 A
HETATM   14  C13 UNL     1      17.190  23.038 -21.292  1.00  0.00     0.030 A
HETATM   15  C14 UNL     1      18.123  22.071 -21.581  1.00  0.00     0.044 A
HETATM   16  N1  UNL     1      19.340  21.915 -21.003  1.00  0.00    -0.341 N
ATOM     17  H1  UNL     1      19.742  22.525 -20.290  1.00  0.00     0.167 HD
HETATM   18  C15 UNL     1      19.922  20.840 -21.514  1.00  0.00     0.124 A
HETATM   19  N2  UNL     1      21.076  20.273 -21.108  1.00  0.00    -0.304 N
HETATM   20  C16 UNL     1      22.015  20.971 -20.466  1.00  0.00     0.099 A
HETATM   21  C17 UNL     1      23.023  20.083 -20.124  1.00  0.00     0.020 A
HETATM   22  C18 UNL     1      22.639  18.845 -20.588  1.00  0.00     0.035 A
HETATM   23  C19 UNL     1      21.419  18.964 -21.207  1.00  0.00     0.091 A
ENDROOT
TORSDOF 0
ENDMDL