MODEL 3
REMARK VINA RESULT: -6.945810654      5.014     10.092
REMARK  8 active torsions:
REMARK  status: ('A' for Active; 'I' for Inactive)
REMARK    1  A    between atoms: C3_3  and  C4_4
REMARK    2  A    between atoms: C4_4  and  C5_5
REMARK    3  A    between atoms: C5_5  and  N1_6
REMARK    4  A    between atoms: C6_7  and  N2_8
REMARK    5  A    between atoms: N2_8  and  C7_10
REMARK    6  A    between atoms: C7_10  and  C8_11
REMARK    7  A    between atoms: C8_11  and  C9_12
REMARK    8  A    between atoms: C9_12  and  N3_13
ROOT
HETATM    1  C1  UNL     1      33.755   5.481   1.470  1.00  0.00     0.012 C
HETATM    2  C2  UNL     1      34.458   5.352   2.448  1.00  0.00    -0.117 C
HETATM    3  C3  UNL     1      35.294   5.222   3.623  1.00  0.00     0.094 C
ENDROOT
BRANCH   3   4
HETATM    4  C4  UNL     1      36.338   4.150   3.330  1.00  0.00     0.033 C
BRANCH   4   5
HETATM    5  C5  UNL     1      36.913   3.717   4.640  1.00  0.00     0.150 C
BRANCH   5   6
HETATM    6  N1  UNL     1      38.330   3.900   4.745  1.00  0.00    -0.164 N
HETATM    7  C6  UNL     1      39.243   3.051   4.262  1.00  0.00     0.683 A
HETATM    8  N4  UNL     1      40.466   3.548   4.545  1.00  0.00    -0.173 N
HETATM    9  C10 UNL     1      40.292   4.711   5.207  1.00  0.00     0.168 A
ATOM     10  H4  UNL     1      41.360   3.122   4.303  1.00  0.00     0.186 HD
HETATM   11  N5  UNL     1      41.184   5.580   5.701  1.00  0.00    -0.323 N
HETATM   12  C15 UNL     1      38.942   4.955   5.345  1.00  0.00     0.169 A
HETATM   13  C11 UNL     1      40.699   6.672   6.322  1.00  0.00     0.139 A
ATOM     14  H5  UNL     1      42.187   5.420   5.611  1.00  0.00     0.169 HD
HETATM   15  N6  UNL     1      41.624   7.535   6.813  1.00  0.00    -0.337 N
HETATM   16  C14 UNL     1      39.359   6.926   6.467  1.00  0.00     0.122 A
HETATM   17  C12 UNL     1      41.262   8.658   7.452  1.00  0.00     0.183 A
ATOM     18  H6  UNL     1      42.615   7.325   6.694  1.00  0.00     0.168 HD
HETATM   19  N7  UNL     1      39.949   8.901   7.590  1.00  0.00    -0.337 N
HETATM   20  C13 UNL     1      38.984   8.068   7.115  1.00  0.00     0.131 A
ATOM     21  H7  UNL     1      39.661   9.752   8.073  1.00  0.00     0.168 HD
HETATM   22  N8  UNL     1      37.742   8.343   7.272  1.00  0.00    -0.383 N
ATOM     23  H82 UNL     1      37.462   9.196   7.757  1.00  0.00     0.157 HD
ATOM     24  H81 UNL     1      37.018   7.718   6.916  1.00  0.00     0.157 HD
HETATM   25  N9  UNL     1      38.449   6.043   5.964  1.00  0.00    -0.333 N
ATOM     26  H9  UNL     1      37.446   6.200   6.053  1.00  0.00     0.168 HD
BRANCH   7  27
HETATM   27  N2  UNL     1      38.981   1.954   3.637  1.00  0.00    -0.226 N
ATOM     28  H2  UNL     1      38.027   1.815   3.301  1.00  0.00     0.177 HD
BRANCH  27  29
HETATM   29  C7  UNL     1      39.933   0.920   3.385  1.00  0.00     0.139 C
BRANCH  29  30
HETATM   30  C8  UNL     1      39.783  -0.109   4.513  1.00  0.00     0.047 C
BRANCH  30  31
HETATM   31  C9  UNL     1      41.004  -0.070   5.387  1.00  0.00     0.231 C
BRANCH  31  32
HETATM   32  N3  UNL     1      40.616   0.604   6.631  1.00  0.00    -0.079 N
ATOM     33  H33 UNL     1      39.616   0.548   6.823  1.00  0.00     0.274 HD
ATOM     34  H32 UNL     1      40.936   0.118   7.468  1.00  0.00     0.274 HD
ATOM     35  H31 UNL     1      40.958   1.562   6.567  1.00  0.00     0.274 HD
ENDBRANCH  31  32
ENDBRANCH  30  31
ENDBRANCH  29  30
ENDBRANCH  27  29
ENDBRANCH   7  27
ENDBRANCH   5   6
ENDBRANCH   4   5
ENDBRANCH   3   4
TORSDOF 8
ENDMDL