MODEL 3
REMARK VINA RESULT: -7.038270049      1.766      2.506
REMARK  8 active torsions:
REMARK  status: ('A' for Active; 'I' for Inactive)
REMARK    1  A    between atoms: N1_1  and  C1_5
REMARK    2  A    between atoms: C1_5  and  C2_6
REMARK    3  A    between atoms: C2_6  and  S1_7
REMARK    4  A    between atoms: S1_7  and  C3_8
REMARK    5  A    between atoms: C3_8  and  C4_9
REMARK    6  A    between atoms: N3_13  and  C6_15
REMARK    7  A    between atoms: C6_15  and  C7_16
REMARK    8  A    between atoms: C14_27  and  O2_28
ROOT
HETATM    1  C4  UNL     1      39.610   3.333   5.256  1.00  0.00     0.146 C
HETATM    2  N2  UNL     1      39.723   4.370   6.269  1.00  0.00    -0.218 N
ATOM      3  H2  UNL     1      39.460   4.160   7.232  1.00  0.00     0.178 HD
HETATM    4  C5  UNL     1      40.197   5.682   5.937  1.00  0.00     0.677 C
HETATM    5  N3  UNL     1      40.389   6.489   6.897  1.00  0.00    -0.222 N
ATOM      6  H3  UNL     1      40.187   6.127   7.829  1.00  0.00     0.178 HD
HETATM    7  N5  UNL     1      40.412   5.974   4.563  1.00  0.00    -0.158 N
ATOM      8  H5  UNL     1      40.749   6.896   4.283  1.00  0.00     0.187 HD
HETATM    9  C13 UNL     1      40.157   4.980   3.578  1.00  0.00     0.266 C
HETATM   10  O1  UNL     1      40.739   5.000   2.447  1.00  0.00    -0.270 OA
HETATM   11  C14 UNL     1      39.176   3.915   3.936  1.00  0.00     0.234 C
ENDROOT
BRANCH   5  12
HETATM   12  C6  UNL     1      40.852   7.835   6.841  1.00  0.00     0.176 C
BRANCH  12  13
HETATM   13  C7  UNL     1      40.362   8.560   8.060  1.00  0.00    -0.040 A
HETATM   14  C8  UNL     1      39.120   8.354   8.593  1.00  0.00     0.011 A
HETATM   15  C9  UNL     1      38.713   9.050   9.724  1.00  0.00     0.027 A
HETATM   16  C10 UNL     1      39.562   9.954  10.317  1.00  0.00     0.046 A
HETATM   17  N4  UNL     1      39.176  10.683  11.476  1.00  0.00    -0.102 NA
HETATM   18  C11 UNL     1      40.830  10.167   9.777  1.00  0.00     0.027 A
HETATM   19  C12 UNL     1      41.201   9.463   8.659  1.00  0.00     0.011 A
ENDBRANCH  12  13
ENDBRANCH   5  12
BRANCH   1  20
HETATM   20  C3  UNL     1      38.613   2.273   5.714  1.00  0.00     0.102 C
BRANCH  20  21
HETATM   21  S1  UNL     1      38.601   0.873   4.559  1.00  0.00    -0.165 SA
BRANCH  21  22
HETATM   22  C2  UNL     1      40.300   0.344   4.178  1.00  0.00     0.101 C
BRANCH  22  23
HETATM   23  C1  UNL     1      40.868  -0.317   5.423  1.00  0.00     0.239 C
BRANCH  23  24
HETATM   24  N1  UNL     1      41.626   0.651   6.206  1.00  0.00    -0.079 N
ATOM     25  H13 UNL     1      41.278   1.601   6.077  1.00  0.00     0.274 HD
ATOM     26  H12 UNL     1      41.443   0.558   7.206  1.00  0.00     0.274 HD
ATOM     27  H11 UNL     1      42.620   0.577   5.993  1.00  0.00     0.274 HD
ENDBRANCH  23  24
ENDBRANCH  22  23
ENDBRANCH  21  22
ENDBRANCH  20  21
ENDBRANCH   1  20
BRANCH  11  28
HETATM   28  O2  UNL     1      37.929   4.551   4.054  1.00  0.00    -0.384 OA
ATOM     29  H2  UNL     1      37.226   3.967   3.793  1.00  0.00     0.210 HD
ENDBRANCH  11  28
TORSDOF 8
ENDMDL