MODEL 1
REMARK VINA RESULT: -8.479691547      0.000      0.000
REMARK  7 active torsions:
REMARK  status: ('A' for Active; 'I' for Inactive)
REMARK    1  A    between atoms: N1_1  and  C1_4
REMARK    2  A    between atoms: C2_7  and  S1_8
REMARK    3  A    between atoms: S1_8  and  S2_9
REMARK    4  A    between atoms: S2_9  and  N3_12
REMARK    5  A    between atoms: N3_12  and  C3_14
REMARK    6  A    between atoms: C3_14  and  C4_15
REMARK    7  A    between atoms: C8_19  and  O3_20
ROOT
HETATM    1  S1  UNL     1      40.470   9.409   9.042  1.00  0.00     0.062 SA
ENDROOT
BRANCH   1   2
HETATM    2  C2  UNL     1      40.869  10.300  10.407  1.00  0.00     0.180 A
HETATM    3  N2  UNL     1      42.158  10.458  10.821  1.00  0.00    -0.169 N
HETATM    4  C1  UNL     1      42.533  11.147  11.886  1.00  0.00     0.681 A
ATOM      5  H2  UNL     1      42.889  10.011  10.268  1.00  0.00     0.186 HD
HETATM    6  N5  UNL     1      41.579  11.742  12.626  1.00  0.00    -0.141 N
HETATM    7  C10 UNL     1      40.297  11.620  12.266  1.00  0.00     0.340 A
ATOM      8  H5  UNL     1      41.832  12.282  13.453  1.00  0.00     0.189 HD
HETATM    9  N4  UNL     1      39.937  10.917  11.181  1.00  0.00    -0.287 N
HETATM   10  O4  UNL     1      39.416  12.198  12.990  1.00  0.00    -0.246 OA
ATOM     11  H4  UNL     1      38.950  10.845  10.934  1.00  0.00     0.172 HD
BRANCH   4  12
HETATM   12  N1  UNL     1      43.791  11.234  12.190  1.00  0.00    -0.234 N
ATOM     13  H12 UNL     1      44.452  11.749  11.608  1.00  0.00     0.174 HD
ATOM     14  H11 UNL     1      44.143  10.779  13.032  1.00  0.00     0.174 HD
ENDBRANCH   4  12
ENDBRANCH   1   2
BRANCH   1  15
HETATM   15  S2  UNL     1      41.001   7.452   8.982  1.00  0.00     0.291 S
HETATM   16  O1  UNL     1      40.053   6.362   9.308  1.00  0.00    -0.194 OA
HETATM   17  O2  UNL     1      42.069   7.388  10.021  1.00  0.00    -0.194 OA
BRANCH  15  18
HETATM   18  N3  UNL     1      41.520   7.212   7.386  1.00  0.00    -0.306 N
ATOM     19  H3  UNL     1      42.414   6.799   7.120  1.00  0.00     0.173 HD
BRANCH  18  20
HETATM   20  C3  UNL     1      40.526   7.671   6.467  1.00  0.00     0.171 C
BRANCH  20  21
HETATM   21  C4  UNL     1      39.921   6.575   5.670  1.00  0.00    -0.037 A
HETATM   22  C5  UNL     1      38.595   6.272   5.948  1.00  0.00     0.009 A
HETATM   23  C6  UNL     1      37.935   5.283   5.279  1.00  0.00     0.003 A
HETATM   24  C7  UNL     1      38.630   4.589   4.309  1.00  0.00     0.036 A
HETATM   25  C8  UNL     1      39.941   4.860   4.006  1.00  0.00     0.066 A
HETATM   26  C9  UNL     1      40.583   5.869   4.704  1.00  0.00     0.045 A
BRANCH  25  27
HETATM   27  O3  UNL     1      40.652   4.169   3.033  1.00  0.00    -0.361 OA
ATOM     28  H3  UNL     1      40.386   4.136   2.122  1.00  0.00     0.217 HD
ENDBRANCH  25  27
ENDBRANCH  20  21
ENDBRANCH  18  20
ENDBRANCH  15  18
ENDBRANCH   1  15
TORSDOF 7
ENDMDL