MODEL 2
REMARK VINA RESULT: -5.979210324      2.675      6.578
REMARK  9 active torsions:
REMARK  status: ('A' for Active; 'I' for Inactive)
REMARK    1  A    between atoms: O1_1  and  C1_3
REMARK    2  A    between atoms: C1_3  and  C2_4
REMARK    3  A    between atoms: C2_4  and  N1_5
REMARK    4  A    between atoms: C6_9  and  S1_10
REMARK    5  A    between atoms: S1_10  and  C7_11
REMARK    6  A    between atoms: C9_13  and  N2_14
REMARK    7  A    between atoms: N2_14  and  C10_16
REMARK    8  A    between atoms: C12_19  and  O3_20
REMARK    9  A    between atoms: C13_22  and  O4_23
ROOT
HETATM    1  C7  UNL     1      36.400   6.793  10.303  1.00  0.00     0.251 C
HETATM    2  C8  UNL     1      37.172   6.764   9.007  1.00  0.00     0.070 C
HETATM    3  C9  UNL     1      37.509   8.295   8.931  1.00  0.00     0.107 C
HETATM    4  C14 UNL     1      36.114   8.773   9.053  1.00  0.00     0.258 C
HETATM    5  N3  UNL     1      35.735   8.111  10.332  1.00  0.00    -0.060 N
ATOM      6  H31 UNL     1      35.955   8.663  11.161  1.00  0.00     0.278 HD
ATOM      7  H32 UNL     1      34.728   8.059  10.485  1.00  0.00     0.278 HD
ENDROOT
BRANCH   3   8
HETATM    8  N2  UNL     1      38.309   8.538   7.827  1.00  0.00    -0.389 N
ATOM      9  H2  UNL     1      37.859   8.575   6.912  1.00  0.00     0.156 HD
BRANCH   8  10
HETATM   10  C10 UNL     1      39.676   8.732   7.879  1.00  0.00     0.248 C
HETATM   11  O2  UNL     1      40.375   7.649   7.300  1.00  0.00    -0.362 OA
HETATM   12  C11 UNL     1      41.697   8.134   7.488  1.00  0.00     0.205 C
HETATM   13  C12 UNL     1      41.726   8.428   8.986  1.00  0.00     0.175 C
HETATM   14  C13 UNL     1      40.256   8.807   9.250  1.00  0.00     0.197 C
BRANCH  13  15
HETATM   15  O3  UNL     1      42.063   7.290   9.706  1.00  0.00    -0.391 OA
ATOM     16  H3  UNL     1      41.708   6.512   9.292  1.00  0.00     0.210 HD
ENDBRANCH  13  15
BRANCH  14  17
HETATM   17  O4  UNL     1      40.160   9.998   9.896  1.00  0.00    -0.389 OA
ATOM     18  H4  UNL     1      39.652  10.014  10.698  1.00  0.00     0.210 HD
ENDBRANCH  14  17
ENDBRANCH   8  10
ENDBRANCH   3   8
BRANCH   1  19
HETATM   19  S1  UNL     1      35.132   5.494  10.348  1.00  0.00    -0.100 SA
BRANCH  19  20
HETATM   20  C6  UNL     1      35.645   4.092  11.306  1.00  0.00     0.286 C
HETATM   21  N1  UNL     1      35.760   2.872  10.577  1.00  0.00     0.104 N
HETATM   22  C3  UNL     1      36.973   2.862   9.848  1.00  0.00     0.274 C
HETATM   23  C4  UNL     1      37.900   3.652  10.769  1.00  0.00     0.033 C
HETATM   24  C5  UNL     1      37.061   4.250  11.852  1.00  0.00     0.048 C
BRANCH  21  25
HETATM   25  C2  UNL     1      35.604   1.768  11.485  1.00  0.00     0.299 C
BRANCH  25  26
HETATM   26  C1  UNL     1      34.828   0.626  10.877  1.00  0.00     0.194 C
BRANCH  26  27
HETATM   27  O1  UNL     1      34.379  -0.262  11.861  1.00  0.00    -0.399 OA
ATOM     28  H1  UNL     1      33.896  -0.984  11.478  1.00  0.00     0.209 HD
ENDBRANCH  26  27
ENDBRANCH  25  26
ENDBRANCH  21  25
ENDBRANCH  19  20
ENDBRANCH   1  19
TORSDOF 9
ENDMDL