MODEL 3
REMARK VINA RESULT: -8.044549339      2.339      3.550
REMARK  9 active torsions:
REMARK  status: ('A' for Active; 'I' for Inactive)
REMARK    1  A    between atoms: N1_1  and  N2_4
REMARK    2  A    between atoms: N2_4  and  C1_6
REMARK    3  A    between atoms: C3_12  and  N5_13
REMARK    4  A    between atoms: C4_15  and  C5_16
REMARK    5  A    between atoms: C5_16  and  C6_17
REMARK    6  A    between atoms: N6_19  and  C8_20
REMARK    7  A    between atoms: C8_20  and  C9_21
REMARK    8  A    between atoms: C9_21  and  N7_22
REMARK    9  A    between atoms: N7_22  and  O1_23
ROOT
HETATM    1  N5  UNL     1      41.896   8.505   9.018  1.00  0.00    -0.204 N
ATOM      2  H5  UNL     1      42.661   7.909   9.337  1.00  0.00     0.183 HD
HETATM    3  C4  UNL     1      41.492   7.953   7.848  1.00  0.00     0.083 C
ENDROOT
BRANCH   1   4
HETATM    4  C3  UNL     1      41.792   9.372   9.887  1.00  0.00     0.697 A
HETATM    5  N4  UNL     1      42.801   9.734  10.714  1.00  0.00    -0.187 N
HETATM    6  C2  UNL     1      42.627  10.690  11.632  1.00  0.00     0.215 A
ATOM      7  H4  UNL     1      43.705   9.271  10.635  1.00  0.00     0.185 HD
HETATM    8  N3  UNL     1      41.429  11.305  11.736  1.00  0.00    -0.185 N
HETATM    9  C1  UNL     1      40.416  10.965  10.930  1.00  0.00     0.711 A
ATOM     10  H3  UNL     1      41.295  12.035  12.436  1.00  0.00     0.185 HD
HETATM   11  N8  UNL     1      40.597  10.018  10.024  1.00  0.00    -0.021 N
ATOM     12  H8  UNL     1      39.823   9.762   9.412  1.00  0.00     0.203 HD
BRANCH   9  13
HETATM   13  N2  UNL     1      39.262  11.566  11.040  1.00  0.00    -0.138 N
ATOM     14  H2  UNL     1      38.405  11.016  11.099  1.00  0.00     0.205 HD
BRANCH  13  15
HETATM   15  N1  UNL     1      39.199  12.955  11.078  1.00  0.00    -0.331 N
ATOM     16  H12 UNL     1      38.331  13.417  10.811  1.00  0.00     0.177 HD
ATOM     17  H11 UNL     1      40.014  13.496  11.368  1.00  0.00     0.177 HD
ENDBRANCH  13  15
ENDBRANCH   9  13
ENDBRANCH   1   4
BRANCH   3  18
HETATM   18  C5  UNL     1      39.988   7.884   7.681  1.00  0.00     0.086 C
BRANCH  18  19
HETATM   19  C6  UNL     1      39.549   6.446   7.569  1.00  0.00    -0.025 A
HETATM   20  C7  UNL     1      39.059   5.610   8.523  1.00  0.00     0.099 A
HETATM   21  N6  UNL     1      38.763   4.394   8.006  1.00  0.00    -0.354 N
HETATM   22  C10 UNL     1      39.078   4.478   6.699  1.00  0.00     0.045 A
HETATM   23  C11 UNL     1      38.987   3.549   5.690  1.00  0.00     0.030 A
HETATM   24  C15 UNL     1      39.571   5.747   6.399  1.00  0.00    -0.001 A
HETATM   25  C12 UNL     1      39.383   3.894   4.418  1.00  0.00     0.002 A
HETATM   26  C13 UNL     1      39.870   5.145   4.115  1.00  0.00     0.001 A
HETATM   27  C14 UNL     1      39.969   6.094   5.122  1.00  0.00     0.014 A
BRANCH  21  28
HETATM   28  C8  UNL     1      38.216   3.272   8.737  1.00  0.00     0.147 C
BRANCH  28  29
HETATM   29  C9  UNL     1      38.275   3.470  10.225  1.00  0.00     0.162 C
BRANCH  29  30
HETATM   30  N7  UNL     1      38.527   2.229  10.927  1.00  0.00    -0.102 NA
BRANCH  30  31
HETATM   31  O1  UNL     1      39.547   1.539  10.424  1.00  0.00    -0.296 OA
ATOM     32  H1  UNL     1      40.395   1.900  10.656  1.00  0.00     0.238 HD
ENDBRANCH  30  31
ENDBRANCH  29  30
ENDBRANCH  28  29
ENDBRANCH  21  28
ENDBRANCH  18  19
ENDBRANCH   3  18
TORSDOF 9
ENDMDL