MODEL 2
REMARK VINA RESULT: -7.724883237      7.287     10.076
REMARK  8 active torsions:
REMARK  status: ('A' for Active; 'I' for Inactive)
REMARK    1  A    between atoms: C1_2  and  C2_3
REMARK    2  A    between atoms: C2_3  and  C3_4
REMARK    3  A    between atoms: C3_4  and  S1_5
REMARK    4  A    between atoms: S1_5  and  C4_6
REMARK    5  A    between atoms: C4_6  and  C5_7
REMARK    6  A    between atoms: N2_13  and  N3_15
REMARK       I    between atoms: C11_17  and  N5_19
REMARK    7  A    between atoms: N5_19  and  N6_21
REMARK    8  A    between atoms: N6_21  and  C12_23
ROOT
HETATM    1  N3  UNL     1      41.018  11.225  11.078  1.00  0.00    -0.271 N
ATOM      2  H3  UNL     1      41.860  11.788  10.956  1.00  0.00     0.189 HD
HETATM    3  C11 UNL     1      40.241  11.478  12.062  1.00  0.00     0.222 C
HETATM    4  N4  UNL     1      39.048  10.787  12.351  1.00  0.00    -0.061 NA
HETATM    5  N5  UNL     1      40.646  12.561  12.919  1.00  0.00    -0.270 N
ATOM      6  H5  UNL     1      41.527  12.502  13.429  1.00  0.00     0.189 HD
ENDROOT
BRANCH   1   7
HETATM    7  N2  UNL     1      40.751  10.209  10.173  1.00  0.00    -0.289 N
HETATM    8  C1  UNL     1      41.569   9.246   9.952  1.00  0.00     0.108 C
HETATM    9  N1  UNL     1      42.793   9.216  10.658  1.00  0.00    -0.086 NA
ATOM     10  H2  UNL     1      39.869  10.229   9.661  1.00  0.00     0.188 HD
BRANCH   8  11
HETATM   11  C2  UNL     1      41.252   8.195   8.991  1.00  0.00     0.084 C
BRANCH  11  12
HETATM   12  C3  UNL     1      39.774   7.802   9.064  1.00  0.00     0.081 C
BRANCH  12  13
HETATM   13  S1  UNL     1      39.025   7.956   7.423  1.00  0.00    -0.164 SA
BRANCH  13  14
HETATM   14  C4  UNL     1      40.126   7.142   6.229  1.00  0.00     0.112 C
BRANCH  14  15
HETATM   15  C5  UNL     1      39.440   6.141   5.415  1.00  0.00    -0.049 A
HETATM   16  C6  UNL     1      38.115   5.841   5.622  1.00  0.00     0.008 A
HETATM   17  C7  UNL     1      37.479   4.879   4.831  1.00  0.00     0.001 A
HETATM   18  C8  UNL     1      38.173   4.226   3.839  1.00  0.00     0.000 A
HETATM   19  C9  UNL     1      39.516   4.528   3.625  1.00  0.00     0.001 A
HETATM   20  C10 UNL     1      40.112   5.474   4.417  1.00  0.00     0.008 A
ENDBRANCH  14  15
ENDBRANCH  13  14
ENDBRANCH  12  13
ENDBRANCH  11  12
ENDBRANCH   8  11
ENDBRANCH   1   7
BRANCH   5  21
HETATM   21  N6  UNL     1      39.840  13.688  13.053  1.00  0.00    -0.269 N
ATOM     22  H6  UNL     1      39.787  14.360  12.288  1.00  0.00     0.190 HD
BRANCH  21  23
HETATM   23  C12 UNL     1      39.080  13.921  14.252  1.00  0.00     0.190 C
HETATM   24  N7  UNL     1      38.763  15.036  14.785  1.00  0.00    -0.360 N
HETATM   25  C13 UNL     1      37.997  14.844  15.979  1.00  0.00     0.142 C
ATOM     26  H7  UNL     1      39.022  15.948  14.409  1.00  0.00     0.162 HD
HETATM   27  C14 UNL     1      37.501  13.423  15.837  1.00  0.00     0.142 C
HETATM   28  N8  UNL     1      38.567  12.832  15.019  1.00  0.00    -0.360 N
ATOM     29  H8  UNL     1      38.874  11.859  15.003  1.00  0.00     0.162 HD
ENDBRANCH  21  23
ENDBRANCH   5  21
TORSDOF 8
ENDMDL