MODEL 5
REMARK VINA RESULT: -7.799464799      0.377      1.024
REMARK  8 active torsions:
REMARK  status: ('A' for Active; 'I' for Inactive)
REMARK    1  A    between atoms: N1_1  and  C1_4
REMARK    2  A    between atoms: C2_7  and  C3_8
REMARK    3  A    between atoms: N3_10  and  C5_11
REMARK    4  A    between atoms: C5_11  and  C6_12
REMARK    5  A    between atoms: N5_21  and  C13_23
REMARK    6  A    between atoms: C13_23  and  C14_24
REMARK    7  A    between atoms: C14_24  and  C15_25
REMARK    8  A    between atoms: C15_25  and  N6_26
ROOT
HETATM    1  C3  UNL     1      38.288   7.531   9.519  1.00  0.00     0.071 A
HETATM    2  C4  UNL     1      37.259   6.620   9.399  1.00  0.00     0.129 A
HETATM    3  N3  UNL     1      36.286   6.925  10.268  1.00  0.00    -0.296 N
HETATM    4  N4  UNL     1      36.633   7.994  10.946  1.00  0.00    -0.283 N
ATOM      5  H4  UNL     1      36.080   8.448  11.674  1.00  0.00     0.189 HD
HETATM    6  C12 UNL     1      37.865   8.393  10.507  1.00  0.00     0.131 A
HETATM    7  N5  UNL     1      38.502   9.405  10.956  1.00  0.00    -0.374 N
ATOM      8  H5  UNL     1      39.418   9.630  10.569  1.00  0.00     0.161 HD
ENDROOT
BRANCH   1   9
HETATM    9  C2  UNL     1      39.548   7.571   8.762  1.00  0.00     0.140 A
HETATM   10  N2  UNL     1      39.594   7.157   7.494  1.00  0.00    -0.176 N
HETATM   11  C1  UNL     1      40.742   7.190   6.796  1.00  0.00     0.681 A
ATOM     12  H2  UNL     1      38.745   6.809   7.048  1.00  0.00     0.186 HD
HETATM   13  N8  UNL     1      41.894   7.639   7.329  1.00  0.00    -0.141 N
HETATM   14  C16 UNL     1      41.819   8.052   8.612  1.00  0.00     0.340 A
ATOM     15  H8  UNL     1      42.765   7.664   6.800  1.00  0.00     0.189 HD
HETATM   16  N7  UNL     1      40.682   8.026   9.324  1.00  0.00    -0.293 N
HETATM   17  O1  UNL     1      42.912   8.475   9.108  1.00  0.00    -0.246 OA
ATOM     18  H7  UNL     1      40.678   8.350  10.291  1.00  0.00     0.172 HD
BRANCH  11  19
HETATM   19  N1  UNL     1      40.787   6.785   5.555  1.00  0.00    -0.234 N
ATOM     20  H12 UNL     1      41.292   5.918   5.374  1.00  0.00     0.174 HD
ATOM     21  H11 UNL     1      40.337   7.318   4.810  1.00  0.00     0.174 HD
ENDBRANCH  11  19
ENDBRANCH   1   9
BRANCH   3  22
HETATM   22  C5  UNL     1      35.062   6.197  10.425  1.00  0.00     0.186 C
BRANCH  22  23
HETATM   23  C6  UNL     1      35.253   4.757  10.630  1.00  0.00    -0.038 A
HETATM   24  C7  UNL     1      34.750   3.825   9.756  1.00  0.00     0.009 A
HETATM   25  C8  UNL     1      34.952   2.470   9.985  1.00  0.00     0.001 A
HETATM   26  C9  UNL     1      35.659   2.038  11.089  1.00  0.00     0.000 A
HETATM   27  C10 UNL     1      36.164   2.961  11.966  1.00  0.00     0.001 A
HETATM   28  C11 UNL     1      35.955   4.306  11.724  1.00  0.00     0.009 A
ENDBRANCH  22  23
ENDBRANCH   3  22
BRANCH   7  29
HETATM   29  C13 UNL     1      37.949  10.240  12.005  1.00  0.00     0.123 C
BRANCH  29  30
HETATM   30  C14 UNL     1      38.581  11.610  11.971  1.00  0.00     0.047 C
BRANCH  30  31
HETATM   31  C15 UNL     1      39.819  11.572  12.832  1.00  0.00     0.231 C
BRANCH  31  32
HETATM   32  N6  UNL     1      40.993  11.367  11.997  1.00  0.00    -0.079 N
ATOM     33  H63 UNL     1      41.162  12.155  11.372  1.00  0.00     0.274 HD
ATOM     34  H62 UNL     1      41.859  11.415  12.534  1.00  0.00     0.274 HD
ATOM     35  H61 UNL     1      40.906  10.487  11.490  1.00  0.00     0.274 HD
ENDBRANCH  31  32
ENDBRANCH  30  31
ENDBRANCH  29  30
ENDBRANCH   7  29
TORSDOF 8
ENDMDL