MODEL 2
REMARK VINA RESULT: -7.007369613      0.971      1.249
REMARK  9 active torsions:
REMARK  status: ('A' for Active; 'I' for Inactive)
REMARK    1  A    between atoms: C3_8  and  C4_9
REMARK    2  A    between atoms: C4_9  and  N4_10
REMARK    3  A    between atoms: N4_10  and  C5_11
REMARK    4  A    between atoms: C8_18  and  N7_19
REMARK    5  A    between atoms: N7_19  and  C9_21
REMARK    6  A    between atoms: C9_21  and  C10_22
REMARK    7  A    between atoms: C10_22  and  C11_23
REMARK    8  A    between atoms: C11_23  and  C12_24
REMARK    9  A    between atoms: C12_24  and  O1_25
ROOT
HETATM    1  C5  UNL     1      40.369   7.451   7.393  1.00  0.00     0.208 A
HETATM    2  N5  UNL     1      41.667   7.656   7.814  1.00  0.00    -0.325 N
ATOM      3  H5  UNL     1      42.441   7.242   7.295  1.00  0.00     0.169 HD
HETATM    4  C6  UNL     1      41.914   8.388   8.886  1.00  0.00     0.183 A
HETATM    5  N6  UNL     1      40.956   8.973   9.620  1.00  0.00    -0.347 N
ATOM      6  H6  UNL     1      41.192   9.531  10.441  1.00  0.00     0.167 HD
HETATM    7  C7  UNL     1      39.655   8.802   9.238  1.00  0.00     0.109 A
HETATM    8  C8  UNL     1      38.639   9.418  10.019  1.00  0.00     0.135 A
HETATM    9  N8  UNL     1      37.421   9.194   9.597  1.00  0.00    -0.337 N
ATOM     10  H8  UNL     1      36.649   9.617  10.112  1.00  0.00     0.168 HD
HETATM   11  C13 UNL     1      37.124   8.432   8.512  1.00  0.00     0.182 A
HETATM   12  N9  UNL     1      38.088   7.843   7.753  1.00  0.00    -0.346 N
ATOM     13  H9  UNL     1      37.861   7.281   6.933  1.00  0.00     0.167 HD
HETATM   14  C14 UNL     1      39.338   8.043   8.143  1.00  0.00     0.123 A
ENDROOT
BRANCH   1  15
HETATM   15  N4  UNL     1      40.133   6.905   6.335  1.00  0.00    -0.395 NA
BRANCH  15  16
HETATM   16  C4  UNL     1      39.861   6.340   5.143  1.00  0.00     0.218 C
BRANCH  16  17
HETATM   17  C3  UNL     1      39.966   4.869   5.347  1.00  0.00     0.103 A
HETATM   18  C1  UNL     1      40.216   4.003   4.252  1.00  0.00     0.146 A
HETATM   19  N1  UNL     1      40.681   4.443   2.966  1.00  0.00    -0.080 NA
HETATM   20  N2  UNL     1      40.109   2.744   4.665  1.00  0.00    -0.339 N
HETATM   21  C2  UNL     1      39.810   2.823   5.940  1.00  0.00     0.182 A
ATOM     22  H2  UNL     1      40.232   1.897   4.109  1.00  0.00     0.167 HD
HETATM   23  N3  UNL     1      39.717   4.086   6.410  1.00  0.00    -0.348 N
ATOM     24  H3  UNL     1      39.505   4.380   7.362  1.00  0.00     0.167 HD
ENDBRANCH  16  17
ENDBRANCH  15  16
ENDBRANCH   1  15
BRANCH   8  25
HETATM   25  N7  UNL     1      39.061  10.094  10.976  1.00  0.00    -0.354 N
ATOM     26  H7  UNL     1      40.081  10.091  10.962  1.00  0.00     0.166 HD
BRANCH  25  27
HETATM   27  C9  UNL     1      38.625  10.847  12.051  1.00  0.00     0.062 C
BRANCH  27  28
HETATM   28  C10 UNL     1      39.671  11.853  12.475  1.00  0.00     0.046 C
BRANCH  28  29
HETATM   29  C11 UNL     1      39.098  13.115  12.957  1.00  0.00     0.031 C
BRANCH  29  30
HETATM   30  C12 UNL     1      38.034  13.442  11.864  1.00  0.00     0.164 C
BRANCH  30  31
HETATM   31  O1  UNL     1      38.805  13.758  10.739  1.00  0.00    -0.401 OA
ATOM     32  H1  UNL     1      38.178  14.151  10.142  1.00  0.00     0.209 HD
ENDBRANCH  30  31
ENDBRANCH  29  30
ENDBRANCH  28  29
ENDBRANCH  27  28
ENDBRANCH  25  27
ENDBRANCH   8  25
TORSDOF 9
ENDMDL