MODEL 2
REMARK VINA RESULT: -7.493133639      3.028      4.658
REMARK  8 active torsions:
REMARK  status: ('A' for Active; 'I' for Inactive)
REMARK    1  A    between atoms: N1_1  and  C1_4
REMARK    2  A    between atoms: N2_7  and  C4_8
REMARK    3  A    between atoms: C4_8  and  C5_9
REMARK    4  A    between atoms: C5_9  and  O1_10
REMARK    5  A    between atoms: O1_10  and  C6_11
REMARK    6  A    between atoms: C6_11  and  C7_12
REMARK    7  A    between atoms: C7_12  and  N3_13
REMARK    8  A    between atoms: C12_21  and  N5_22
ROOT
HETATM    1  C7  UNL     1      38.717   5.340   8.450  1.00  0.00     0.156 C
ENDROOT
BRANCH   1   2
HETATM    2  C6  UNL     1      39.429   6.432   9.242  1.00  0.00     0.188 C
BRANCH   2   3
HETATM    3  O1  UNL     1      38.460   7.255   9.742  1.00  0.00    -0.388 OA
BRANCH   3   4
HETATM    4  C5  UNL     1      38.634   8.579   9.405  1.00  0.00     0.188 C
BRANCH   4   5
HETATM    5  C4  UNL     1      39.947   8.889   8.773  1.00  0.00     0.159 C
BRANCH   5   6
HETATM    6  N2  UNL     1      40.869   9.531   9.695  1.00  0.00    -0.308 N
HETATM    7  C3  UNL     1      40.493  10.659  10.326  1.00  0.00     0.099 A
HETATM    8  C2  UNL     1      41.398  11.237  11.193  1.00  0.00     0.065 A
HETATM    9  C1  UNL     1      42.649  10.670  11.400  1.00  0.00     0.103 A
HETATM   10  N7  UNL     1      42.981   9.546  10.750  1.00  0.00    -0.295 N
HETATM   11  C14 UNL     1      42.083   8.994   9.905  1.00  0.00     0.328 A
ATOM     12  H7  UNL     1      43.895   9.115  10.890  1.00  0.00     0.172 HD
HETATM   13  O3  UNL     1      42.378   7.936   9.285  1.00  0.00    -0.246 OA
BRANCH   9  14
HETATM   14  N1  UNL     1      43.463  11.251  12.223  1.00  0.00    -0.385 N
ATOM     15  H12 UNL     1      43.589  10.920  13.180  1.00  0.00     0.157 HD
ATOM     16  H11 UNL     1      43.989  12.062  11.897  1.00  0.00     0.157 HD
ENDBRANCH   9  14
ENDBRANCH   5   6
ENDBRANCH   4   5
ENDBRANCH   3   4
ENDBRANCH   2   3
ENDBRANCH   1   2
BRANCH   1  17
HETATM   17  N3  UNL     1      39.149   5.439   7.060  1.00  0.00    -0.340 N
HETATM   18  C8  UNL     1      39.346   6.567   6.340  1.00  0.00     0.094 A
HETATM   19  C9  UNL     1      39.752   6.248   5.064  1.00  0.00     0.038 A
HETATM   20  C10 UNL     1      39.808   4.879   4.989  1.00  0.00     0.078 A
HETATM   21  C11 UNL     1      40.153   4.030   3.952  1.00  0.00     0.273 A
HETATM   22  C13 UNL     1      39.431   4.413   6.236  1.00  0.00     0.139 A
HETATM   23  O2  UNL     1      40.496   4.446   2.818  1.00  0.00    -0.267 OA
HETATM   24  N4  UNL     1      40.103   2.711   4.213  1.00  0.00    -0.156 N
HETATM   25  C12 UNL     1      39.736   2.241   5.422  1.00  0.00     0.680 A
ATOM     26  H4  UNL     1      40.348   2.049   3.476  1.00  0.00     0.187 HD
HETATM   27  N6  UNL     1      39.402   3.072   6.430  1.00  0.00    -0.176 N
ATOM     28  H6  UNL     1      39.128   2.692   7.336  1.00  0.00     0.186 HD
BRANCH  25  29
HETATM   29  N5  UNL     1      39.691   0.983   5.666  1.00  0.00    -0.234 N
ATOM     30  H52 UNL     1      39.603   0.359   4.865  1.00  0.00     0.174 HD
ATOM     31  H51 UNL     1      39.740   0.623   6.619  1.00  0.00     0.174 HD
ENDBRANCH  25  29
ENDBRANCH   1  17
TORSDOF 8
ENDMDL