MODEL 2
REMARK VINA RESULT: -6.571841809      1.440      2.193
REMARK  9 active torsions:
REMARK  status: ('A' for Active; 'I' for Inactive)
REMARK    1  A    between atoms: C2_2  and  C3_3
REMARK    2  A    between atoms: C3_3  and  C6_6
REMARK    3  A    between atoms: C6_6  and  C7_7
REMARK    4  A    between atoms: C7_7  and  C8_8
REMARK    5  A    between atoms: C8_8  and  C9_9
REMARK    6  A    between atoms: C9_9  and  C10_10
REMARK    7  A    between atoms: C9_9  and  C13_15
REMARK    8  A    between atoms: C10_10  and  O2_12
REMARK    9  A    between atoms: O2_12  and  C11_13
ROOT
HETATM    1  C9  UNL     1      13.045  32.799   5.408  1.00  0.00     0.089 C
ENDROOT
BRANCH   1   2
HETATM    2  C8  UNL     1      12.545  33.134   6.789  1.00  0.00     0.015 C
BRANCH   2   3
HETATM    3  C7  UNL     1      11.488  32.211   7.323  1.00  0.00     0.005 C
BRANCH   3   4
HETATM    4  C6  UNL     1      10.116  32.642   6.858  1.00  0.00     0.038 C
BRANCH   4   5
HETATM    5  C3  UNL     1       9.086  31.613   6.857  1.00  0.00    -0.063 C
HETATM    6  C4  UNL     1       8.130  31.706   5.929  1.00  0.00    -0.024 C
HETATM    7  C5  UNL     1       7.036  30.703   5.892  1.00  0.00     0.036 C
BRANCH   5   8
HETATM    8  C2  UNL     1       9.021  30.534   7.801  1.00  0.00    -0.004 C
HETATM    9  C1  UNL     1       8.884  30.576   9.090  1.00  0.00     0.012 C
ENDBRANCH   5   8
ENDBRANCH   4   5
ENDBRANCH   3   4
ENDBRANCH   2   3
ENDBRANCH   1   2
BRANCH   1  10
HETATM   10  C10 UNL     1      14.380  32.249   5.506  1.00  0.00     0.263 C
HETATM   11  O1  UNL     1      15.380  32.919   5.133  1.00  0.00    -0.265 OA
BRANCH  10  12
HETATM   12  O2  UNL     1      14.763  31.012   5.987  1.00  0.00    -0.322 OA
BRANCH  12  13
HETATM   13  C11 UNL     1      15.353  30.745   7.222  1.00  0.00     0.174 C
HETATM   14  C12 UNL     1      14.506  30.005   8.193  1.00  0.00     0.034 C
ENDBRANCH  12  13
ENDBRANCH  10  12
ENDBRANCH   1  10
BRANCH   1  15
HETATM   15  C13 UNL     1      12.830  33.962   4.527  1.00  0.00    -0.001 C
HETATM   16  C14 UNL     1      11.681  33.939   3.592  1.00  0.00     0.005 C
HETATM   17  C15 UNL     1      10.555  34.918   3.985  1.00  0.00     0.000 C
HETATM   18  C16 UNL     1      11.022  36.330   3.958  1.00  0.00     0.000 C
HETATM   19  C17 UNL     1      12.438  36.413   4.423  1.00  0.00     0.000 C
HETATM   20  C18 UNL     1      12.685  35.214   5.362  1.00  0.00     0.005 C
ENDBRANCH   1  15
TORSDOF 9
ENDMDL