MODEL 2
REMARK VINA RESULT: -6.489176899      2.607      4.361
REMARK  8 active torsions:
REMARK  status: ('A' for Active; 'I' for Inactive)
REMARK    1  A    between atoms: C2_2  and  C3_3
REMARK    2  A    between atoms: C3_3  and  C7_9
REMARK    3  A    between atoms: C4_4  and  C6_6
REMARK    4  A    between atoms: C6_6  and  O1_7
REMARK    5  A    between atoms: C7_9  and  O2_10
REMARK    6  A    between atoms: O2_10  and  C8_11
REMARK    7  A    between atoms: C8_11  and  C9_12
REMARK    8  A    between atoms: C9_12  and  C10_13
ROOT
HETATM    1  C7  UNL     1      10.883  31.539   8.335  1.00  0.00     0.076 C
HETATM    2  C16 UNL     1       9.805  30.833   8.224  1.00  0.00    -0.054 C
HETATM    3  C17 UNL     1       8.789  31.365   7.194  1.00  0.00     0.046 C
HETATM    4  C18 UNL     1       9.329  29.615   8.887  1.00  0.00     0.046 C
ENDROOT
BRANCH   1   5
HETATM    5  C3  UNL     1      12.063  31.390   9.176  1.00  0.00    -0.021 C
HETATM    6  C4  UNL     1      12.426  32.258  10.075  1.00  0.00    -0.051 C
HETATM    7  C5  UNL     1      13.798  32.133  10.708  1.00  0.00     0.046 C
BRANCH   5   8
HETATM    8  C2  UNL     1      13.082  30.319   8.885  1.00  0.00     0.037 C
HETATM    9  C1  UNL     1      12.826  29.030   9.570  1.00  0.00     0.010 C
ENDBRANCH   5   8
BRANCH   6  10
HETATM   10  C6  UNL     1      11.589  33.282  10.720  1.00  0.00     0.198 C
BRANCH  10  11
HETATM   11  O1  UNL     1      12.268  34.523  10.343  1.00  0.00    -0.397 OA
ATOM     12  H1  UNL     1      11.656  34.910   9.729  1.00  0.00     0.209 HD
ENDBRANCH  10  11
ENDBRANCH   6  10
ENDBRANCH   1   5
BRANCH   1  13
HETATM   13  O2  UNL     1      10.948  32.681   7.449  1.00  0.00    -0.350 OA
BRANCH  13  14
HETATM   14  C8  UNL     1      11.990  32.609   6.455  1.00  0.00     0.176 C
BRANCH  14  15
HETATM   15  C9  UNL     1      11.540  32.879   5.078  1.00  0.00     0.031 C
BRANCH  15  16
HETATM   16  C10 UNL     1      11.841  34.176   4.444  1.00  0.00    -0.013 C
HETATM   17  C11 UNL     1      12.937  34.942   5.096  1.00  0.00     0.005 C
HETATM   18  C12 UNL     1      12.630  36.376   5.395  1.00  0.00     0.000 C
HETATM   19  C13 UNL     1      11.910  37.081   4.265  1.00  0.00     0.000 C
HETATM   20  C14 UNL     1      10.688  36.311   3.819  1.00  0.00     0.000 C
HETATM   21  C15 UNL     1      10.556  35.013   4.580  1.00  0.00     0.005 C
ENDBRANCH  15  16
ENDBRANCH  14  15
ENDBRANCH  13  14
ENDBRANCH   1  13
TORSDOF 8
ENDMDL