MODEL 2
REMARK VINA RESULT: -6.589275852      2.166      5.912
REMARK  10 active torsions:
REMARK  status: ('A' for Active; 'I' for Inactive)
REMARK    1  A    between atoms: C3_3  and  C4_4
REMARK    2  A    between atoms: C3_3  and  C9_11
REMARK    3  A    between atoms: C4_4  and  O2_6
REMARK    4  A    between atoms: O2_6  and  C5_7
REMARK    5  A    between atoms: C5_7  and  C6_8
REMARK    6  A    between atoms: C9_11  and  C15_17
REMARK    7  A    between atoms: C10_12  and  C11_13
REMARK    8  A    between atoms: C11_13  and  C12_14
REMARK    9  A    between atoms: C15_17  and  C16_18
REMARK   10  A    between atoms: C16_18  and  C17_19
ROOT
HETATM    1  C1  UNL     1       9.068  30.323   9.033  1.00  0.00     0.037 C
HETATM    2  C2  UNL     1       9.383  30.937   7.740  1.00  0.00    -0.013 C
HETATM    3  C3  UNL     1      10.398  31.790   7.576  1.00  0.00     0.041 C
ENDROOT
BRANCH   3   4
HETATM    4  C4  UNL     1      11.231  32.125   8.707  1.00  0.00     0.293 C
HETATM    5  O1  UNL     1      10.870  33.064   9.511  1.00  0.00    -0.259 OA
BRANCH   4   6
HETATM    6  O2  UNL     1      12.430  31.563   9.087  1.00  0.00    -0.317 OA
BRANCH   6   7
HETATM    7  C5  UNL     1      12.638  30.994  10.366  1.00  0.00     0.183 C
BRANCH   7   8
HETATM    8  C6  UNL     1      13.308  29.666  10.307  1.00  0.00     0.002 C
HETATM    9  C7  UNL     1      14.542  29.729   9.434  1.00  0.00     0.011 C
HETATM   10  C8  UNL     1      12.301  28.672   9.745  1.00  0.00     0.011 C
ENDBRANCH   7   8
ENDBRANCH   6   7
ENDBRANCH   4   6
ENDBRANCH   3   4
BRANCH   3  11
HETATM   11  C9  UNL     1      10.561  32.411   6.241  1.00  0.00    -0.046 C
HETATM   12  C10 UNL     1      11.746  32.632   5.758  1.00  0.00    -0.018 C
BRANCH  12  13
HETATM   13  C11 UNL     1      11.962  33.258   4.432  1.00  0.00     0.031 C
BRANCH  13  14
HETATM   14  C12 UNL     1      12.884  34.453   4.532  1.00  0.00    -0.019 C
HETATM   15  C13 UNL     1      12.156  35.635   5.112  1.00  0.00     0.010 C
HETATM   16  C14 UNL     1      14.097  34.185   5.381  1.00  0.00     0.010 C
ENDBRANCH  13  14
ENDBRANCH  12  13
BRANCH  11  17
HETATM   17  C15 UNL     1       9.379  32.736   5.440  1.00  0.00     0.039 C
BRANCH  17  18
HETATM   18  C16 UNL     1       8.603  33.949   5.879  1.00  0.00     0.004 C
BRANCH  18  19
HETATM   19  C17 UNL     1       7.870  34.456   4.641  1.00  0.00    -0.004 C
HETATM   20  C18 UNL     1       8.835  34.930   3.588  1.00  0.00     0.005 C
ENDBRANCH  18  19
ENDBRANCH  17  18
ENDBRANCH  11  17
ENDBRANCH   3  11
TORSDOF 10
ENDMDL