MODEL 3
REMARK VINA RESULT: -6.912965013      0.889      1.074
REMARK  8 active torsions:
REMARK  status: ('A' for Active; 'I' for Inactive)
REMARK    1  A    between atoms: C2_2  and  C3_3
REMARK    2  A    between atoms: C3_3  and  C4_4
REMARK    3  A    between atoms: C7_7  and  O1_8
REMARK    4  A    between atoms: O1_8  and  C8_9
REMARK    5  A    between atoms: C8_9  and  C9_10
REMARK    6  A    between atoms: C9_10  and  C10_11
REMARK    7  A    between atoms: C10_11  and  C11_12
REMARK    8  A    between atoms: C11_12  and  O2_13
ROOT
HETATM    1  O1  UNL     1       9.812  33.147   6.759  1.00  0.00    -0.350 OA
ENDROOT
BRANCH   1   2
HETATM    2  C7  UNL     1      10.054  32.068   7.573  1.00  0.00     0.077 A
HETATM    3  C5  UNL     1      11.244  31.795   8.359  1.00  0.00    -0.025 A
HETATM    4  C4  UNL     1      11.148  30.662   9.035  1.00  0.00    -0.064 A
HETATM    5  C6  UNL     1      12.478  32.663   8.437  1.00  0.00     0.051 C
HETATM    6  C18 UNL     1       9.814  30.094   8.713  1.00  0.00     0.071 A
HETATM    7  C16 UNL     1       9.213  31.077   7.776  1.00  0.00    -0.046 A
HETATM    8  C17 UNL     1       7.847  30.884   7.196  1.00  0.00     0.046 C
BRANCH   4   9
HETATM    9  C3  UNL     1      12.138  30.032   9.947  1.00  0.00     0.061 C
BRANCH   9  10
HETATM   10  C2  UNL     1      13.199  29.314   9.193  1.00  0.00    -0.033 C
HETATM   11  C1  UNL     1      14.464  29.680   9.321  1.00  0.00     0.007 C
ENDBRANCH   9  10
ENDBRANCH   4   9
ENDBRANCH   1   2
BRANCH   1  12
HETATM   12  C8  UNL     1      10.029  33.112   5.342  1.00  0.00     0.176 C
BRANCH  12  13
HETATM   13  C9  UNL     1      10.164  34.520   4.887  1.00  0.00     0.038 C
BRANCH  13  14
HETATM   14  C10 UNL     1      11.491  34.874   4.306  1.00  0.00    -0.017 C
HETATM   15  C12 UNL     1      12.521  35.158   5.364  1.00  0.00     0.012 C
HETATM   16  C13 UNL     1      12.601  36.644   5.537  1.00  0.00     0.001 C
HETATM   17  C14 UNL     1      11.459  37.188   4.705  1.00  0.00     0.001 C
HETATM   18  C15 UNL     1      11.418  36.182   3.558  1.00  0.00     0.012 C
BRANCH  14  19
HETATM   19  C11 UNL     1      12.051  33.816   3.396  1.00  0.00     0.173 C
BRANCH  19  20
HETATM   20  O2  UNL     1      13.291  33.430   3.945  1.00  0.00    -0.400 OA
ATOM     21  H2  UNL     1      13.898  34.140   3.767  1.00  0.00     0.209 HD
ENDBRANCH  19  20
ENDBRANCH  14  19
ENDBRANCH  13  14
ENDBRANCH  12  13
ENDBRANCH   1  12
TORSDOF 8
ENDMDL