MODEL 4
REMARK VINA RESULT: -6.512295654      2.516      4.428
REMARK  10 active torsions:
REMARK  status: ('A' for Active; 'I' for Inactive)
REMARK    1  A    between atoms: C2_2  and  C3_3
REMARK    2  A    between atoms: C3_3  and  C4_4
REMARK    3  A    between atoms: C4_4  and  C5_5
REMARK    4  A    between atoms: C9_9  and  C10_10
REMARK    5  A    between atoms: C10_10  and  C11_11
REMARK    6  A    between atoms: C11_11  and  C12_12
REMARK    7  A    between atoms: C12_12  and  O1_13
REMARK    8  A    between atoms: C13_15  and  C14_16
REMARK    9  A    between atoms: C14_16  and  C15_17
REMARK   10  A    between atoms: C15_17  and  O2_20
ROOT
HETATM    1  C5  UNL     1      11.381  32.666   5.524  1.00  0.00    -0.057 A
HETATM    2  C6  UNL     1      12.723  32.501   5.496  1.00  0.00     0.014 A
HETATM    3  C7  UNL     1      13.377  32.100   6.663  1.00  0.00    -0.055 A
HETATM    4  C8  UNL     1      14.860  31.937   6.578  1.00  0.00     0.049 C
HETATM    5  C9  UNL     1      12.704  31.866   7.843  1.00  0.00    -0.046 A
HETATM    6  C13 UNL     1      11.345  32.051   7.822  1.00  0.00    -0.048 A
HETATM    7  C18 UNL     1      10.658  32.452   6.667  1.00  0.00     0.014 A
ENDROOT
BRANCH   6   8
HETATM    8  C14 UNL     1      10.535  31.963   9.033  1.00  0.00     0.076 C
BRANCH   8   9
HETATM    9  C15 UNL     1       9.415  30.962   8.992  1.00  0.00     0.054 C
HETATM   10  C16 UNL     1       8.204  31.301   8.226  1.00  0.00     0.045 C
HETATM   11  C17 UNL     1       9.898  29.601   8.519  1.00  0.00     0.045 C
BRANCH   9  12
HETATM   12  O2  UNL     1       9.022  30.754  10.338  1.00  0.00    -0.390 OA
ATOM     13  H2  UNL     1       8.327  31.378  10.510  1.00  0.00     0.210 HD
ENDBRANCH   9  12
ENDBRANCH   8   9
ENDBRANCH   6   8
BRANCH   5  14
HETATM   14  C10 UNL     1      13.422  31.377   9.006  1.00  0.00     0.042 C
BRANCH  14  15
HETATM   15  C11 UNL     1      13.403  29.841   9.080  1.00  0.00     0.030 C
BRANCH  15  16
HETATM   16  C12 UNL     1      13.080  29.372  10.482  1.00  0.00     0.164 C
BRANCH  16  17
HETATM   17  O1  UNL     1      13.263  30.350  11.435  1.00  0.00    -0.401 OA
ATOM     18  H1  UNL     1      13.943  30.137  12.062  1.00  0.00     0.209 HD
ENDBRANCH  16  17
ENDBRANCH  15  16
ENDBRANCH  14  15
ENDBRANCH   5  14
BRANCH   1  19
HETATM   19  C4  UNL     1      10.676  33.090   4.287  1.00  0.00     0.038 C
BRANCH  19  20
HETATM   20  C3  UNL     1      10.432  34.595   4.293  1.00  0.00     0.004 C
BRANCH  20  21
HETATM   21  C2  UNL     1       9.041  34.832   3.740  1.00  0.00    -0.004 C
HETATM   22  C1  UNL     1       7.997  34.368   4.731  1.00  0.00     0.005 C
ENDBRANCH  20  21
ENDBRANCH  19  20
ENDBRANCH   1  19
TORSDOF 10
ENDMDL