MODEL 5
REMARK VINA RESULT: -6.463981386      2.808      5.703
REMARK  10 active torsions:
REMARK  status: ('A' for Active; 'I' for Inactive)
REMARK    1  A    between atoms: C2_2  and  C3_3
REMARK    2  A    between atoms: C3_3  and  C4_4
REMARK    3  A    between atoms: C6_6  and  C7_7
REMARK    4  A    between atoms: C7_7  and  C8_8
REMARK    5  A    between atoms: C8_8  and  O1_9
REMARK    6  A    between atoms: O1_9  and  C9_10
REMARK    7  A    between atoms: C12_13  and  C13_14
REMARK    8  A    between atoms: C13_14  and  C14_15
REMARK    9  A    between atoms: C14_15  and  C15_16
REMARK   10  A    between atoms: C18_19  and  O2_20
ROOT
HETATM    1  C4  UNL     1      11.400  35.141   4.436  1.00  0.00    -0.024 A
HETATM    2  C5  UNL     1      12.378  34.479   5.146  1.00  0.00     0.017 A
HETATM    3  C6  UNL     1      12.109  33.400   5.947  1.00  0.00    -0.055 A
HETATM    4  C11 UNL     1      10.810  32.966   6.038  1.00  0.00     0.017 A
HETATM    5  C12 UNL     1       9.791  33.588   5.351  1.00  0.00    -0.024 A
HETATM    6  C18 UNL     1      10.097  34.674   4.553  1.00  0.00     0.078 A
ENDROOT
BRANCH   3   7
HETATM    7  C7  UNL     1      13.186  32.671   6.728  1.00  0.00     0.065 C
BRANCH   7   8
HETATM    8  C8  UNL     1      14.081  33.636   7.416  1.00  0.00     0.172 C
BRANCH   8   9
HETATM    9  O1  UNL     1      13.503  34.330   8.404  1.00  0.00    -0.391 OA
BRANCH   9  10
HETATM   10  C9  UNL     1      13.896  35.538   8.832  1.00  0.00     0.163 C
HETATM   11  C10 UNL     1      13.916  36.688   7.882  1.00  0.00     0.033 C
ENDBRANCH   9  10
ENDBRANCH   8   9
ENDBRANCH   7   8
ENDBRANCH   3   7
BRANCH   1  12
HETATM   12  C3  UNL     1      11.703  36.301   3.574  1.00  0.00     0.041 C
BRANCH  12  13
HETATM   13  C2  UNL     1      12.450  37.388   4.306  1.00  0.00     0.000 C
HETATM   14  C1  UNL     1      11.389  38.184   5.078  1.00  0.00     0.005 C
ENDBRANCH  12  13
ENDBRANCH   1  12
BRANCH   5  15
HETATM   15  C13 UNL     1       8.419  33.068   5.479  1.00  0.00     0.042 C
BRANCH  15  16
HETATM   16  C14 UNL     1       8.046  32.878   6.923  1.00  0.00     0.008 C
BRANCH  16  17
HETATM   17  C15 UNL     1       7.557  31.500   7.204  1.00  0.00    -0.023 C
HETATM   18  C16 UNL     1       7.119  30.734   5.995  1.00  0.00     0.009 C
HETATM   19  C17 UNL     1       8.591  30.689   7.943  1.00  0.00     0.009 C
ENDBRANCH  16  17
ENDBRANCH  15  16
ENDBRANCH   5  15
BRANCH   6  20
HETATM   20  O2  UNL     1       9.069  35.287   3.874  1.00  0.00    -0.360 OA
ATOM     21  H2  UNL     1       8.330  34.781   3.556  1.00  0.00     0.217 HD
ENDBRANCH   6  20
TORSDOF 10
ENDMDL