MODEL 5
REMARK VINA RESULT: -6.491497782      2.055      6.217
REMARK  11 active torsions:
REMARK  status: ('A' for Active; 'I' for Inactive)
REMARK    1  A    between atoms: C2_2  and  C3_3
REMARK    2  A    between atoms: C3_3  and  C4_4
REMARK    3  A    between atoms: C4_4  and  C5_5
REMARK    4  A    between atoms: C5_5  and  C6_6
REMARK    5  A    between atoms: C6_6  and  C7_7
REMARK    6  A    between atoms: C7_7  and  O1_8
REMARK    7  A    between atoms: O1_8  and  C8_9
REMARK    8  A    between atoms: C11_12  and  C12_13
REMARK    9  A    between atoms: C12_13  and  O2_14
REMARK   10  A    between atoms: C12_13  and  C13_16
REMARK   11  A    between atoms: C13_16  and  C14_17
ROOT
HETATM    1  C8  UNL     1      10.325  32.800   5.372  1.00  0.00     0.069 A
HETATM    2  C9  UNL     1      11.293  32.664   6.338  1.00  0.00     0.037 A
HETATM    3  C10 UNL     1      11.026  31.957   7.479  1.00  0.00     0.013 A
HETATM    4  C11 UNL     1       9.789  31.355   7.709  1.00  0.00    -0.023 A
HETATM    5  C16 UNL     1       8.826  31.485   6.760  1.00  0.00    -0.051 A
HETATM    6  C17 UNL     1       7.509  30.893   6.913  1.00  0.00     0.049 C
HETATM    7  C18 UNL     1       9.101  32.206   5.598  1.00  0.00     0.044 A
ENDROOT
BRANCH   1   8
HETATM    8  O1  UNL     1      10.618  33.518   4.229  1.00  0.00    -0.351 OA
BRANCH   8   9
HETATM    9  C7  UNL     1       9.764  34.573   3.835  1.00  0.00     0.175 C
BRANCH   9  10
HETATM   10  C6  UNL     1      10.109  35.830   4.614  1.00  0.00     0.027 C
BRANCH  10  11
HETATM   11  C5  UNL     1      11.101  36.628   3.864  1.00  0.00     0.002 C
BRANCH  11  12
HETATM   12  C4  UNL     1      12.505  36.606   4.309  1.00  0.00     0.004 C
BRANCH  12  13
HETATM   13  C3  UNL     1      12.843  36.096   5.645  1.00  0.00     0.026 C
BRANCH  13  14
HETATM   14  C2  UNL     1      13.879  35.090   5.815  1.00  0.00    -0.037 C
HETATM   15  C1  UNL     1      14.222  34.248   4.821  1.00  0.00     0.007 C
ENDBRANCH  13  14
ENDBRANCH  12  13
ENDBRANCH  11  12
ENDBRANCH  10  11
ENDBRANCH   9  10
ENDBRANCH   8   9
ENDBRANCH   1   8
BRANCH   4  16
HETATM   16  C12 UNL     1       9.505  30.598   8.932  1.00  0.00     0.155 C
BRANCH  16  17
HETATM   17  O2  UNL     1       9.627  31.363  10.096  1.00  0.00    -0.391 OA
ATOM     18  H2  UNL     1       9.614  30.843  10.891  1.00  0.00     0.210 HD
ENDBRANCH  16  17
BRANCH  16  19
HETATM   19  C13 UNL     1      10.262  29.299   9.025  1.00  0.00     0.062 C
BRANCH  19  20
HETATM   20  C14 UNL     1      11.487  29.554   9.827  1.00  0.00    -0.034 C
HETATM   21  C15 UNL     1      12.606  28.886   9.592  1.00  0.00     0.007 C
ENDBRANCH  19  20
ENDBRANCH  16  19
ENDBRANCH   4  16
TORSDOF 11
ENDMDL