MODEL 5
REMARK VINA RESULT: -6.843865779      1.471      4.463
REMARK  7 active torsions:
REMARK  status: ('A' for Active; 'I' for Inactive)
REMARK    1  A    between atoms: C3_3  and  C4_4
REMARK    2  A    between atoms: C3_3  and  C5_6
REMARK    3  A    between atoms: C6_7  and  C7_8
REMARK    4  A    between atoms: C6_7  and  O2_16
REMARK    5  A    between atoms: C7_8  and  C8_9
REMARK    6  A    between atoms: O2_16  and  C15_17
REMARK    7  A    between atoms: C15_17  and  C16_18
ROOT
HETATM    1  C5  UNL     1      11.850  32.246   7.234  1.00  0.00     0.046 C
HETATM    2  C6  UNL     1      11.100  32.611   6.277  1.00  0.00     0.047 C
ENDROOT
BRANCH   2   3
HETATM    3  C7  UNL     1      11.204  32.691   4.836  1.00  0.00     0.070 C
BRANCH   3   4
HETATM    4  C8  UNL     1      11.539  34.067   4.341  1.00  0.00     0.002 C
HETATM    5  C9  UNL     1      10.308  34.909   3.962  1.00  0.00     0.084 C
HETATM    6  C10 UNL     1      10.634  36.251   4.275  1.00  0.00    -0.183 C
HETATM    7  C11 UNL     1      11.061  37.536   4.624  1.00  0.00     0.080 C
HETATM    8  C12 UNL     1      12.424  37.354   5.384  1.00  0.00     0.011 C
HETATM    9  C13 UNL     1      13.055  36.006   5.109  1.00  0.00     0.001 C
HETATM   10  C14 UNL     1      12.398  34.747   5.396  1.00  0.00     0.006 C
ENDBRANCH   3   4
ENDBRANCH   2   3
BRANCH   2  11
HETATM   11  O2  UNL     1       9.788  33.071   6.754  1.00  0.00    -0.355 OA
BRANCH  11  12
HETATM   12  C15 UNL     1       8.667  32.597   6.030  1.00  0.00     0.179 C
BRANCH  12  13
HETATM   13  C16 UNL     1       8.343  31.232   6.595  1.00  0.00     0.002 C
HETATM   14  C17 UNL     1       8.172  31.336   8.084  1.00  0.00     0.011 C
HETATM   15  C18 UNL     1       7.083  30.744   5.903  1.00  0.00     0.011 C
ENDBRANCH  12  13
ENDBRANCH  11  12
ENDBRANCH   2  11
BRANCH   1  16
HETATM   16  C3  UNL     1      13.179  31.723   7.408  1.00  0.00    -0.000 C
HETATM   17  C2  UNL     1      13.355  30.821   8.432  1.00  0.00    -0.017 C
HETATM   18  C1  UNL     1      14.646  30.189   8.717  1.00  0.00     0.037 C
BRANCH  16  19
HETATM   19  C4  UNL     1      14.387  31.962   6.671  1.00  0.00     0.269 C
HETATM   20  O1  UNL     1      14.615  31.858   5.473  1.00  0.00    -0.301 OA
ENDBRANCH  16  19
ENDBRANCH   1  16
TORSDOF 7
ENDMDL