MODEL 1
REMARK VINA RESULT: -6.368395562      0.000      0.000
REMARK  10 active torsions:
REMARK  status: ('A' for Active; 'I' for Inactive)
REMARK    1  A    between atoms: O1_2  and  C2_3
REMARK    2  A    between atoms: C2_3  and  C5_6
REMARK    3  A    between atoms: C5_6  and  O2_7
REMARK    4  A    between atoms: C5_6  and  C6_9
REMARK    5  A    between atoms: C5_6  and  C14_17
REMARK    6  A    between atoms: C6_9  and  C7_10
REMARK    7  A    between atoms: C7_10  and  C8_11
REMARK    8  A    between atoms: C8_11  and  C9_12
REMARK    9  A    between atoms: C9_12  and  C10_13
REMARK   10  A    between atoms: C10_13  and  C11_14
ROOT
HETATM    1  C5  UNL     1       9.864  32.183   7.049  1.00  0.00     0.092 C
ENDROOT
BRANCH   1   2
HETATM    2  C2  UNL     1       8.912  31.017   7.123  1.00  0.00     0.084 C
HETATM    3  C3  UNL     1       9.541  29.908   7.915  1.00  0.00     0.049 C
HETATM    4  C4  UNL     1       7.714  31.482   7.979  1.00  0.00     0.049 C
BRANCH   2   5
HETATM    5  O1  UNL     1       8.426  30.614   5.915  1.00  0.00    -0.383 OA
HETATM    6  C1  UNL     1       7.074  30.680   5.764  1.00  0.00     0.202 C
ENDBRANCH   2   5
ENDBRANCH   1   2
BRANCH   1   7
HETATM    7  O2  UNL     1       9.343  33.174   7.895  1.00  0.00    -0.386 OA
ATOM      8  H2  UNL     1       9.310  32.793   8.764  1.00  0.00     0.210 HD
ENDBRANCH   1   7
BRANCH   1   9
HETATM    9  C6  UNL     1       9.769  32.827   5.655  1.00  0.00     0.041 C
BRANCH   9  10
HETATM   10  C7  UNL     1       8.887  34.041   5.622  1.00  0.00     0.003 C
BRANCH  10  11
HETATM   11  C8  UNL     1       9.179  34.877   4.392  1.00  0.00     0.000 C
BRANCH  11  12
HETATM   12  C9  UNL     1      10.655  35.048   4.179  1.00  0.00     0.000 C
BRANCH  12  13
HETATM   13  C10 UNL     1      10.992  36.399   3.619  1.00  0.00     0.004 C
BRANCH  13  14
HETATM   14  C11 UNL     1      12.072  37.085   4.435  1.00  0.00    -0.023 C
HETATM   15  C12 UNL     1      11.547  38.251   5.207  1.00  0.00     0.009 C
HETATM   16  C13 UNL     1      12.656  36.080   5.401  1.00  0.00     0.009 C
ENDBRANCH  13  14
ENDBRANCH  12  13
ENDBRANCH  11  12
ENDBRANCH  10  11
ENDBRANCH   9  10
ENDBRANCH   1   9
BRANCH   1  17
HETATM   17  C14 UNL     1      11.264  31.958   7.373  1.00  0.00     0.023 C
HETATM   18  C15 UNL     1      11.767  32.478   8.694  1.00  0.00     0.007 C
HETATM   19  C16 UNL     1      13.239  32.041   8.602  1.00  0.00     0.001 C
HETATM   20  C17 UNL     1      13.563  31.999   7.117  1.00  0.00     0.001 C
HETATM   21  C18 UNL     1      12.289  32.535   6.430  1.00  0.00     0.007 C
ENDBRANCH   1  17
TORSDOF 10
ENDMDL