MODEL 1
REMARK VINA RESULT: -7.000672481      0.000      0.000
REMARK  14 active torsions:
REMARK  status: ('A' for Active; 'I' for Inactive)
REMARK    1  A    between atoms: C3_5  and  C4_6
REMARK    2  A    between atoms: C4_6  and  C5_7
REMARK    3  A    between atoms: C5_7  and  C6_8
REMARK    4  A    between atoms: C6_8  and  C7_9
REMARK    5  A    between atoms: C7_9  and  C8_10
REMARK    6  A    between atoms: C8_10  and  C9_11
REMARK    7  A    between atoms: C9_11  and  C10_12
REMARK    8  A    between atoms: C10_12  and  C11_13
REMARK    9  A    between atoms: C11_13  and  C12_14
REMARK   10  A    between atoms: C12_14  and  C13_15
REMARK   11  A    between atoms: C13_15  and  C14_16
REMARK   12  A    between atoms: C14_16  and  C15_17
REMARK   13  A    between atoms: C15_17  and  C16_18
REMARK   14  A    between atoms: C16_18  and  C17_19
ROOT
HETATM    1  C9  UNL     1       8.198  32.292   5.643  1.00  0.00     0.000 C
ENDROOT
BRANCH   1   2
HETATM    2  C8  UNL     1       7.973  33.808   5.528  1.00  0.00     0.000 C
BRANCH   2   3
HETATM    3  C7  UNL     1       7.697  34.167   4.087  1.00  0.00     0.000 C
BRANCH   3   4
HETATM    4  C6  UNL     1       8.966  34.545   3.405  1.00  0.00     0.000 C
BRANCH   4   5
HETATM    5  C5  UNL     1       9.848  35.335   4.327  1.00  0.00     0.006 C
BRANCH   5   6
HETATM    6  C4  UNL     1      11.288  34.942   4.004  1.00  0.00     0.057 C
BRANCH   6   7
HETATM    7  C3  UNL     1      11.821  34.035   5.048  1.00  0.00     0.009 A
HETATM    8  N1  UNL     1      12.215  34.398   6.279  1.00  0.00    -0.369 N
HETATM    9  C2  UNL     1      12.631  33.280   6.913  1.00  0.00     0.088 A
ATOM     10  H1  UNL     1      12.202  35.342   6.663  1.00  0.00     0.165 HD
HETATM   11  C1  UNL     1      12.503  32.198   6.080  1.00  0.00     0.019 A
HETATM   12  C21 UNL     1      11.987  32.686   4.894  1.00  0.00     0.026 A
ENDBRANCH   6   7
ENDBRANCH   5   6
ENDBRANCH   4   5
ENDBRANCH   3   4
ENDBRANCH   2   3
ENDBRANCH   1   2
BRANCH   1  13
HETATM   13  C10 UNL     1       7.325  31.778   6.744  1.00  0.00     0.000 C
BRANCH  13  14
HETATM   14  C11 UNL     1       8.066  31.223   7.908  1.00  0.00     0.000 C
BRANCH  14  15
HETATM   15  C12 UNL     1       9.544  31.213   7.645  1.00  0.00     0.000 C
BRANCH  15  16
HETATM   16  C13 UNL     1      10.290  30.698   8.819  1.00  0.00     0.000 C
BRANCH  16  17
HETATM   17  C14 UNL     1      10.165  29.195   8.986  1.00  0.00     0.000 C
BRANCH  17  18
HETATM   18  C15 UNL     1      11.443  28.501   9.297  1.00  0.00     0.000 C
BRANCH  18  19
HETATM   19  C16 UNL     1      12.226  29.272  10.301  1.00  0.00     0.004 C
BRANCH  19  20
HETATM   20  C17 UNL     1      13.652  29.525   9.957  1.00  0.00    -0.014 C
HETATM   21  C18 UNL     1      13.931  31.033   9.875  1.00  0.00     0.004 C
HETATM   22  C19 UNL     1      14.854  30.697   8.703  1.00  0.00     0.001 C
HETATM   23  C20 UNL     1      13.993  29.469   8.478  1.00  0.00     0.004 C
ENDBRANCH  19  20
ENDBRANCH  18  19
ENDBRANCH  17  18
ENDBRANCH  16  17
ENDBRANCH  15  16
ENDBRANCH  14  15
ENDBRANCH  13  14
ENDBRANCH   1  13
TORSDOF 14
ENDMDL