MODEL 5
REMARK VINA RESULT: -6.344341499      1.876      5.437
REMARK  14 active torsions:
REMARK  status: ('A' for Active; 'I' for Inactive)
REMARK    1  A    between atoms: C3_3  and  C4_4
REMARK    2  A    between atoms: C4_4  and  C5_5
REMARK    3  A    between atoms: C5_5  and  C6_6
REMARK    4  A    between atoms: C6_6  and  C7_7
REMARK    5  A    between atoms: C7_7  and  C8_8
REMARK    6  A    between atoms: C8_8  and  C9_9
REMARK    7  A    between atoms: C9_9  and  C10_10
REMARK    8  A    between atoms: C10_10  and  C11_11
REMARK    9  A    between atoms: C11_11  and  C12_12
REMARK   10  A    between atoms: C12_12  and  C13_13
REMARK   11  A    between atoms: C13_13  and  C14_14
REMARK   12  A    between atoms: C14_14  and  C15_15
REMARK   13  A    between atoms: C15_15  and  N1_16
REMARK   14  A    between atoms: N1_16  and  C16_18
ROOT
HETATM    1  C1  UNL     1       8.842  34.483   3.332  1.00  0.00     0.012 C
HETATM    2  C2  UNL     1       8.348  34.099   4.368  1.00  0.00    -0.117 C
HETATM    3  C3  UNL     1       7.765  33.629   5.640  1.00  0.00     0.093 C
ENDROOT
BRANCH   3   4
HETATM    4  C4  UNL     1       8.050  32.117   5.732  1.00  0.00     0.012 C
BRANCH   4   5
HETATM    5  C5  UNL     1       7.851  31.763   7.182  1.00  0.00     0.001 C
BRANCH   5   6
HETATM    6  C6  UNL     1       9.124  31.412   7.901  1.00  0.00     0.000 C
BRANCH   6   7
HETATM    7  C7  UNL     1       8.870  30.200   8.785  1.00  0.00     0.000 C
BRANCH   7   8
HETATM    8  C8  UNL     1      10.149  29.536   9.190  1.00  0.00     0.000 C
BRANCH   8   9
HETATM    9  C9  UNL     1      11.233  30.556   9.370  1.00  0.00     0.000 C
BRANCH   9  10
HETATM   10  C10 UNL     1      12.180  30.135  10.436  1.00  0.00     0.000 C
BRANCH  10  11
HETATM   11  C11 UNL     1      13.088  28.994   9.950  1.00  0.00     0.000 C
BRANCH  11  12
HETATM   12  C12 UNL     1      13.856  29.394   8.721  1.00  0.00     0.000 C
BRANCH  12  13
HETATM   13  C13 UNL     1      14.984  30.314   9.114  1.00  0.00     0.002 C
BRANCH  13  14
HETATM   14  C14 UNL     1      16.072  30.254   8.098  1.00  0.00     0.020 C
BRANCH  14  15
HETATM   15  C15 UNL     1      16.050  31.540   7.258  1.00  0.00     0.119 C
BRANCH  15  16
HETATM   16  N1  UNL     1      15.119  31.386   6.188  1.00  0.00    -0.390 N
ATOM     17  H1  UNL     1      15.220  30.580   5.570  1.00  0.00     0.159 HD
BRANCH  16  18
HETATM   18  C16 UNL     1      14.053  32.303   5.937  1.00  0.00     0.027 A
HETATM   19  C17 UNL     1      12.754  31.929   6.077  1.00  0.00     0.029 A
HETATM   20  C18 UNL     1      11.696  32.792   5.842  1.00  0.00     0.002 A
HETATM   21  C19 UNL     1      12.004  34.089   5.449  1.00  0.00     0.000 A
HETATM   22  C20 UNL     1      13.312  34.507   5.296  1.00  0.00     0.002 A
HETATM   23  C21 UNL     1      14.320  33.598   5.546  1.00  0.00     0.029 A
ENDBRANCH  16  18
ENDBRANCH  15  16
ENDBRANCH  14  15
ENDBRANCH  13  14
ENDBRANCH  12  13
ENDBRANCH  11  12
ENDBRANCH  10  11
ENDBRANCH   9  10
ENDBRANCH   8   9
ENDBRANCH   7   8
ENDBRANCH   6   7
ENDBRANCH   5   6
ENDBRANCH   4   5
ENDBRANCH   3   4
TORSDOF 14
ENDMDL