MODEL 2
REMARK VINA RESULT: -6.561781884      1.953      6.278
REMARK  14 active torsions:
REMARK  status: ('A' for Active; 'I' for Inactive)
REMARK    1  A    between atoms: C3_3  and  C4_4
REMARK    2  A    between atoms: C4_4  and  C5_5
REMARK    3  A    between atoms: C5_5  and  C6_6
REMARK    4  A    between atoms: C6_6  and  C7_7
REMARK    5  A    between atoms: C7_7  and  C8_8
REMARK    6  A    between atoms: C8_8  and  C9_9
REMARK    7  A    between atoms: C9_9  and  C10_10
REMARK    8  A    between atoms: C10_10  and  C11_11
REMARK    9  A    between atoms: C11_11  and  C12_12
REMARK   10  A    between atoms: C12_12  and  C13_13
REMARK   11  A    between atoms: C13_13  and  C14_14
REMARK   12  A    between atoms: C14_14  and  C15_15
REMARK   13  A    between atoms: C15_15  and  C16_16
REMARK   14  A    between atoms: C16_16  and  C17_17
ROOT
HETATM    1  C1  UNL     1      12.625  34.355   5.981  1.00  0.00     0.012 C
HETATM    2  C2  UNL     1      11.948  34.441   4.993  1.00  0.00    -0.117 C
HETATM    3  C3  UNL     1      11.104  34.549   3.803  1.00  0.00     0.093 C
ENDROOT
BRANCH   3   4
HETATM    4  C4  UNL     1       9.765  35.191   4.115  1.00  0.00     0.012 C
BRANCH   4   5
HETATM    5  C5  UNL     1       8.651  34.577   3.275  1.00  0.00     0.001 C
BRANCH   5   6
HETATM    6  C6  UNL     1       7.472  34.192   4.104  1.00  0.00     0.000 C
BRANCH   6   7
HETATM    7  C7  UNL     1       7.918  33.819   5.485  1.00  0.00     0.000 C
BRANCH   7   8
HETATM    8  C8  UNL     1       7.920  32.342   5.752  1.00  0.00     0.000 C
BRANCH   8   9
HETATM    9  C9  UNL     1       9.277  31.710   5.664  1.00  0.00     0.000 C
BRANCH   9  10
HETATM   10  C10 UNL     1       9.904  31.585   7.016  1.00  0.00     0.000 C
BRANCH  10  11
HETATM   11  C11 UNL     1       8.900  31.162   8.035  1.00  0.00     0.004 C
BRANCH  11  12
HETATM   12  C12 UNL     1       9.534  30.454   9.243  1.00  0.00     0.027 C
BRANCH  12  13
HETATM   13  C13 UNL     1      10.075  29.132   8.879  1.00  0.00    -0.031 C
BRANCH  13  14
HETATM   14  C14 UNL     1      11.371  28.668   9.357  1.00  0.00    -0.031 C
BRANCH  14  15
HETATM   15  C15 UNL     1      12.117  29.262  10.459  1.00  0.00     0.027 C
BRANCH  15  16
HETATM   16  C16 UNL     1      13.198  30.205  10.130  1.00  0.00     0.008 C
BRANCH  16  17
HETATM   17  C17 UNL     1      13.723  30.015   8.703  1.00  0.00    -0.011 C
HETATM   18  C18 UNL     1      15.204  29.746   8.810  1.00  0.00     0.032 C
HETATM   19  C19 UNL     1      15.995  30.749   7.994  1.00  0.00     0.232 C
HETATM   20  N1  UNL     1      15.577  30.724   6.621  1.00  0.00    -0.075 N
HETATM   21  C20 UNL     1      14.168  30.987   6.522  1.00  0.00     0.232 C
ATOM     22  H12 UNL     1      16.125  31.364   6.045  1.00  0.00     0.277 HD
ATOM     23  H11 UNL     1      15.833  29.850   6.161  1.00  0.00     0.277 HD
HETATM   24  C21 UNL     1      13.510  31.230   7.864  1.00  0.00     0.032 C
ENDBRANCH  16  17
ENDBRANCH  15  16
ENDBRANCH  14  15
ENDBRANCH  13  14
ENDBRANCH  12  13
ENDBRANCH  11  12
ENDBRANCH  10  11
ENDBRANCH   9  10
ENDBRANCH   8   9
ENDBRANCH   7   8
ENDBRANCH   6   7
ENDBRANCH   5   6
ENDBRANCH   4   5
ENDBRANCH   3   4
TORSDOF 14
ENDMDL