MODEL 5
REMARK VINA RESULT: -6.810990435      1.499      2.119
REMARK  15 active torsions:
REMARK  status: ('A' for Active; 'I' for Inactive)
REMARK    1  A    between atoms: N1_1  and  C1_5
REMARK    2  A    between atoms: C1_5  and  C2_6
REMARK    3  A    between atoms: C2_6  and  C3_7
REMARK    4  A    between atoms: C3_7  and  C4_8
REMARK    5  A    between atoms: C4_8  and  C5_9
REMARK    6  A    between atoms: C5_9  and  C6_10
REMARK    7  A    between atoms: C6_10  and  C7_11
REMARK    8  A    between atoms: C7_11  and  C8_12
REMARK    9  A    between atoms: C8_12  and  C9_13
REMARK   10  A    between atoms: C9_13  and  C10_14
REMARK   11  A    between atoms: C10_14  and  C11_15
REMARK   12  A    between atoms: C11_15  and  C12_16
REMARK   13  A    between atoms: C12_16  and  C13_17
REMARK   14  A    between atoms: C13_17  and  C14_18
REMARK   15  A    between atoms: C14_18  and  C15_19
ROOT
HETATM    1  C9  UNL     1       8.517  31.938   5.581  1.00  0.00     0.000 C
ENDROOT
BRANCH   1   2
HETATM    2  C8  UNL     1       8.206  33.444   5.696  1.00  0.00     0.000 C
BRANCH   2   3
HETATM    3  C7  UNL     1       7.604  33.921   4.414  1.00  0.00     0.000 C
BRANCH   3   4
HETATM    4  C6  UNL     1       8.653  34.522   3.526  1.00  0.00     0.000 C
BRANCH   4   5
HETATM    5  C5  UNL     1       9.731  35.153   4.359  1.00  0.00     0.000 C
BRANCH   5   6
HETATM    6  C4  UNL     1      11.137  34.906   3.762  1.00  0.00     0.000 C
BRANCH   6   7
HETATM    7  C3  UNL     1      11.519  33.480   3.821  1.00  0.00     0.002 C
BRANCH   7   8
HETATM    8  C2  UNL     1      12.393  33.122   4.956  1.00  0.00     0.027 C
BRANCH   8   9
HETATM    9  C1  UNL     1      13.092  34.183   5.701  1.00  0.00     0.229 C
BRANCH   9  10
HETATM   10  N1  UNL     1      12.623  34.515   6.995  1.00  0.00    -0.079 N
ATOM     11  H13 UNL     1      12.261  35.469   6.983  1.00  0.00     0.274 HD
ATOM     12  H12 UNL     1      11.774  33.985   7.188  1.00  0.00     0.274 HD
ATOM     13  H11 UNL     1      13.263  34.415   7.783  1.00  0.00     0.274 HD
ENDBRANCH   9  10
ENDBRANCH   8   9
ENDBRANCH   7   8
ENDBRANCH   6   7
ENDBRANCH   5   6
ENDBRANCH   4   5
ENDBRANCH   3   4
ENDBRANCH   2   3
ENDBRANCH   1   2
BRANCH   1  14
HETATM   14  C10 UNL     1       9.609  31.575   6.571  1.00  0.00     0.000 C
BRANCH  14  15
HETATM   15  C11 UNL     1       9.174  31.739   7.987  1.00  0.00     0.000 C
BRANCH  15  16
HETATM   16  C12 UNL     1       8.652  30.474   8.610  1.00  0.00     0.000 C
BRANCH  16  17
HETATM   17  C13 UNL     1       9.598  29.859   9.593  1.00  0.00     0.000 C
BRANCH  17  18
HETATM   18  C14 UNL     1      10.618  28.963   8.925  1.00  0.00     0.005 C
BRANCH  18  19
HETATM   19  C15 UNL     1      11.933  28.970   9.670  1.00  0.00    -0.006 C
HETATM   20  C16 UNL     1      11.992  30.089  10.708  1.00  0.00     0.013 C
HETATM   21  C17 UNL     1      13.215  30.894  10.327  1.00  0.00     0.009 C
HETATM   22  C18 UNL     1      12.921  31.534   9.036  1.00  0.00    -0.026 C
HETATM   23  C21 UNL     1      14.124  29.741   9.851  1.00  0.00     0.017 C
HETATM   24  C19 UNL     1      12.851  30.573   8.121  1.00  0.00    -0.025 C
HETATM   25  C20 UNL     1      13.102  29.253   8.803  1.00  0.00     0.012 C
ENDBRANCH  18  19
ENDBRANCH  17  18
ENDBRANCH  16  17
ENDBRANCH  15  16
ENDBRANCH  14  15
ENDBRANCH   1  14
TORSDOF 15
ENDMDL