MODEL 3
REMARK VINA RESULT: -6.470309824      1.211      2.719
REMARK  14 active torsions:
REMARK  status: ('A' for Active; 'I' for Inactive)
REMARK    1  A    between atoms: C3_3  and  C4_4
REMARK    2  A    between atoms: C4_4  and  C5_5
REMARK    3  A    between atoms: C5_5  and  C6_6
REMARK    4  A    between atoms: C6_6  and  C7_7
REMARK    5  A    between atoms: C7_7  and  C8_8
REMARK    6  A    between atoms: C8_8  and  C9_9
REMARK    7  A    between atoms: C9_9  and  C10_10
REMARK    8  A    between atoms: C10_10  and  N1_11
REMARK    9  A    between atoms: N1_11  and  C11_13
REMARK   10  A    between atoms: C11_13  and  C12_14
REMARK   11  A    between atoms: C12_14  and  C13_15
REMARK   12  A    between atoms: C13_15  and  C14_16
REMARK   13  A    between atoms: C14_16  and  C15_17
REMARK   14  A    between atoms: C15_17  and  C16_18
ROOT
HETATM    1  C1  UNL     1      12.584  35.660   5.895  1.00  0.00     0.096 C
HETATM    2  C2  UNL     1      11.866  35.441   4.929  1.00  0.00    -0.188 C
HETATM    3  C3  UNL     1      11.018  35.195   3.752  1.00  0.00     0.079 C
ENDROOT
BRANCH   3   4
HETATM    4  C4  UNL     1      10.076  34.061   4.023  1.00  0.00     0.011 C
BRANCH   4   5
HETATM    5  C5  UNL     1       8.688  34.441   3.616  1.00  0.00     0.001 C
BRANCH   5   6
HETATM    6  C6  UNL     1       7.702  33.913   4.647  1.00  0.00     0.000 C
BRANCH   6   7
HETATM    7  C7  UNL     1       8.426  32.849   5.475  1.00  0.00     0.000 C
BRANCH   7   8
HETATM    8  C8  UNL     1       7.652  32.649   6.747  1.00  0.00     0.002 C
BRANCH   8   9
HETATM    9  C9  UNL     1       7.792  31.259   7.272  1.00  0.00     0.019 C
BRANCH   9  10
HETATM   10  C10 UNL     1       8.727  31.270   8.464  1.00  0.00     0.113 C
BRANCH  10  11
HETATM   11  N1  UNL     1       9.465  30.058   8.488  1.00  0.00    -0.421 N
ATOM     12  H1  UNL     1       9.373  29.363   7.747  1.00  0.00     0.153 HD
BRANCH  11  13
HETATM   13  C11 UNL     1      10.339  29.856   9.592  1.00  0.00     0.113 C
BRANCH  13  14
HETATM   14  C12 UNL     1      11.380  28.831   9.216  1.00  0.00     0.019 C
BRANCH  14  15
HETATM   15  C13 UNL     1      12.692  29.210   9.848  1.00  0.00     0.002 C
BRANCH  15  16
HETATM   16  C14 UNL     1      13.795  29.177   8.840  1.00  0.00     0.000 C
BRANCH  16  17
HETATM   17  C15 UNL     1      14.756  30.337   8.994  1.00  0.00     0.004 C
BRANCH  17  18
HETATM   18  C16 UNL     1      14.490  31.453   8.003  1.00  0.00    -0.014 C
HETATM   19  C17 UNL     1      14.051  30.894   6.687  1.00  0.00     0.004 C
HETATM   20  C18 UNL     1      13.211  31.920   5.943  1.00  0.00     0.000 C
HETATM   21  C19 UNL     1      11.951  32.085   6.750  1.00  0.00     0.000 C
HETATM   22  C20 UNL     1      12.260  32.660   8.087  1.00  0.00     0.000 C
HETATM   23  C21 UNL     1      13.657  32.546   8.567  1.00  0.00     0.004 C
ENDBRANCH  17  18
ENDBRANCH  16  17
ENDBRANCH  15  16
ENDBRANCH  14  15
ENDBRANCH  13  14
ENDBRANCH  11  13
ENDBRANCH  10  11
ENDBRANCH   9  10
ENDBRANCH   8   9
ENDBRANCH   7   8
ENDBRANCH   6   7
ENDBRANCH   5   6
ENDBRANCH   4   5
ENDBRANCH   3   4
TORSDOF 14
ENDMDL