MODEL 2
REMARK VINA RESULT: -6.869499316      2.047      6.140
REMARK  14 active torsions:
REMARK  status: ('A' for Active; 'I' for Inactive)
REMARK    1  A    between atoms: C3_3  and  C4_4
REMARK    2  A    between atoms: C4_4  and  C5_5
REMARK    3  A    between atoms: C5_5  and  C6_6
REMARK    4  A    between atoms: C6_6  and  C7_7
REMARK    5  A    between atoms: C7_7  and  C8_8
REMARK    6  A    between atoms: C8_8  and  C9_9
REMARK    7  A    between atoms: C9_9  and  C10_10
REMARK    8  A    between atoms: C10_10  and  C11_11
REMARK    9  A    between atoms: C11_11  and  C12_12
REMARK   10  A    between atoms: C12_12  and  C13_13
REMARK   11  A    between atoms: C13_13  and  C14_14
REMARK   12  A    between atoms: C14_14  and  C15_15
REMARK   13  A    between atoms: C15_15  and  C16_16
REMARK   14  A    between atoms: C16_16  and  C17_17
ROOT
HETATM    1  C11 UNL     1      10.058  29.392   8.705  1.00  0.00     0.000 C
ENDROOT
BRANCH   1   2
HETATM    2  C10 UNL     1      10.970  29.274   9.878  1.00  0.00     0.000 C
BRANCH   2   3
HETATM    3  C9  UNL     1      12.281  28.660   9.501  1.00  0.00     0.000 C
BRANCH   3   4
HETATM    4  C8  UNL     1      13.403  29.293  10.287  1.00  0.00     0.000 C
BRANCH   4   5
HETATM    5  C7  UNL     1      14.499  29.697   9.321  1.00  0.00     0.000 C
BRANCH   5   6
HETATM    6  C6  UNL     1      13.981  29.932   7.932  1.00  0.00     0.000 C
BRANCH   6   7
HETATM    7  C5  UNL     1      13.962  31.409   7.598  1.00  0.00     0.001 C
BRANCH   7   8
HETATM    8  C4  UNL     1      12.593  31.987   7.806  1.00  0.00     0.009 C
BRANCH   8   9
HETATM    9  C3  UNL     1      12.531  33.065   8.835  1.00  0.00     0.011 A
HETATM   10  C2  UNL     1      11.769  32.739  10.066  1.00  0.00    -0.026 A
HETATM   11  C1  UNL     1      12.781  32.898  10.891  1.00  0.00    -0.030 A
HETATM   12  C20 UNL     1      13.645  33.238   9.771  1.00  0.00     0.035 A
ENDBRANCH   8   9
ENDBRANCH   7   8
ENDBRANCH   6   7
ENDBRANCH   5   6
ENDBRANCH   4   5
ENDBRANCH   3   4
ENDBRANCH   2   3
ENDBRANCH   1   2
BRANCH   1  13
HETATM   13  C12 UNL     1       8.913  30.353   9.008  1.00  0.00     0.000 C
BRANCH  13  14
HETATM   14  C13 UNL     1       8.851  31.523   8.086  1.00  0.00     0.000 C
BRANCH  14  15
HETATM   15  C14 UNL     1       7.577  31.516   7.251  1.00  0.00     0.000 C
BRANCH  15  16
HETATM   16  C15 UNL     1       7.894  31.990   5.866  1.00  0.00     0.006 C
BRANCH  16  17
HETATM   17  C16 UNL     1       9.336  32.204   5.594  1.00  0.00     0.058 C
BRANCH  17  18
HETATM   18  C17 UNL     1       9.697  33.481   4.966  1.00  0.00     0.025 A
HETATM   19  C18 UNL     1       9.115  34.200   3.965  1.00  0.00     0.113 A
HETATM   20  N1  UNL     1       9.849  35.316   3.792  1.00  0.00    -0.360 N
HETATM   21  C19 UNL     1      10.875  35.314   4.657  1.00  0.00     0.180 A
ATOM     22  H1  UNL     1       9.656  36.048   3.110  1.00  0.00     0.166 HD
HETATM   23  N2  UNL     1      10.774  34.188   5.371  1.00  0.00    -0.355 N
ATOM     24  H2  UNL     1      11.415  33.905   6.112  1.00  0.00     0.166 HD
ENDBRANCH  17  18
ENDBRANCH  16  17
ENDBRANCH  15  16
ENDBRANCH  14  15
ENDBRANCH  13  14
ENDBRANCH   1  13
TORSDOF 14
ENDMDL