MODEL 5
REMARK VINA RESULT: -6.917532783      0.888      1.252
REMARK  14 active torsions:
REMARK  status: ('A' for Active; 'I' for Inactive)
REMARK    1  A    between atoms: C2_4  and  C3_5
REMARK    2  A    between atoms: C3_5  and  C4_6
REMARK    3  A    between atoms: C4_6  and  C5_7
REMARK    4  A    between atoms: C5_7  and  C6_8
REMARK    5  A    between atoms: C6_8  and  C7_9
REMARK    6  A    between atoms: C7_9  and  C8_10
REMARK    7  A    between atoms: C8_10  and  C9_11
REMARK    8  A    between atoms: C9_11  and  C10_12
REMARK    9  A    between atoms: C10_12  and  C11_13
REMARK   10  A    between atoms: C11_13  and  C12_14
REMARK   11  A    between atoms: C12_14  and  C13_15
REMARK   12  A    between atoms: C13_15  and  C14_16
REMARK   13  A    between atoms: C14_16  and  C15_17
REMARK   14  A    between atoms: C15_17  and  C16_18
ROOT
HETATM    1  C7  UNL     1       8.013  31.783   7.064  1.00  0.00     0.000 C
ENDROOT
BRANCH   1   2
HETATM    2  C6  UNL     1       7.665  32.181   5.650  1.00  0.00     0.000 C
BRANCH   2   3
HETATM    3  C5  UNL     1       7.725  33.713   5.617  1.00  0.00     0.000 C
BRANCH   3   4
HETATM    4  C4  UNL     1       7.867  34.211   4.214  1.00  0.00     0.007 C
BRANCH   4   5
HETATM    5  C3  UNL     1       9.277  33.934   3.744  1.00  0.00     0.078 C
BRANCH   5   6
HETATM    6  C2  UNL     1      10.236  34.949   4.233  1.00  0.00     0.096 A
HETATM    7  N1  UNL     1      11.155  34.788   5.194  1.00  0.00    -0.340 N
HETATM    8  C1  UNL     1      11.837  35.925   5.359  1.00  0.00     0.198 A
ATOM      9  H1  UNL     1      11.311  33.928   5.720  1.00  0.00     0.168 HD
HETATM   10  N3  UNL     1      11.325  36.805   4.479  1.00  0.00    -0.295 N
HETATM   11  N2  UNL     1      10.367  36.227   3.804  1.00  0.00    -0.288 N
ATOM     12  H3  UNL     1      11.635  37.769   4.359  1.00  0.00     0.187 HD
ATOM     13  H2  UNL     1       9.810  36.667   3.072  1.00  0.00     0.188 HD
ENDBRANCH   5   6
ENDBRANCH   4   5
ENDBRANCH   3   4
ENDBRANCH   2   3
ENDBRANCH   1   2
BRANCH   1  14
HETATM   14  C8  UNL     1       9.476  31.435   7.225  1.00  0.00     0.000 C
BRANCH  14  15
HETATM   15  C9  UNL     1       9.810  31.054   8.628  1.00  0.00     0.000 C
BRANCH  15  16
HETATM   16  C10 UNL     1       9.722  29.582   8.889  1.00  0.00     0.000 C
BRANCH  16  17
HETATM   17  C11 UNL     1      11.064  29.016   9.201  1.00  0.00     0.000 C
BRANCH  17  18
HETATM   18  C12 UNL     1      11.711  29.589  10.440  1.00  0.00     0.000 C
BRANCH  18  19
HETATM   19  C13 UNL     1      13.196  29.327  10.499  1.00  0.00     0.000 C
BRANCH  19  20
HETATM   20  C14 UNL     1      13.868  29.354   9.186  1.00  0.00     0.000 C
BRANCH  20  21
HETATM   21  C15 UNL     1      14.850  30.417   8.900  1.00  0.00     0.004 C
BRANCH  21  22
HETATM   22  C16 UNL     1      14.402  31.586   8.113  1.00  0.00    -0.014 C
HETATM   23  C17 UNL     1      13.225  31.468   7.192  1.00  0.00     0.004 C
HETATM   24  C18 UNL     1      12.908  32.934   7.583  1.00  0.00     0.001 C
HETATM   25  C19 UNL     1      13.536  32.555   8.940  1.00  0.00     0.004 C
ENDBRANCH  21  22
ENDBRANCH  20  21
ENDBRANCH  19  20
ENDBRANCH  18  19
ENDBRANCH  17  18
ENDBRANCH  16  17
ENDBRANCH  15  16
ENDBRANCH  14  15
ENDBRANCH   1  14
TORSDOF 14
ENDMDL