MODEL 3
REMARK VINA RESULT: -6.150213020      1.972      6.277
REMARK  14 active torsions:
REMARK  status: ('A' for Active; 'I' for Inactive)
REMARK    1  A    between atoms: C3_3  and  C4_4
REMARK    2  A    between atoms: C4_4  and  C5_5
REMARK    3  A    between atoms: C5_5  and  C6_6
REMARK    4  A    between atoms: C6_6  and  C7_7
REMARK    5  A    between atoms: C7_7  and  C8_8
REMARK    6  A    between atoms: C8_8  and  C9_9
REMARK    7  A    between atoms: C9_9  and  C10_10
REMARK    8  A    between atoms: C10_10  and  C11_11
REMARK    9  A    between atoms: C11_11  and  C12_12
REMARK   10  A    between atoms: C12_12  and  C13_13
REMARK   11  A    between atoms: C13_13  and  C14_14
REMARK   12  A    between atoms: C14_14  and  C15_15
REMARK   13  A    between atoms: C15_15  and  N1_16
REMARK   14  A    between atoms: N1_16  and  C16_18
ROOT
HETATM    1  C1  UNL     1       9.035  31.822   6.085  1.00  0.00     0.012 C
HETATM    2  C2  UNL     1       8.555  32.775   5.514  1.00  0.00    -0.117 C
HETATM    3  C3  UNL     1       7.972  33.930   4.799  1.00  0.00     0.093 C
ENDROOT
BRANCH   3   4
HETATM    4  C4  UNL     1       8.989  34.305   3.703  1.00  0.00     0.012 C
BRANCH   4   5
HETATM    5  C5  UNL     1       9.918  35.297   4.338  1.00  0.00     0.001 C
BRANCH   5   6
HETATM    6  C6  UNL     1      11.322  35.068   3.836  1.00  0.00     0.000 C
BRANCH   6   7
HETATM    7  C7  UNL     1      12.296  35.514   4.876  1.00  0.00     0.000 C
BRANCH   7   8
HETATM    8  C8  UNL     1      13.137  34.375   5.335  1.00  0.00     0.000 C
BRANCH   8   9
HETATM    9  C9  UNL     1      12.400  33.496   6.314  1.00  0.00     0.000 C
BRANCH   9  10
HETATM   10  C10 UNL     1      12.691  32.067   5.878  1.00  0.00     0.000 C
BRANCH  10  11
HETATM   11  C11 UNL     1      14.094  31.651   6.168  1.00  0.00     0.000 C
BRANCH  11  12
HETATM   12  C12 UNL     1      14.202  30.433   7.027  1.00  0.00     0.000 C
BRANCH  12  13
HETATM   13  C13 UNL     1      15.512  30.259   7.702  1.00  0.00     0.005 C
BRANCH  13  14
HETATM   14  C14 UNL     1      15.443  30.337   9.208  1.00  0.00     0.044 C
BRANCH  14  15
HETATM   15  C15 UNL     1      14.646  31.477   9.733  1.00  0.00     0.056 C
BRANCH  15  16
HETATM   16  N1  UNL     1      13.713  31.304  10.731  1.00  0.00    -0.398 N
ATOM     17  H1  UNL     1      13.984  31.616  11.663  1.00  0.00     0.159 HD
BRANCH  16  18
HETATM   18  C16 UNL     1      12.451  30.756  10.609  1.00  0.00     0.080 C
HETATM   19  C17 UNL     1      12.235  29.286  10.687  1.00  0.00     0.025 C
HETATM   20  C18 UNL     1      11.796  28.659   9.374  1.00  0.00     0.002 C
HETATM   21  C19 UNL     1      10.438  29.203   8.954  1.00  0.00     0.000 C
HETATM   22  C20 UNL     1      10.292  30.634   9.492  1.00  0.00     0.002 C
HETATM   23  C21 UNL     1      11.675  31.240   9.379  1.00  0.00     0.025 C
ENDBRANCH  16  18
ENDBRANCH  15  16
ENDBRANCH  14  15
ENDBRANCH  13  14
ENDBRANCH  12  13
ENDBRANCH  11  12
ENDBRANCH  10  11
ENDBRANCH   9  10
ENDBRANCH   8   9
ENDBRANCH   7   8
ENDBRANCH   6   7
ENDBRANCH   5   6
ENDBRANCH   4   5
ENDBRANCH   3   4
TORSDOF 14
ENDMDL