MODEL 4
REMARK VINA RESULT: -6.970725633      1.772      4.489
REMARK  14 active torsions:
REMARK  status: ('A' for Active; 'I' for Inactive)
REMARK    1  A    between atoms: N1_1  and  C1_5
REMARK    2  A    between atoms: C1_5  and  C2_6
REMARK    3  A    between atoms: C2_6  and  C3_7
REMARK    4  A    between atoms: C3_7  and  C4_8
REMARK    5  A    between atoms: C4_8  and  C5_9
REMARK    6  A    between atoms: C5_9  and  C6_10
REMARK    7  A    between atoms: C6_10  and  C7_11
REMARK    8  A    between atoms: C7_11  and  C8_12
REMARK    9  A    between atoms: C8_12  and  C9_13
REMARK   10  A    between atoms: C9_13  and  C10_14
REMARK   11  A    between atoms: C10_14  and  C11_15
REMARK   12  A    between atoms: C11_15  and  C12_16
REMARK   13  A    between atoms: C12_16  and  C13_17
REMARK   14  A    between atoms: C13_17  and  C14_18
ROOT
HETATM    1  C9  UNL     1      10.336  28.772   9.010  1.00  0.00     0.000 C
ENDROOT
BRANCH   1   2
HETATM    2  C8  UNL     1      11.735  28.473   9.489  1.00  0.00     0.000 C
BRANCH   2   3
HETATM    3  C7  UNL     1      12.266  29.585  10.362  1.00  0.00     0.000 C
BRANCH   3   4
HETATM    4  C6  UNL     1      13.567  30.133   9.828  1.00  0.00     0.000 C
BRANCH   4   5
HETATM    5  C5  UNL     1      14.033  29.363   8.636  1.00  0.00     0.000 C
BRANCH   5   6
HETATM    6  C4  UNL     1      14.333  30.251   7.459  1.00  0.00     0.000 C
BRANCH   6   7
HETATM    7  C3  UNL     1      13.322  31.366   7.334  1.00  0.00     0.002 C
BRANCH   7   8
HETATM    8  C2  UNL     1      13.969  32.662   6.895  1.00  0.00     0.027 C
BRANCH   8   9
HETATM    9  C1  UNL     1      15.058  32.404   5.872  1.00  0.00     0.229 C
BRANCH   9  10
HETATM   10  N1  UNL     1      15.183  33.608   5.064  1.00  0.00    -0.079 N
ATOM     11  H13 UNL     1      15.924  33.545   4.366  1.00  0.00     0.274 HD
ATOM     12  H12 UNL     1      14.405  33.738   4.418  1.00  0.00     0.274 HD
ATOM     13  H11 UNL     1      15.304  34.391   5.707  1.00  0.00     0.274 HD
ENDBRANCH   9  10
ENDBRANCH   8   9
ENDBRANCH   7   8
ENDBRANCH   6   7
ENDBRANCH   5   6
ENDBRANCH   4   5
ENDBRANCH   3   4
ENDBRANCH   2   3
ENDBRANCH   1   2
BRANCH   1  14
HETATM   14  C10 UNL     1       9.943  30.221   9.184  1.00  0.00     0.000 C
BRANCH  14  15
HETATM   15  C11 UNL     1       9.670  30.885   7.852  1.00  0.00     0.000 C
BRANCH  15  16
HETATM   16  C12 UNL     1       8.352  31.624   7.852  1.00  0.00     0.005 C
BRANCH  16  17
HETATM   17  C13 UNL     1       7.700  31.615   6.499  1.00  0.00     0.039 C
BRANCH  17  18
HETATM   18  C14 UNL     1       8.233  32.716   5.693  1.00  0.00    -0.046 A
HETATM   19  C15 UNL     1       7.734  33.838   5.201  1.00  0.00     0.020 A
HETATM   20  C16 UNL     1       8.978  34.258   4.566  1.00  0.00    -0.025 A
HETATM   21  C17 UNL     1       9.773  35.110   3.821  1.00  0.00     0.012 A
HETATM   22  C21 UNL     1       9.503  33.091   5.076  1.00  0.00    -0.020 A
HETATM   23  C18 UNL     1      11.092  34.764   3.606  1.00  0.00     0.001 A
HETATM   24  C19 UNL     1      11.636  33.588   4.116  1.00  0.00     0.001 A
HETATM   25  C20 UNL     1      10.821  32.752   4.857  1.00  0.00     0.013 A
ENDBRANCH  17  18
ENDBRANCH  16  17
ENDBRANCH  15  16
ENDBRANCH  14  15
ENDBRANCH   1  14
TORSDOF 14
ENDMDL