MODEL 2
REMARK VINA RESULT: -6.713168890      1.080      6.025
REMARK  14 active torsions:
REMARK  status: ('A' for Active; 'I' for Inactive)
REMARK    1  A    between atoms: C2_2  and  C3_3
REMARK    2  A    between atoms: C3_3  and  C4_4
REMARK    3  A    between atoms: C4_4  and  C5_5
REMARK    4  A    between atoms: C5_5  and  C6_6
REMARK    5  A    between atoms: C6_6  and  C7_7
REMARK    6  A    between atoms: C7_7  and  C8_8
REMARK    7  A    between atoms: C8_8  and  C9_9
REMARK    8  A    between atoms: C9_9  and  C10_10
REMARK    9  A    between atoms: C10_10  and  C11_11
REMARK   10  A    between atoms: C11_11  and  C12_12
REMARK   11  A    between atoms: C12_12  and  C13_13
REMARK   12  A    between atoms: C13_13  and  C14_14
REMARK   13  A    between atoms: C14_14  and  C15_15
REMARK   14  A    between atoms: C15_15  and  C16_16
ROOT
HETATM    1  C6  UNL     1      11.848  29.316  10.588  1.00  0.00     0.000 C
ENDROOT
BRANCH   1   2
HETATM    2  C5  UNL     1      13.328  29.389  10.378  1.00  0.00     0.000 C
BRANCH   2   3
HETATM    3  C4  UNL     1      13.694  29.367   8.934  1.00  0.00     0.004 C
BRANCH   3   4
HETATM    4  C3  UNL     1      14.622  30.502   8.593  1.00  0.00     0.035 C
BRANCH   4   5
HETATM    5  C2  UNL     1      13.786  31.555   7.901  1.00  0.00    -0.058 C
HETATM    6  C1  UNL     1      13.455  31.355   6.651  1.00  0.00    -0.021 C
HETATM    7  C21 UNL     1      12.640  32.348   5.926  1.00  0.00     0.055 C
HETATM    8  C20 UNL     1      12.788  33.681   6.605  1.00  0.00     0.236 C
HETATM    9  N1  UNL     1      12.492  33.612   8.022  1.00  0.00    -0.071 N
HETATM   10  C19 UNL     1      13.411  32.735   8.719  1.00  0.00     0.266 C
ATOM     11  H12 UNL     1      11.522  33.341   8.187  1.00  0.00     0.277 HD
ATOM     12  H11 UNL     1      12.472  34.540   8.443  1.00  0.00     0.277 HD
ENDBRANCH   4   5
ENDBRANCH   3   4
ENDBRANCH   2   3
ENDBRANCH   1   2
BRANCH   1  13
HETATM   13  C7  UNL     1      11.202  28.812   9.311  1.00  0.00     0.000 C
BRANCH  13  14
HETATM   14  C8  UNL     1       9.868  29.441   9.022  1.00  0.00     0.000 C
BRANCH  14  15
HETATM   15  C9  UNL     1      10.153  30.928   8.749  1.00  0.00     0.000 C
BRANCH  15  16
HETATM   16  C10 UNL     1       9.555  31.351   7.447  1.00  0.00     0.000 C
BRANCH  16  17
HETATM   17  C11 UNL     1       8.063  31.485   7.542  1.00  0.00     0.000 C
BRANCH  17  18
HETATM   18  C12 UNL     1       7.463  31.943   6.257  1.00  0.00     0.000 C
BRANCH  18  19
HETATM   19  C13 UNL     1       7.617  33.449   6.098  1.00  0.00     0.000 C
BRANCH  19  20
HETATM   20  C14 UNL     1       7.876  33.850   4.664  1.00  0.00     0.000 C
BRANCH  20  21
HETATM   21  C15 UNL     1       9.399  33.813   4.495  1.00  0.00     0.004 C
BRANCH  21  22
HETATM   22  C16 UNL     1       9.808  35.126   3.851  1.00  0.00    -0.014 A
HETATM   23  C17 UNL     1      10.538  36.142   4.672  1.00  0.00     0.005 A
HETATM   24  C18 UNL     1      11.297  35.380   3.648  1.00  0.00     0.005 A
ENDBRANCH  21  22
ENDBRANCH  20  21
ENDBRANCH  19  20
ENDBRANCH  18  19
ENDBRANCH  17  18
ENDBRANCH  16  17
ENDBRANCH  15  16
ENDBRANCH  14  15
ENDBRANCH  13  14
ENDBRANCH   1  13
TORSDOF 14
ENDMDL