MODEL 4
REMARK VINA RESULT: -7.943645664      3.347      5.681
REMARK  12 active torsions:
REMARK  status: ('A' for Active; 'I' for Inactive)
REMARK    1  A    between atoms: C2_2  and  C3_3
REMARK    2  A    between atoms: C4_5  and  O2_7
REMARK    3  A    between atoms: O2_7  and  C6_8
REMARK    4  A    between atoms: C7_10  and  C8_11
REMARK    5  A    between atoms: C8_11  and  N1_12
REMARK    6  A    between atoms: C9_16  and  O4_17
REMARK    7  A    between atoms: C11_20  and  N2_21
REMARK    8  A    between atoms: C12_25  and  C13_26
REMARK    9  A    between atoms: C13_26  and  N3_27
REMARK       I    between atoms: N3_27  and  C14_28
REMARK   10  A    between atoms: C16_31  and  O6_32
REMARK   11  A    between atoms: O6_32  and  C17_33
REMARK   12  A    between atoms: C19_35  and  N4_36
ROOT
HETATM    1  C3  UNL     1      25.257  10.757  24.034  1.00  0.00     0.154 C
HETATM    2  O1  UNL     1      25.709   9.691  24.777  1.00  0.00    -0.347 OA
HETATM    3  C4  UNL     1      24.641   9.367  25.617  1.00  0.00     0.175 C
HETATM    4  C5  UNL     1      24.777   7.990  26.180  1.00  0.00     0.080 C
HETATM    5  C12 UNL     1      23.484   9.444  24.675  1.00  0.00     0.132 C
HETATM    6  C16 UNL     1      23.891  10.378  23.595  1.00  0.00     0.168 C
ENDROOT
BRANCH   3   7
HETATM    7  O2  UNL     1      24.437  10.333  26.569  1.00  0.00    -0.323 OA
BRANCH   7   8
HETATM    8  C6  UNL     1      23.340  10.482  27.290  1.00  0.00     0.294 C
HETATM    9  O3  UNL     1      23.306   9.742  28.466  1.00  0.00    -0.350 OA
HETATM   10  C7  UNL     1      24.241  10.156  29.361  1.00  0.00     0.178 C
HETATM   11  C9  UNL     1      24.670  11.544  29.317  1.00  0.00     0.151 C
HETATM   12  C10 UNL     1      23.924  12.552  28.511  1.00  0.00     0.072 C
HETATM   13  C11 UNL     1      22.861  11.897  27.648  1.00  0.00     0.240 C
BRANCH  10  14
HETATM   14  C8  UNL     1      25.438   9.194  29.407  1.00  0.00     0.264 C
BRANCH  14  15
HETATM   15  N1  UNL     1      26.020   9.282  30.716  1.00  0.00    -0.077 N
ATOM     16  H13 UNL     1      26.348  10.221  30.941  1.00  0.00     0.274 HD
ATOM     17  H12 UNL     1      25.331   9.198  31.463  1.00  0.00     0.274 HD
ATOM     18  H11 UNL     1      26.758   8.580  30.775  1.00  0.00     0.274 HD
ENDBRANCH  14  15
ENDBRANCH  10  14
BRANCH  11  19
HETATM   19  O4  UNL     1      26.027  11.569  28.861  1.00  0.00    -0.393 OA
ATOM     20  H4  UNL     1      26.130  12.324  28.293  1.00  0.00     0.210 HD
ENDBRANCH  11  19
BRANCH  13  21
HETATM   21  N2  UNL     1      21.692  11.739  28.540  1.00  0.00    -0.070 N
ATOM     22  H23 UNL     1      21.670  12.419  29.300  1.00  0.00     0.274 HD
ATOM     23  H22 UNL     1      20.812  12.009  28.100  1.00  0.00     0.274 HD
ATOM     24  H21 UNL     1      21.699  10.772  28.865  1.00  0.00     0.274 HD
ENDBRANCH  13  21
ENDBRANCH   7   8
ENDBRANCH   3   7
BRANCH   5  25
HETATM   25  C13 UNL     1      22.953   8.113  24.254  1.00  0.00     0.171 C
BRANCH  25  26
HETATM   26  N3  UNL     1      21.905   7.943  23.464  1.00  0.00    -0.387 NA
HETATM   27  C14 UNL     1      20.803   7.763  22.632  1.00  0.00     0.286 C
HETATM   28  C15 UNL     1      20.872   6.738  21.504  1.00  0.00     0.135 C
HETATM   29  O5  UNL     1      19.677   8.333  22.629  1.00  0.00    -0.258 OA
ENDBRANCH  25  26
ENDBRANCH   5  25
BRANCH   1  30
HETATM   30  C2  UNL     1      26.244  11.222  23.034  1.00  0.00     0.030 C
HETATM   31  C1  UNL     1      27.604  11.576  23.502  1.00  0.00     0.007 C
ENDBRANCH   1  30
BRANCH   6  32
HETATM   32  O6  UNL     1      23.664  10.015  22.319  1.00  0.00    -0.358 OA
BRANCH  32  33
HETATM   33  C17 UNL     1      22.792  10.785  21.589  1.00  0.00     0.224 C
HETATM   34  C18 UNL     1      23.275  12.179  21.231  1.00  0.00     0.086 C
HETATM   35  C19 UNL     1      22.159  12.766  20.382  1.00  0.00     0.194 C
HETATM   36  C20 UNL     1      21.113  13.213  21.427  1.00  0.00     0.105 C
HETATM   37  C21 UNL     1      20.722  11.907  22.076  1.00  0.00     0.092 C
HETATM   38  N5  UNL     1      19.431  11.807  22.687  1.00  0.00    -0.088 NA
HETATM   39  N6  UNL     1      21.468  10.904  22.120  1.00  0.00    -0.355 N
ATOM     40  H6  UNL     1      21.090  10.078  22.586  1.00  0.00     0.163 HD
BRANCH  35  41
HETATM   41  N4  UNL     1      22.509  13.842  19.533  1.00  0.00    -0.074 N
ATOM     42  H43 UNL     1      23.033  14.540  20.063  1.00  0.00     0.274 HD
ATOM     43  H42 UNL     1      23.223  13.538  18.871  1.00  0.00     0.274 HD
ATOM     44  H41 UNL     1      21.745  14.294  19.031  1.00  0.00     0.274 HD
ENDBRANCH  35  41
ENDBRANCH  32  33
ENDBRANCH   6  32
TORSDOF 12
ENDMDL